MODEL 1
REMARK VINA RESULT:      -8.1      0.000      0.000
REMARK  6 active torsions:
REMARK  status: ('A' for Active; 'I' for Inactive)
REMARK    1  A    between atoms: C_3  and  C_32 
REMARK    2  A    between atoms: C_6  and  C_7 
REMARK    3  A    between atoms: C_9  and  C_28 
REMARK    4  A    between atoms: C_18  and  C_19 
REMARK    5  A    between atoms: C_19  and  C_20 
REMARK    6  A    between atoms: C_23  and  N_27 
ROOT
HETATM    1  C   UNK N   1      26.142  16.377   3.340  0.00  0.00     0.046 C 
HETATM    2  C   UNK N   1      27.377  16.152   3.979  0.00  0.00     0.067 C 
HETATM    3  C   UNK N   1      28.123  17.229   4.425  0.00  0.00     0.144 C 
HETATM    4  N   UNK N   1      27.650  18.470   4.161  0.00  0.00    -0.235 N 
HETATM    5  C   UNK N   1      26.461  18.644   3.619  0.00  0.00     0.140 A 
HETATM    6  N   UNK N   1      25.654  17.625   3.251  0.00  0.00    -0.340 N 
ATOM      7  HN  UNK N   1      24.707  17.797   2.915  1.00  0.00     0.167 HD
HETATM    8  C   UNK N   1      26.183  19.925   3.540  0.00  0.00     0.034 A 
HETATM    9  C   UNK N   1      27.301  20.605   3.995  0.00  0.00     0.123 A 
HETATM   10  N   UNK N   1      28.199  19.655   4.385  0.00  0.00    -0.302 N 
ATOM     11  HN  UNK N   1      29.125  19.825   4.779  1.00  0.00     0.186 HD
HETATM   12  C   UNK N   1      24.862  20.290   3.366  0.00  0.00     0.073 C 
ENDROOT
BRANCH  12  13
HETATM   13  C   UNK N   1      23.702  20.111   3.253  0.00  0.00    -0.114 C 
BRANCH  13  14
HETATM   14  C   UNK N   1      22.340  19.867   3.130  0.00  0.00     0.025 A 
HETATM   15  C   UNK N   1      21.937  18.657   3.605  0.00  0.00     0.025 A 
HETATM   16  C   UNK N   1      20.680  18.183   3.315  0.00  0.00     0.049 A 
HETATM   17  C   UNK N   1      19.834  18.955   2.522  0.00  0.00     0.098 A 
HETATM   18  N   UNK N   1      20.239  20.164   2.047  0.00  0.00    -0.351 N 
HETATM   19  C   UNK N   1      21.488  20.643   2.313  0.00  0.00     0.109 A 
ATOM     20  HN  UNK N   1      19.598  20.722   1.483  1.00  0.00     0.166 HD
BRANCH  17  21
HETATM   21  N   UNK N   1      18.548  18.465   2.247  0.00  0.00    -0.385 N 
HETATM   22  H   UNK N   1      17.958  18.147   2.969  0.00  0.00     0.157 HD
HETATM   23  H   UNK N   1      18.229  18.439   1.316  0.00  0.00     0.157 HD
ENDBRANCH  17  21
ENDBRANCH  13  14
ENDBRANCH  12  13
BRANCH   3  24
HETATM   24  C   UNK N   1      29.399  16.964   5.125  0.00  0.00     0.434 C 
HETATM   25  F   UNK N   1      29.519  15.595   5.208  0.00  0.00    -0.165 F 
HETATM   26  F   UNK N   1      30.473  17.501   4.446  0.00  0.00    -0.165 F 
HETATM   27  F   UNK N   1      29.362  17.505   6.403  0.00  0.00    -0.165 F 
ENDBRANCH   3  24
BRANCH   1  28
HETATM   28  C   UNK N   1      25.318  15.243   3.041  0.00  0.00    -0.009 C 
HETATM   29  C   UNK N   1      24.184  15.107   3.835  0.00  0.00     0.014 C 
HETATM   30  C   UNK N   1      23.001  14.743   3.262  0.00  0.00     0.017 C 
HETATM   31  C   UNK N   1      22.954  14.520   1.890  0.00  0.00     0.048 C 
HETATM   32  C   UNK N   1      24.131  14.457   1.130  0.00  0.00     0.017 C 
HETATM   33  C   UNK N   1      25.333  14.809   1.715  0.00  0.00     0.014 C 
BRANCH  31  34
HETATM   34  C   UNK N   1      21.639  14.421   1.250  0.00  0.00     0.417 C 
HETATM   35  F   UNK N   1      21.771  13.550   0.197  0.00  0.00    -0.166 F 
HETATM   36  F   UNK N   1      20.707  13.939   2.162  0.00  0.00    -0.166 F 
HETATM   37  F   UNK N   1      21.219  15.667   0.817  0.00  0.00    -0.166 F 
ENDBRANCH  31  34
ENDBRANCH   1  28
TORSDOF 6
ENDMDL
MODEL 2
REMARK VINA RESULT:      -7.9      5.948      9.965
REMARK  6 active torsions:
REMARK  status: ('A' for Active; 'I' for Inactive)
REMARK    1  A    between atoms: C_3  and  C_32 
REMARK    2  A    between atoms: C_6  and  C_7 
REMARK    3  A    between atoms: C_9  and  C_28 
REMARK    4  A    between atoms: C_18  and  C_19 
REMARK    5  A    between atoms: C_19  and  C_20 
REMARK    6  A    between atoms: C_23  and  N_27 
ROOT
HETATM    1  C   UNK N   1      29.675  17.698   5.012  0.00  0.00     0.046 C 
HETATM    2  C   UNK N   1      28.717  18.697   4.751  0.00  0.00     0.067 C 
HETATM    3  C   UNK N   1      28.004  19.251   5.800  0.00  0.00     0.144 C 
HETATM    4  N   UNK N   1      28.221  18.749   7.038  0.00  0.00    -0.235 N 
HETATM    5  C   UNK N   1      29.170  17.860   7.256  0.00  0.00     0.140 A 
HETATM    6  N   UNK N   1      29.957  17.357   6.280  0.00  0.00    -0.340 N 
ATOM      7  HN  UNK N   1      30.736  16.737   6.498  1.00  0.00     0.167 HD
HETATM    8  C   UNK N   1      29.250  17.589   8.539  0.00  0.00     0.034 A 
HETATM    9  C   UNK N   1      28.236  18.299   9.161  0.00  0.00     0.123 A 
HETATM   10  N   UNK N   1      27.616  19.023   8.185  0.00  0.00    -0.302 N 
ATOM     11  HN  UNK N   1      26.830  19.662   8.314  1.00  0.00     0.186 HD
HETATM   12  C   UNK N   1      30.407  16.993   9.002  0.00  0.00     0.073 C 
ENDROOT
BRANCH  12  13
HETATM   13  C   UNK N   1      31.497  16.552   8.920  0.00  0.00    -0.114 C 
BRANCH  13  14
HETATM   14  C   UNK N   1      32.781  16.038   8.789  0.00  0.00     0.025 A 
HETATM   15  C   UNK N   1      33.463  16.489   7.701  0.00  0.00     0.025 A 
HETATM   16  C   UNK N   1      34.629  15.874   7.310  0.00  0.00     0.049 A 
HETATM   17  C   UNK N   1      35.092  14.781   8.038  0.00  0.00     0.098 A 
HETATM   18  N   UNK N   1      34.408  14.331   9.126  0.00  0.00    -0.351 N 
HETATM   19  C   UNK N   1      33.243  14.919   9.518  0.00  0.00     0.109 A 
ATOM     20  HN  UNK N   1      34.774  13.540   9.656  1.00  0.00     0.166 HD
BRANCH  17  21
HETATM   21  N   UNK N   1      36.291  14.173   7.636  0.00  0.00    -0.385 N 
HETATM   22  H   UNK N   1      36.800  14.510   6.863  0.00  0.00     0.157 HD
HETATM   23  H   UNK N   1      36.631  13.396   8.137  0.00  0.00     0.157 HD
ENDBRANCH  17  21
ENDBRANCH  13  14
ENDBRANCH  12  13
BRANCH   3  24
HETATM   24  C   UNK N   1      27.030  20.324   5.504  0.00  0.00     0.434 C 
HETATM   25  F   UNK N   1      27.132  20.579   4.155  0.00  0.00    -0.165 F 
HETATM   26  F   UNK N   1      25.743  19.945   5.825  0.00  0.00    -0.165 F 
HETATM   27  F   UNK N   1      27.351  21.470   6.219  0.00  0.00    -0.165 F 
ENDBRANCH   3  24
BRANCH   1  28
HETATM   28  C   UNK N   1      30.513  17.265   3.932  0.00  0.00    -0.009 C 
HETATM   29  C   UNK N   1      31.818  17.748   3.962  0.00  0.00     0.014 C 
HETATM   30  C   UNK N   1      32.851  16.912   3.654  0.00  0.00     0.017 C 
HETATM   31  C   UNK N   1      32.576  15.591   3.322  0.00  0.00     0.048 C 
HETATM   32  C   UNK N   1      31.260  15.163   3.094  0.00  0.00     0.017 C 
HETATM   33  C   UNK N   1      30.212  16.015   3.389  0.00  0.00     0.014 C 
BRANCH  31  34
HETATM   34  C   UNK N   1      33.693  14.641   3.283  0.00  0.00     0.417 C 
HETATM   35  F   UNK N   1      33.160  13.389   3.467  0.00  0.00    -0.166 F 
HETATM   36  F   UNK N   1      34.333  14.718   2.052  0.00  0.00    -0.166 F 
HETATM   37  F   UNK N   1      34.615  14.941   4.272  0.00  0.00    -0.166 F 
ENDBRANCH  31  34
ENDBRANCH   1  28
TORSDOF 6
ENDMDL
MODEL 3
REMARK VINA RESULT:      -7.9      3.291      3.903
REMARK  6 active torsions:
REMARK  status: ('A' for Active; 'I' for Inactive)
REMARK    1  A    between atoms: C_3  and  C_32 
REMARK    2  A    between atoms: C_6  and  C_7 
REMARK    3  A    between atoms: C_9  and  C_28 
REMARK    4  A    between atoms: C_18  and  C_19 
REMARK    5  A    between atoms: C_19  and  C_20 
REMARK    6  A    between atoms: C_23  and  N_27 
ROOT
HETATM    1  C   UNK N   1      25.955  16.430   5.902  0.00  0.00     0.046 C 
HETATM    2  C   UNK N   1      27.071  16.524   6.757  0.00  0.00     0.067 C 
HETATM    3  C   UNK N   1      27.846  17.670   6.747  0.00  0.00     0.144 C 
HETATM    4  N   UNK N   1      27.525  18.635   5.852  0.00  0.00    -0.235 N 
HETATM    5  C   UNK N   1      26.437  18.543   5.113  0.00  0.00     0.140 A 
HETATM    6  N   UNK N   1      25.597  17.486   5.153  0.00  0.00    -0.340 N 
ATOM      7  HN  UNK N   1      24.722  17.487   4.630  1.00  0.00     0.167 HD
HETATM    8  C   UNK N   1      26.289  19.629   4.389  0.00  0.00     0.034 A 
HETATM    9  C   UNK N   1      27.395  20.427   4.635  0.00  0.00     0.123 A 
HETATM   10  N   UNK N   1      28.145  19.771   5.567  0.00  0.00    -0.302 N 
ATOM     11  HN  UNK N   1      29.023  20.096   5.973  1.00  0.00     0.186 HD
HETATM   12  C   UNK N   1      25.041  19.884   3.856  0.00  0.00     0.073 C 
ENDROOT
BRANCH  12  13
HETATM   13  C   UNK N   1      23.894  19.691   3.661  0.00  0.00    -0.114 C 
BRANCH  13  14
HETATM   14  C   UNK N   1      22.536  19.485   3.455  0.00  0.00     0.025 A 
HETATM   15  C   UNK N   1      22.092  18.246   3.806  0.00  0.00     0.025 A 
HETATM   16  C   UNK N   1      20.843  17.823   3.419  0.00  0.00     0.049 A 
HETATM   17  C   UNK N   1      20.047  18.675   2.658  0.00  0.00     0.098 A 
HETATM   18  N   UNK N   1      20.492  19.913   2.308  0.00  0.00    -0.351 N 
HETATM   19  C   UNK N   1      21.735  20.343   2.670  0.00  0.00     0.109 A 
ATOM     20  HN  UNK N   1      19.887  20.529   1.765  1.00  0.00     0.166 HD
BRANCH  17  21
HETATM   21  N   UNK N   1      18.768  18.235   2.284  0.00  0.00    -0.385 N 
HETATM   22  H   UNK N   1      17.957  18.626   2.684  0.00  0.00     0.157 HD
HETATM   23  H   UNK N   1      18.679  17.523   1.609  0.00  0.00     0.157 HD
ENDBRANCH  17  21
ENDBRANCH  13  14
ENDBRANCH  12  13
BRANCH   3  24
HETATM   24  C   UNK N   1      28.990  17.759   7.680  0.00  0.00     0.434 C 
HETATM   25  F   UNK N   1      28.790  16.785   8.632  0.00  0.00    -0.165 F 
HETATM   26  F   UNK N   1      30.192  17.559   7.032  0.00  0.00    -0.165 F 
HETATM   27  F   UNK N   1      29.013  19.006   8.289  0.00  0.00    -0.165 F 
ENDBRANCH   3  24
BRANCH   1  28
HETATM   28  C   UNK N   1      25.078  15.306   6.054  0.00  0.00    -0.009 C 
HETATM   29  C   UNK N   1      25.590  14.251   6.803  0.00  0.00     0.014 C 
HETATM   30  C   UNK N   1      24.786  13.611   7.701  0.00  0.00     0.017 C 
HETATM   31  C   UNK N   1      23.470  14.034   7.851  0.00  0.00     0.048 C 
HETATM   32  C   UNK N   1      22.902  14.954   6.957  0.00  0.00     0.017 C 
HETATM   33  C   UNK N   1      23.713  15.590   6.036  0.00  0.00     0.014 C 
BRANCH  31  34
HETATM   34  C   UNK N   1      22.714  13.544   9.008  0.00  0.00     0.417 C 
HETATM   35  F   UNK N   1      22.144  12.352   8.638  0.00  0.00    -0.166 F 
HETATM   36  F   UNK N   1      23.573  13.355  10.085  0.00  0.00    -0.166 F 
HETATM   37  F   UNK N   1      21.750  14.466   9.378  0.00  0.00    -0.166 F 
ENDBRANCH  31  34
ENDBRANCH   1  28
TORSDOF 6
ENDMDL
MODEL 4
REMARK VINA RESULT:      -7.7      4.353      8.460
REMARK  6 active torsions:
REMARK  status: ('A' for Active; 'I' for Inactive)
REMARK    1  A    between atoms: C_3  and  C_32 
REMARK    2  A    between atoms: C_6  and  C_7 
REMARK    3  A    between atoms: C_9  and  C_28 
REMARK    4  A    between atoms: C_18  and  C_19 
REMARK    5  A    between atoms: C_19  and  C_20 
REMARK    6  A    between atoms: C_23  and  N_27 
ROOT
HETATM    1  C   UNK N   1      27.823  17.256   6.412  0.00  0.00     0.046 C 
HETATM    2  C   UNK N   1      27.883  18.527   5.807  0.00  0.00     0.067 C 
HETATM    3  C   UNK N   1      26.807  18.983   5.066  0.00  0.00     0.144 C 
HETATM    4  N   UNK N   1      25.759  18.142   4.902  0.00  0.00    -0.235 N 
HETATM    5  C   UNK N   1      25.707  16.986   5.535  0.00  0.00     0.140 A 
HETATM    6  N   UNK N   1      26.691  16.536   6.344  0.00  0.00    -0.340 N 
ATOM      7  HN  UNK N   1      26.579  15.678   6.883  1.00  0.00     0.167 HD
HETATM    8  C   UNK N   1      24.564  16.387   5.291  0.00  0.00     0.034 A 
HETATM    9  C   UNK N   1      23.880  17.184   4.387  0.00  0.00     0.123 A 
HETATM   10  N   UNK N   1      24.661  18.283   4.174  0.00  0.00    -0.302 N 
ATOM     11  HN  UNK N   1      24.439  19.072   3.565  1.00  0.00     0.186 HD
HETATM   12  C   UNK N   1      24.169  15.377   6.146  0.00  0.00     0.073 C 
ENDROOT
BRANCH  12  13
HETATM   13  C   UNK N   1      24.252  14.667   7.084  0.00  0.00    -0.114 C 
BRANCH  13  14
HETATM   14  C   UNK N   1      24.316  13.832   8.192  0.00  0.00     0.025 A 
HETATM   15  C   UNK N   1      23.136  13.238   8.521  0.00  0.00     0.025 A 
HETATM   16  C   UNK N   1      22.995  12.601   9.731  0.00  0.00     0.049 A 
HETATM   17  C   UNK N   1      24.072  12.585  10.615  0.00  0.00     0.098 A 
HETATM   18  N   UNK N   1      25.250  13.181  10.284  0.00  0.00    -0.351 N 
HETATM   19  C   UNK N   1      25.403  13.829   9.095  0.00  0.00     0.109 A 
ATOM     20  HN  UNK N   1      26.032  13.143  10.938  1.00  0.00     0.166 HD
BRANCH  17  21
HETATM   21  N   UNK N   1      23.918  11.919  11.840  0.00  0.00    -0.385 N 
HETATM   22  H   UNK N   1      24.535  12.082  12.590  0.00  0.00     0.157 HD
HETATM   23  H   UNK N   1      23.181  11.276  11.953  0.00  0.00     0.157 HD
ENDBRANCH  17  21
ENDBRANCH  13  14
ENDBRANCH  12  13
BRANCH   3  24
HETATM   24  C   UNK N   1      26.880  20.335   4.472  0.00  0.00     0.434 C 
HETATM   25  F   UNK N   1      27.987  20.941   5.022  0.00  0.00    -0.165 F 
HETATM   26  F   UNK N   1      26.995  20.282   3.098  0.00  0.00    -0.165 F 
HETATM   27  F   UNK N   1      25.743  21.061   4.798  0.00  0.00    -0.165 F 
ENDBRANCH   3  24
BRANCH   1  28
HETATM   28  C   UNK N   1      28.878  16.882   7.308  0.00  0.00    -0.009 C 
HETATM   29  C   UNK N   1      29.891  16.112   6.743  0.00  0.00     0.014 C 
HETATM   30  C   UNK N   1      31.191  16.373   7.062  0.00  0.00     0.017 C 
HETATM   31  C   UNK N   1      31.476  17.410   7.944  0.00  0.00     0.048 C 
HETATM   32  C   UNK N   1      30.454  18.045   8.665  0.00  0.00     0.017 C 
HETATM   33  C   UNK N   1      29.135  17.769   8.353  0.00  0.00     0.014 C 
BRANCH  31  34
HETATM   34  C   UNK N   1      32.866  17.867   8.048  0.00  0.00     0.417 C 
HETATM   35  F   UNK N   1      33.470  17.093   9.008  0.00  0.00    -0.166 F 
HETATM   36  F   UNK N   1      33.506  17.707   6.825  0.00  0.00    -0.166 F 
HETATM   37  F   UNK N   1      32.907  19.208   8.390  0.00  0.00    -0.166 F 
ENDBRANCH  31  34
ENDBRANCH   1  28
TORSDOF 6
ENDMDL
MODEL 5
REMARK VINA RESULT:      -7.6     11.054     13.067
REMARK  6 active torsions:
REMARK  status: ('A' for Active; 'I' for Inactive)
REMARK    1  A    between atoms: C_3  and  C_32 
REMARK    2  A    between atoms: C_6  and  C_7 
REMARK    3  A    between atoms: C_9  and  C_28 
REMARK    4  A    between atoms: C_18  and  C_19 
REMARK    5  A    between atoms: C_19  and  C_20 
REMARK    6  A    between atoms: C_23  and  N_27 
ROOT
HETATM    1  C   UNK N   1      27.367  23.393  -6.902  0.00  0.00     0.046 C 
HETATM    2  C   UNK N   1      26.598  24.528  -7.221  0.00  0.00     0.067 C 
HETATM    3  C   UNK N   1      26.345  25.479  -6.248  0.00  0.00     0.144 C 
HETATM    4  N   UNK N   1      26.803  25.232  -4.998  0.00  0.00    -0.235 N 
HETATM    5  C   UNK N   1      27.574  24.191  -4.749  0.00  0.00     0.140 A 
HETATM    6  N   UNK N   1      27.927  23.285  -5.686  0.00  0.00    -0.340 N 
ATOM      7  HN  UNK N   1      28.593  22.542  -5.477  1.00  0.00     0.167 HD
HETATM    8  C   UNK N   1      27.963  24.207  -3.494  0.00  0.00     0.034 A 
HETATM    9  C   UNK N   1      27.337  25.288  -2.895  0.00  0.00     0.123 A 
HETATM   10  N   UNK N   1      26.623  25.913  -3.876  0.00  0.00    -0.302 N 
ATOM     11  HN  UNK N   1      26.054  26.753  -3.766  1.00  0.00     0.186 HD
HETATM   12  C   UNK N   1      29.058  23.440  -3.148  0.00  0.00     0.073 C 
ENDROOT
BRANCH  12  13
HETATM   13  C   UNK N   1      29.966  22.712  -3.340  0.00  0.00    -0.114 C 
BRANCH  13  14
HETATM   14  C   UNK N   1      31.055  21.880  -3.568  0.00  0.00     0.025 A 
HETATM   15  C   UNK N   1      30.871  20.969  -4.563  0.00  0.00     0.025 A 
HETATM   16  C   UNK N   1      31.754  19.928  -4.720  0.00  0.00     0.049 A 
HETATM   17  C   UNK N   1      32.829  19.816  -3.841  0.00  0.00     0.098 A 
HETATM   18  N   UNK N   1      33.010  20.727  -2.846  0.00  0.00    -0.351 N 
HETATM   19  C   UNK N   1      32.136  21.758  -2.667  0.00  0.00     0.109 A 
ATOM     20  HN  UNK N   1      33.813  20.638  -2.224  1.00  0.00     0.166 HD
BRANCH  17  21
HETATM   21  N   UNK N   1      33.731  18.756  -4.022  0.00  0.00    -0.385 N 
HETATM   22  H   UNK N   1      33.680  18.173  -4.815  0.00  0.00     0.157 HD
HETATM   23  H   UNK N   1      34.426  18.591  -3.345  0.00  0.00     0.157 HD
ENDBRANCH  17  21
ENDBRANCH  13  14
ENDBRANCH  12  13
BRANCH   3  24
HETATM   24  C   UNK N   1      25.565  26.680  -6.618  0.00  0.00     0.434 C 
HETATM   25  F   UNK N   1      25.285  26.562  -7.960  0.00  0.00    -0.165 F 
HETATM   26  F   UNK N   1      24.398  26.773  -5.889  0.00  0.00    -0.165 F 
HETATM   27  F   UNK N   1      26.321  27.824  -6.400  0.00  0.00    -0.165 F 
ENDBRANCH   3  24
BRANCH   1  28
HETATM   28  C   UNK N   1      27.752  22.514  -7.968  0.00  0.00    -0.009 C 
HETATM   29  C   UNK N   1      29.110  22.511  -8.273  0.00  0.00     0.014 C 
HETATM   30  C   UNK N   1      29.738  21.328  -8.535  0.00  0.00     0.017 C 
HETATM   31  C   UNK N   1      29.004  20.148  -8.486  0.00  0.00     0.048 C 
HETATM   32  C   UNK N   1      27.605  20.172  -8.382  0.00  0.00     0.017 C 
HETATM   33  C   UNK N   1      26.967  21.373  -8.132  0.00  0.00     0.014 C 
BRANCH  31  34
HETATM   34  C   UNK N   1      29.737  18.878  -8.477  0.00  0.00     0.417 C 
HETATM   35  F   UNK N   1      31.003  19.150  -8.023  0.00  0.00    -0.166 F 
HETATM   36  F   UNK N   1      29.104  17.975  -7.631  0.00  0.00    -0.166 F 
HETATM   37  F   UNK N   1      29.769  18.332  -9.749  0.00  0.00    -0.166 F 
ENDBRANCH  31  34
ENDBRANCH   1  28
TORSDOF 6
ENDMDL
MODEL 6
REMARK VINA RESULT:      -7.5     11.157     13.072
REMARK  6 active torsions:
REMARK  status: ('A' for Active; 'I' for Inactive)
REMARK    1  A    between atoms: C_3  and  C_32 
REMARK    2  A    between atoms: C_6  and  C_7 
REMARK    3  A    between atoms: C_9  and  C_28 
REMARK    4  A    between atoms: C_18  and  C_19 
REMARK    5  A    between atoms: C_19  and  C_20 
REMARK    6  A    between atoms: C_23  and  N_27 
ROOT
HETATM    1  C   UNK N   1      29.550  21.853  -6.485  0.00  0.00     0.046 C 
HETATM    2  C   UNK N   1      30.135  21.225  -7.602  0.00  0.00     0.067 C 
HETATM    3  C   UNK N   1      29.365  20.965  -8.722  0.00  0.00     0.144 C 
HETATM    4  N   UNK N   1      28.048  21.274  -8.661  0.00  0.00    -0.235 N 
HETATM    5  C   UNK N   1      27.547  21.919  -7.626  0.00  0.00     0.140 A 
HETATM    6  N   UNK N   1      28.278  22.278  -6.548  0.00  0.00    -0.340 N 
ATOM      7  HN  UNK N   1      27.877  22.851  -5.806  1.00  0.00     0.167 HD
HETATM    8  C   UNK N   1      26.277  22.183  -7.829  0.00  0.00     0.034 A 
HETATM    9  C   UNK N   1      25.936  21.602  -9.041  0.00  0.00     0.123 A 
HETATM   10  N   UNK N   1      27.080  21.047  -9.537  0.00  0.00    -0.302 N 
ATOM     11  HN  UNK N   1      27.173  20.548 -10.423  1.00  0.00     0.186 HD
HETATM   12  C   UNK N   1      25.689  23.165  -7.056  0.00  0.00     0.073 C 
ENDROOT
BRANCH  12  13
HETATM   13  C   UNK N   1      25.656  24.017  -6.241  0.00  0.00    -0.114 C 
BRANCH  13  14
HETATM   14  C   UNK N   1      25.640  25.038  -5.299  0.00  0.00     0.025 A 
HETATM   15  C   UNK N   1      25.119  26.213  -5.748  0.00  0.00     0.025 A 
HETATM   16  C   UNK N   1      25.277  27.365  -5.016  0.00  0.00     0.049 A 
HETATM   17  C   UNK N   1      25.986  27.312  -3.818  0.00  0.00     0.098 A 
HETATM   18  N   UNK N   1      26.508  26.137  -3.372  0.00  0.00    -0.351 N 
HETATM   19  C   UNK N   1      26.373  24.987  -4.093  0.00  0.00     0.109 A 
ATOM     20  HN  UNK N   1      27.009  26.115  -2.484  1.00  0.00     0.166 HD
BRANCH  17  21
HETATM   21  N   UNK N   1      26.128  28.493  -3.074  0.00  0.00    -0.385 N 
HETATM   22  H   UNK N   1      26.275  28.468  -2.101  0.00  0.00     0.157 HD
HETATM   23  H   UNK N   1      26.079  29.363  -3.533  0.00  0.00     0.157 HD
ENDBRANCH  17  21
ENDBRANCH  13  14
ENDBRANCH  12  13
BRANCH   3  24
HETATM   24  C   UNK N   1      30.012  20.337  -9.895  0.00  0.00     0.434 C 
HETATM   25  F   UNK N   1      29.651  21.093 -10.987  0.00  0.00    -0.165 F 
HETATM   26  F   UNK N   1      31.385  20.307  -9.763  0.00  0.00    -0.165 F 
HETATM   27  F   UNK N   1      29.549  19.038 -10.056  0.00  0.00    -0.165 F 
ENDBRANCH   3  24
BRANCH   1  28
HETATM   28  C   UNK N   1      30.407  22.260  -5.410  0.00  0.00    -0.009 C 
HETATM   29  C   UNK N   1      30.213  21.585  -4.209  0.00  0.00     0.014 C 
HETATM   30  C   UNK N   1      31.293  21.197  -3.472  0.00  0.00     0.017 C 
HETATM   31  C   UNK N   1      32.570  21.480  -3.945  0.00  0.00     0.048 C 
HETATM   32  C   UNK N   1      32.761  22.332  -5.042  0.00  0.00     0.017 C 
HETATM   33  C   UNK N   1      31.664  22.740  -5.779  0.00  0.00     0.014 C 
BRANCH  31  34
HETATM   34  C   UNK N   1      33.708  20.809  -3.306  0.00  0.00     0.417 C 
HETATM   35  F   UNK N   1      33.571  20.992  -1.953  0.00  0.00    -0.166 F 
HETATM   36  F   UNK N   1      33.689  19.455  -3.616  0.00  0.00    -0.166 F 
HETATM   37  F   UNK N   1      34.900  21.344  -3.765  0.00  0.00    -0.166 F 
ENDBRANCH  31  34
ENDBRANCH   1  28
TORSDOF 6
ENDMDL
MODEL 7
REMARK VINA RESULT:      -7.3      5.112      7.584
REMARK  6 active torsions:
REMARK  status: ('A' for Active; 'I' for Inactive)
REMARK    1  A    between atoms: C_3  and  C_32 
REMARK    2  A    between atoms: C_6  and  C_7 
REMARK    3  A    between atoms: C_9  and  C_28 
REMARK    4  A    between atoms: C_18  and  C_19 
REMARK    5  A    between atoms: C_19  and  C_20 
REMARK    6  A    between atoms: C_23  and  N_27 
ROOT
HETATM    1  C   UNK N   1      29.926  16.777   6.884  0.00  0.00     0.046 C 
HETATM    2  C   UNK N   1      31.077  17.354   7.454  0.00  0.00     0.067 C 
HETATM    3  C   UNK N   1      32.321  16.814   7.179  0.00  0.00     0.144 C 
HETATM    4  N   UNK N   1      32.363  15.697   6.415  0.00  0.00    -0.235 N 
HETATM    5  C   UNK N   1      31.274  15.221   5.845  0.00  0.00     0.140 A 
HETATM    6  N   UNK N   1      30.049  15.767   6.007  0.00  0.00    -0.340 N 
ATOM      7  HN  UNK N   1      29.244  15.423   5.484  1.00  0.00     0.167 HD
HETATM    8  C   UNK N   1      31.573  14.190   5.088  0.00  0.00     0.034 A 
HETATM    9  C   UNK N   1      32.930  13.957   5.248  0.00  0.00     0.123 A 
HETATM   10  N   UNK N   1      33.393  14.932   6.083  0.00  0.00    -0.302 N 
ATOM     11  HN  UNK N   1      34.357  15.051   6.396  1.00  0.00     0.186 HD
HETATM   12  C   UNK N   1      30.656  13.806   4.129  0.00  0.00     0.073 C 
ENDROOT
BRANCH  12  13
HETATM   13  C   UNK N   1      29.658  13.876   3.505  0.00  0.00    -0.114 C 
BRANCH  13  14
HETATM   14  C   UNK N   1      28.473  13.986   2.788  0.00  0.00     0.025 A 
HETATM   15  C   UNK N   1      27.945  15.240   2.758  0.00  0.00     0.025 A 
HETATM   16  C   UNK N   1      26.661  15.440   2.312  0.00  0.00     0.049 A 
HETATM   17  C   UNK N   1      25.908  14.341   1.905  0.00  0.00     0.098 A 
HETATM   18  N   UNK N   1      26.437  13.088   1.937  0.00  0.00    -0.351 N 
HETATM   19  C   UNK N   1      27.705  12.869   2.390  0.00  0.00     0.109 A 
ATOM     20  HN  UNK N   1      25.876  12.298   1.618  1.00  0.00     0.166 HD
BRANCH  17  21
HETATM   21  N   UNK N   1      24.604  14.563   1.439  0.00  0.00    -0.385 N 
HETATM   22  H   UNK N   1      24.211  15.466   1.431  0.00  0.00     0.157 HD
HETATM   23  H   UNK N   1      24.070  13.802   1.113  0.00  0.00     0.157 HD
ENDBRANCH  17  21
ENDBRANCH  13  14
ENDBRANCH  12  13
BRANCH   3  24
HETATM   24  C   UNK N   1      33.517  17.461   7.761  0.00  0.00     0.434 C 
HETATM   25  F   UNK N   1      33.969  16.621   8.752  0.00  0.00    -0.165 F 
HETATM   26  F   UNK N   1      34.500  17.659   6.813  0.00  0.00    -0.165 F 
HETATM   27  F   UNK N   1      33.174  18.688   8.312  0.00  0.00    -0.165 F 
ENDBRANCH   3  24
BRANCH   1  28
HETATM   28  C   UNK N   1      28.674  17.456   7.051  0.00  0.00    -0.009 C 
HETATM   29  C   UNK N   1      28.633  18.379   8.091  0.00  0.00     0.014 C 
HETATM   30  C   UNK N   1      28.013  19.579   7.902  0.00  0.00     0.017 C 
HETATM   31  C   UNK N   1      27.438  19.855   6.667  0.00  0.00     0.048 C 
HETATM   32  C   UNK N   1      27.300  18.854   5.695  0.00  0.00     0.017 C 
HETATM   33  C   UNK N   1      27.915  17.631   5.893  0.00  0.00     0.014 C 
BRANCH  31  34
HETATM   34  C   UNK N   1      27.040  21.238   6.383  0.00  0.00     0.417 C 
HETATM   35  F   UNK N   1      26.475  21.243   5.133  0.00  0.00    -0.166 F 
HETATM   36  F   UNK N   1      26.119  21.666   7.332  0.00  0.00    -0.166 F 
HETATM   37  F   UNK N   1      28.141  22.076   6.438  0.00  0.00    -0.166 F 
ENDBRANCH  31  34
ENDBRANCH   1  28
TORSDOF 6
ENDMDL
MODEL 8
REMARK VINA RESULT:      -7.2      3.878      7.280
REMARK  6 active torsions:
REMARK  status: ('A' for Active; 'I' for Inactive)
REMARK    1  A    between atoms: C_3  and  C_32 
REMARK    2  A    between atoms: C_6  and  C_7 
REMARK    3  A    between atoms: C_9  and  C_28 
REMARK    4  A    between atoms: C_18  and  C_19 
REMARK    5  A    between atoms: C_19  and  C_20 
REMARK    6  A    between atoms: C_23  and  N_27 
ROOT
HETATM    1  C   UNK N   1      22.503  16.940   4.780  0.00  0.00     0.046 C 
HETATM    2  C   UNK N   1      21.365  17.572   4.242  0.00  0.00     0.067 C 
HETATM    3  C   UNK N   1      21.506  18.761   3.549  0.00  0.00     0.144 C 
HETATM    4  N   UNK N   1      22.746  19.300   3.478  0.00  0.00    -0.235 N 
HETATM    5  C   UNK N   1      23.798  18.651   3.936  0.00  0.00     0.140 A 
HETATM    6  N   UNK N   1      23.724  17.444   4.538  0.00  0.00    -0.340 N 
ATOM      7  HN  UNK N   1      24.566  16.934   4.802  1.00  0.00     0.167 HD
HETATM    8  C   UNK N   1      24.894  19.328   3.680  0.00  0.00     0.034 A 
HETATM    9  C   UNK N   1      24.500  20.517   3.086  0.00  0.00     0.123 A 
HETATM   10  N   UNK N   1      23.142  20.458   2.968  0.00  0.00    -0.302 N 
ATOM     11  HN  UNK N   1      22.540  21.175   2.561  1.00  0.00     0.186 HD
HETATM   12  C   UNK N   1      26.097  18.652   3.731  0.00  0.00     0.073 C 
ENDROOT
BRANCH  12  13
HETATM   13  C   UNK N   1      26.800  17.715   3.865  0.00  0.00    -0.114 C 
BRANCH  13  14
HETATM   14  C   UNK N   1      27.643  16.618   3.993  0.00  0.00     0.025 A 
HETATM   15  C   UNK N   1      27.210  15.672   4.872  0.00  0.00     0.025 A 
HETATM   16  C   UNK N   1      28.058  14.673   5.287  0.00  0.00     0.049 A 
HETATM   17  C   UNK N   1      29.364  14.651   4.804  0.00  0.00     0.098 A 
HETATM   18  N   UNK N   1      29.795  15.599   3.926  0.00  0.00    -0.351 N 
HETATM   19  C   UNK N   1      28.973  16.605   3.515  0.00  0.00     0.109 A 
ATOM     20  HN  UNK N   1      30.750  15.555   3.570  1.00  0.00     0.166 HD
BRANCH  17  21
HETATM   21  N   UNK N   1      30.213  13.617   5.225  0.00  0.00    -0.385 N 
HETATM   22  H   UNK N   1      29.851  12.762   5.555  0.00  0.00     0.157 HD
HETATM   23  H   UNK N   1      31.189  13.748   5.191  0.00  0.00     0.157 HD
ENDBRANCH  17  21
ENDBRANCH  13  14
ENDBRANCH  12  13
BRANCH   3  24
HETATM   24  C   UNK N   1      20.300  19.386   2.963  0.00  0.00     0.434 C 
HETATM   25  F   UNK N   1      19.273  18.487   3.139  0.00  0.00    -0.165 F 
HETATM   26  F   UNK N   1      20.000  20.585   3.575  0.00  0.00    -0.165 F 
HETATM   27  F   UNK N   1      20.492  19.611   1.607  0.00  0.00    -0.165 F 
ENDBRANCH   3  24
BRANCH   1  28
HETATM   28  C   UNK N   1      22.348  15.631   5.344  0.00  0.00    -0.009 C 
HETATM   29  C   UNK N   1      23.457  15.146   6.031  0.00  0.00     0.014 C 
HETATM   30  C   UNK N   1      23.281  14.483   7.210  0.00  0.00     0.017 C 
HETATM   31  C   UNK N   1      21.992  14.313   7.704  0.00  0.00     0.048 C 
HETATM   32  C   UNK N   1      20.872  14.618   6.917  0.00  0.00     0.017 C 
HETATM   33  C   UNK N   1      21.051  15.275   5.714  0.00  0.00     0.014 C 
BRANCH  31  34
HETATM   34  C   UNK N   1      21.837  13.869   9.094  0.00  0.00     0.417 C 
HETATM   35  F   UNK N   1      21.136  14.849   9.750  0.00  0.00    -0.166 F 
HETATM   36  F   UNK N   1      21.138  12.669   9.128  0.00  0.00    -0.166 F 
HETATM   37  F   UNK N   1      23.078  13.667   9.675  0.00  0.00    -0.166 F 
ENDBRANCH  31  34
ENDBRANCH   1  28
TORSDOF 6
ENDMDL
MODEL 9
REMARK VINA RESULT:      -7.2      6.577      9.793
REMARK  6 active torsions:
REMARK  status: ('A' for Active; 'I' for Inactive)
REMARK    1  A    between atoms: C_3  and  C_32 
REMARK    2  A    between atoms: C_6  and  C_7 
REMARK    3  A    between atoms: C_9  and  C_28 
REMARK    4  A    between atoms: C_18  and  C_19 
REMARK    5  A    between atoms: C_19  and  C_20 
REMARK    6  A    between atoms: C_23  and  N_27 
ROOT
HETATM    1  C   UNK N   1      33.125  14.608   3.930  0.00  0.00     0.046 C 
HETATM    2  C   UNK N   1      33.702  14.001   2.798  0.00  0.00     0.067 C 
HETATM    3  C   UNK N   1      32.978  13.064   2.081  0.00  0.00     0.144 C 
HETATM    4  N   UNK N   1      31.754  12.725   2.552  0.00  0.00    -0.235 N 
HETATM    5  C   UNK N   1      31.219  13.359   3.576  0.00  0.00     0.140 A 
HETATM    6  N   UNK N   1      31.848  14.345   4.252  0.00  0.00    -0.340 N 
ATOM      7  HN  UNK N   1      31.370  14.871   4.984  1.00  0.00     0.167 HD
HETATM    8  C   UNK N   1      30.001  12.919   3.795  0.00  0.00     0.034 A 
HETATM    9  C   UNK N   1      29.782  11.888   2.895  0.00  0.00     0.123 A 
HETATM   10  N   UNK N   1      30.904  11.802   2.124  0.00  0.00    -0.302 N 
ATOM     11  HN  UNK N   1      31.061  11.148   1.357  1.00  0.00     0.186 HD
HETATM   12  C   UNK N   1      29.157  13.705   4.553  0.00  0.00     0.073 C 
ENDROOT
BRANCH  12  13
HETATM   13  C   UNK N   1      28.841  14.655   5.176  0.00  0.00    -0.114 C 
BRANCH  13  14
HETATM   14  C   UNK N   1      28.501  15.776   5.924  0.00  0.00     0.025 A 
HETATM   15  C   UNK N   1      29.563  16.471   6.416  0.00  0.00     0.025 A 
HETATM   16  C   UNK N   1      29.373  17.437   7.375  0.00  0.00     0.049 A 
HETATM   17  C   UNK N   1      28.084  17.683   7.840  0.00  0.00     0.098 A 
HETATM   18  N   UNK N   1      27.023  16.986   7.348  0.00  0.00    -0.351 N 
HETATM   19  C   UNK N   1      27.195  16.014   6.407  0.00  0.00     0.109 A 
ATOM     20  HN  UNK N   1      26.085  17.193   7.688  1.00  0.00     0.166 HD
BRANCH  17  21
HETATM   21  N   UNK N   1      27.904  18.682   8.809  0.00  0.00    -0.385 N 
HETATM   22  H   UNK N   1      27.058  18.761   9.309  0.00  0.00     0.157 HD
HETATM   23  H   UNK N   1      28.635  19.315   8.994  0.00  0.00     0.157 HD
ENDBRANCH  17  21
ENDBRANCH  13  14
ENDBRANCH  12  13
BRANCH   3  24
HETATM   24  C   UNK N   1      33.592  12.467   0.875  0.00  0.00     0.434 C 
HETATM   25  F   UNK N   1      34.727  13.201   0.614  0.00  0.00    -0.165 F 
HETATM   26  F   UNK N   1      33.912  11.140   1.071  0.00  0.00    -0.165 F 
HETATM   27  F   UNK N   1      32.720  12.563  -0.201  0.00  0.00    -0.165 F 
ENDBRANCH   3  24
BRANCH   1  28
HETATM   28  C   UNK N   1      33.830  15.691   4.550  0.00  0.00    -0.009 C 
HETATM   29  C   UNK N   1      33.147  16.903   4.583  0.00  0.00     0.014 C 
HETATM   30  C   UNK N   1      33.190  17.669   5.711  0.00  0.00     0.017 C 
HETATM   31  C   UNK N   1      33.914  17.217   6.808  0.00  0.00     0.048 C 
HETATM   32  C   UNK N   1      34.763  16.105   6.704  0.00  0.00     0.017 C 
HETATM   33  C   UNK N   1      34.732  15.338   5.554  0.00  0.00     0.014 C 
BRANCH  31  34
HETATM   34  C   UNK N   1      33.715  17.893   8.095  0.00  0.00     0.417 C 
HETATM   35  F   UNK N   1      33.901  16.950   9.074  0.00  0.00    -0.166 F 
HETATM   36  F   UNK N   1      34.637  18.923   8.233  0.00  0.00    -0.166 F 
HETATM   37  F   UNK N   1      32.443  18.436   8.160  0.00  0.00    -0.166 F 
ENDBRANCH  31  34
ENDBRANCH   1  28
TORSDOF 6
ENDMDL
