MODEL 1
REMARK VINA RESULT:      -7.1      0.000      0.000
REMARK  8 active torsions:
REMARK  status: ('A' for Active; 'I' for Inactive)
REMARK       I    between atoms: C_2  and  N_4 
REMARK    1  A    between atoms: C_5  and  N_4 
REMARK    2  A    between atoms: C_10  and  O_29 
REMARK    3  A    between atoms: C_11  and  O_27 
REMARK    4  A    between atoms: C_12  and  O_25 
REMARK    5  A    between atoms: C_17  and  O_20 
REMARK    6  A    between atoms: O_20  and  P_21 
REMARK    7  A    between atoms: P_21  and  O_23 
REMARK    8  A    between atoms: P_21  and  O_24 
ROOT
HETATM    1  C   UNK N   1      32.464  16.657   4.325  0.00  0.00     0.119 C 
HETATM    2  C   UNK N   1      31.400  17.151   3.379  0.00  0.00     0.034 C 
HETATM    3  C   UNK N   1      30.127  16.399   3.628  0.00  0.00     0.042 C 
HETATM    4  C   UNK N   1      29.289  17.254   4.485  0.00  0.00    -0.041 A 
HETATM    5  C   UNK N   1      28.109  17.728   3.918  0.00  0.00     0.047 A 
HETATM    6  C   UNK N   1      27.250  18.575   4.619  0.00  0.00     0.104 A 
HETATM    7  C   UNK N   1      27.555  18.942   5.926  0.00  0.00     0.136 A 
HETATM    8  C   UNK N   1      28.736  18.442   6.547  0.00  0.00     0.116 A 
HETATM    9  C   UNK N   1      29.647  17.596   5.812  0.00  0.00     0.017 A 
HETATM   10  C   UNK N   1      30.961  17.163   6.472  0.00  0.00    -0.014 C 
HETATM   11  C   UNK N   1      32.202  16.822   5.813  0.00  0.00    -0.022 C 
HETATM   12  C   UNK N   1      33.357  16.686   6.603  0.00  0.00     0.047 C 
HETATM   13  C   UNK N   1      33.343  16.784   7.986  0.00  0.00     0.081 C 
HETATM   14  C   UNK N   1      32.126  16.956   8.627  0.00  0.00     0.038 C 
HETATM   15  C   UNK N   1      30.979  17.161   7.880  0.00  0.00     0.016 C 
ENDROOT
BRANCH  13  16
HETATM   16  O   UNK N   1      34.533  16.756   8.661  0.00  0.00    -0.255 OA
BRANCH  16  17
HETATM   17  P   UNK N   1      34.945  15.996  10.177  0.00  0.00     0.396 P 
HETATM   18  O   UNK N   1      36.491  15.856  10.217  0.00  0.00    -0.631 OA
BRANCH  17  19
HETATM   19  O   UNK N   1      35.260  14.706   9.051  0.00  0.00    -0.307 OA
HETATM   20  H   UNK N   1      34.788  14.571   8.214  0.00  0.00     0.222 HD
ENDBRANCH  17  19
BRANCH  17  21
HETATM   21  O   UNK N   1      35.538  17.627  10.227  0.00  0.00    -0.307 OA
HETATM   22  H   UNK N   1      36.392  18.084  10.279  0.00  0.00     0.222 HD
ENDBRANCH  17  21
ENDBRANCH  16  17
ENDBRANCH  13  16
BRANCH   1  23
HETATM   23  N   UNK N   1      32.759  15.267   4.014  0.00  0.00    -0.353 N 
HETATM   24  C   UNK N   1      33.482  14.850   2.942  0.00  0.00     0.214 C 
HETATM   25  C   UNK N   1      33.762  13.399   2.769  0.00  0.00     0.117 C 
HETATM   26  O   UNK N   1      33.903  15.644   2.116  0.00  0.00    -0.274 OA
HETATM   27  H   UNK N   1      32.410  14.578   4.624  0.00  0.00     0.163 HD
ENDBRANCH   1  23
BRANCH   8  28
HETATM   28  O   UNK N   1      29.026  18.798   7.816  0.00  0.00    -0.352 OA
HETATM   29  C   UNK N   1      28.250  18.374   8.874  0.00  0.00     0.210 C 
ENDBRANCH   8  28
BRANCH   7  30
HETATM   30  O   UNK N   1      26.700  19.815   6.539  0.00  0.00    -0.351 OA
HETATM   31  C   UNK N   1      26.854  21.178   6.631  0.00  0.00     0.210 C 
ENDBRANCH   7  30
BRANCH   6  32
HETATM   32  O   UNK N   1      26.133  19.078   4.038  0.00  0.00    -0.353 OA
HETATM   33  C   UNK N   1      26.142  20.131   3.152  0.00  0.00     0.210 C 
ENDBRANCH   6  32
TORSDOF 8
ENDMDL
MODEL 2
REMARK VINA RESULT:      -6.8     12.454     16.039
REMARK  8 active torsions:
REMARK  status: ('A' for Active; 'I' for Inactive)
REMARK       I    between atoms: C_2  and  N_4 
REMARK    1  A    between atoms: C_5  and  N_4 
REMARK    2  A    between atoms: C_10  and  O_29 
REMARK    3  A    between atoms: C_11  and  O_27 
REMARK    4  A    between atoms: C_12  and  O_25 
REMARK    5  A    between atoms: C_17  and  O_20 
REMARK    6  A    between atoms: O_20  and  P_21 
REMARK    7  A    between atoms: P_21  and  O_23 
REMARK    8  A    between atoms: P_21  and  O_24 
ROOT
HETATM    1  C   UNK N   1      26.509  25.769  -5.027  0.00  0.00     0.119 C 
HETATM    2  C   UNK N   1      25.381  26.210  -5.923  0.00  0.00     0.034 C 
HETATM    3  C   UNK N   1      25.946  26.871  -7.145  0.00  0.00     0.042 C 
HETATM    4  C   UNK N   1      25.953  25.857  -8.212  0.00  0.00    -0.041 A 
HETATM    5  C   UNK N   1      25.112  26.096  -9.296  0.00  0.00     0.047 A 
HETATM    6  C   UNK N   1      25.006  25.190 -10.352  0.00  0.00     0.104 A 
HETATM    7  C   UNK N   1      25.773  24.029 -10.348  0.00  0.00     0.136 A 
HETATM    8  C   UNK N   1      26.672  23.776  -9.272  0.00  0.00     0.116 A 
HETATM    9  C   UNK N   1      26.756  24.691  -8.158  0.00  0.00     0.017 A 
HETATM   10  C   UNK N   1      27.653  24.336  -6.967  0.00  0.00    -0.014 C 
HETATM   11  C   UNK N   1      27.494  24.759  -5.593  0.00  0.00    -0.022 C 
HETATM   12  C   UNK N   1      28.278  24.132  -4.610  0.00  0.00     0.047 C 
HETATM   13  C   UNK N   1      29.250  23.188  -4.907  0.00  0.00     0.081 C 
HETATM   14  C   UNK N   1      29.509  22.898  -6.238  0.00  0.00     0.038 C 
HETATM   15  C   UNK N   1      28.712  23.446  -7.227  0.00  0.00     0.016 C 
ENDROOT
BRANCH  13  16
HETATM   16  O   UNK N   1      29.881  22.545  -3.878  0.00  0.00    -0.255 OA
BRANCH  16  17
HETATM   17  P   UNK N   1      31.555  22.587  -3.386  0.00  0.00     0.396 P 
HETATM   18  O   UNK N   1      31.687  21.696  -2.122  0.00  0.00    -0.631 OA
BRANCH  17  19
HETATM   19  O   UNK N   1      30.809  23.547  -2.140  0.00  0.00    -0.307 OA
HETATM   20  H   UNK N   1      30.204  24.289  -2.297  0.00  0.00     0.222 HD
ENDBRANCH  17  19
BRANCH  17  21
HETATM   21  O   UNK N   1      31.209  20.978  -3.938  0.00  0.00    -0.307 OA
HETATM   22  H   UNK N   1      30.549  20.530  -4.490  0.00  0.00     0.222 HD
ENDBRANCH  17  21
ENDBRANCH  16  17
ENDBRANCH  13  16
BRANCH   1  23
HETATM   23  N   UNK N   1      27.213  26.948  -4.547  0.00  0.00    -0.353 N 
HETATM   24  C   UNK N   1      26.896  27.633  -3.417  0.00  0.00     0.214 C 
HETATM   25  C   UNK N   1      27.734  28.792  -3.005  0.00  0.00     0.117 C 
HETATM   26  O   UNK N   1      25.934  27.317  -2.736  0.00  0.00    -0.274 OA
HETATM   27  H   UNK N   1      27.974  27.274  -5.079  0.00  0.00     0.163 HD
ENDBRANCH   1  23
BRANCH   8  28
HETATM   28  O   UNK N   1      27.416  22.650  -9.274  0.00  0.00    -0.352 OA
HETATM   29  C   UNK N   1      26.838  21.409  -9.110  0.00  0.00     0.210 C 
ENDBRANCH   8  28
BRANCH   7  30
HETATM   30  O   UNK N   1      25.584  23.160 -11.386  0.00  0.00    -0.351 OA
HETATM   31  C   UNK N   1      26.344  23.079 -12.529  0.00  0.00     0.210 C 
ENDBRANCH   7  30
BRANCH   6  32
HETATM   32  O   UNK N   1      24.141  25.404 -11.374  0.00  0.00    -0.353 OA
HETATM   33  C   UNK N   1      23.767  26.655 -11.809  0.00  0.00     0.210 C 
ENDBRANCH   6  32
TORSDOF 8
ENDMDL
MODEL 3
REMARK VINA RESULT:      -6.8      2.140      2.605
REMARK  8 active torsions:
REMARK  status: ('A' for Active; 'I' for Inactive)
REMARK       I    between atoms: C_2  and  N_4 
REMARK    1  A    between atoms: C_5  and  N_4 
REMARK    2  A    between atoms: C_10  and  O_29 
REMARK    3  A    between atoms: C_11  and  O_27 
REMARK    4  A    between atoms: C_12  and  O_25 
REMARK    5  A    between atoms: C_17  and  O_20 
REMARK    6  A    between atoms: O_20  and  P_21 
REMARK    7  A    between atoms: P_21  and  O_23 
REMARK    8  A    between atoms: P_21  and  O_24 
ROOT
HETATM    1  C   UNK N   1      31.162  15.258   5.255  0.00  0.00     0.119 C 
HETATM    2  C   UNK N   1      30.127  15.029   4.183  0.00  0.00     0.034 C 
HETATM    3  C   UNK N   1      28.868  14.513   4.812  0.00  0.00     0.042 C 
HETATM    4  C   UNK N   1      27.966  15.666   4.967  0.00  0.00    -0.041 A 
HETATM    5  C   UNK N   1      26.799  15.644   4.209  0.00  0.00     0.047 A 
HETATM    6  C   UNK N   1      25.883  16.696   4.244  0.00  0.00     0.104 A 
HETATM    7  C   UNK N   1      26.118  17.790   5.073  0.00  0.00     0.136 A 
HETATM    8  C   UNK N   1      27.284  17.824   5.890  0.00  0.00     0.116 A 
HETATM    9  C   UNK N   1      28.254  16.754   5.827  0.00  0.00     0.017 A 
HETATM   10  C   UNK N   1      29.549  16.873   6.639  0.00  0.00    -0.014 C 
HETATM   11  C   UNK N   1      30.828  16.269   6.339  0.00  0.00    -0.022 C 
HETATM   12  C   UNK N   1      31.950  16.694   7.072  0.00  0.00     0.047 C 
HETATM   13  C   UNK N   1      31.871  17.602   8.118  0.00  0.00     0.081 C 
HETATM   14  C   UNK N   1      30.621  18.061   8.504  0.00  0.00     0.038 C 
HETATM   15  C   UNK N   1      29.504  17.716   7.764  0.00  0.00     0.016 C 
ENDROOT
BRANCH  13  16
HETATM   16  O   UNK N   1      33.029  18.046   8.694  0.00  0.00    -0.255 OA
BRANCH  16  17
HETATM   17  P   UNK N   1      34.641  17.378   8.634  0.00  0.00     0.396 P 
HETATM   18  O   UNK N   1      35.373  17.826   9.927  0.00  0.00    -0.631 OA
BRANCH  17  19
HETATM   19  O   UNK N   1      34.959  19.065   8.349  0.00  0.00    -0.307 OA
HETATM   20  H   UNK N   1      34.376  19.667   7.861  0.00  0.00     0.222 HD
ENDBRANCH  17  19
BRANCH  17  21
HETATM   21  O   UNK N   1      33.790  16.587   9.925  0.00  0.00    -0.307 OA
HETATM   22  H   UNK N   1      33.553  15.684  10.187  0.00  0.00     0.222 HD
ENDBRANCH  17  21
ENDBRANCH  16  17
ENDBRANCH  13  16
BRANCH   1  23
HETATM   23  N   UNK N   1      31.514  13.977   5.847  0.00  0.00    -0.353 N 
HETATM   24  C   UNK N   1      32.685  13.322   5.638  0.00  0.00     0.214 C 
HETATM   25  C   UNK N   1      32.946  12.043   6.351  0.00  0.00     0.117 C 
HETATM   26  O   UNK N   1      33.527  13.762   4.871  0.00  0.00    -0.274 OA
HETATM   27  H   UNK N   1      30.855  13.553   6.443  0.00  0.00     0.163 HD
ENDBRANCH   1  23
BRANCH   8  28
HETATM   28  O   UNK N   1      27.506  18.884   6.695  0.00  0.00    -0.352 OA
HETATM   29  C   UNK N   1      27.817  20.124   6.176  0.00  0.00     0.210 C 
ENDBRANCH   8  28
BRANCH   7  30
HETATM   30  O   UNK N   1      25.209  18.809   5.022  0.00  0.00    -0.351 OA
HETATM   31  C   UNK N   1      25.117  19.770   4.043  0.00  0.00     0.210 C 
ENDBRANCH   7  30
BRANCH   6  32
HETATM   32  O   UNK N   1      24.779  16.691   3.458  0.00  0.00    -0.353 OA
HETATM   33  C   UNK N   1      23.672  15.910   3.702  0.00  0.00     0.210 C 
ENDBRANCH   6  32
TORSDOF 8
ENDMDL
MODEL 4
REMARK VINA RESULT:      -6.8      6.805     10.413
REMARK  8 active torsions:
REMARK  status: ('A' for Active; 'I' for Inactive)
REMARK       I    between atoms: C_2  and  N_4 
REMARK    1  A    between atoms: C_5  and  N_4 
REMARK    2  A    between atoms: C_10  and  O_29 
REMARK    3  A    between atoms: C_11  and  O_27 
REMARK    4  A    between atoms: C_12  and  O_25 
REMARK    5  A    between atoms: C_17  and  O_20 
REMARK    6  A    between atoms: O_20  and  P_21 
REMARK    7  A    between atoms: P_21  and  O_23 
REMARK    8  A    between atoms: P_21  and  O_24 
ROOT
HETATM    1  C   UNK N   1      24.981  15.997   4.401  0.00  0.00     0.119 C 
HETATM    2  C   UNK N   1      25.184  14.694   5.131  0.00  0.00     0.034 C 
HETATM    3  C   UNK N   1      25.268  14.958   6.605  0.00  0.00     0.042 C 
HETATM    4  C   UNK N   1      23.935  14.679   7.164  0.00  0.00    -0.041 A 
HETATM    5  C   UNK N   1      23.848  13.604   8.044  0.00  0.00     0.047 A 
HETATM    6  C   UNK N   1      22.632  13.220   8.611  0.00  0.00     0.104 A 
HETATM    7  C   UNK N   1      21.475  13.937   8.318  0.00  0.00     0.136 A 
HETATM    8  C   UNK N   1      21.539  15.066   7.452  0.00  0.00     0.116 A 
HETATM    9  C   UNK N   1      22.789  15.443   6.832  0.00  0.00     0.017 A 
HETATM   10  C   UNK N   1      22.802  16.595   5.822  0.00  0.00    -0.014 C 
HETATM   11  C   UNK N   1      23.725  16.788   4.725  0.00  0.00    -0.022 C 
HETATM   12  C   UNK N   1      23.423  17.774   3.770  0.00  0.00     0.047 C 
HETATM   13  C   UNK N   1      22.330  18.621   3.876  0.00  0.00     0.081 C 
HETATM   14  C   UNK N   1      21.535  18.538   5.009  0.00  0.00     0.038 C 
HETATM   15  C   UNK N   1      21.762  17.536   5.936  0.00  0.00     0.016 C 
ENDROOT
BRANCH  13  16
HETATM   16  O   UNK N   1      22.050  19.469   2.840  0.00  0.00    -0.255 OA
BRANCH  16  17
HETATM   17  P   UNK N   1      20.719  20.579   2.627  0.00  0.00     0.396 P 
HETATM   18  O   UNK N   1      20.902  21.256   1.242  0.00  0.00    -0.631 OA
BRANCH  17  19
HETATM   19  O   UNK N   1      22.043  21.678   2.891  0.00  0.00    -0.307 OA
HETATM   20  H   UNK N   1      21.955  22.584   3.227  0.00  0.00     0.222 HD
ENDBRANCH  17  19
BRANCH  17  21
HETATM   21  O   UNK N   1      20.524  19.295   1.475  0.00  0.00    -0.307 OA
HETATM   22  H   UNK N   1      20.253  18.364   1.471  0.00  0.00     0.222 HD
ENDBRANCH  17  21
ENDBRANCH  16  17
ENDBRANCH  13  16
BRANCH   1  23
HETATM   23  N   UNK N   1      26.163  16.825   4.586  0.00  0.00    -0.353 N 
HETATM   24  C   UNK N   1      27.240  16.834   3.758  0.00  0.00     0.214 C 
HETATM   25  C   UNK N   1      28.362  17.773   4.028  0.00  0.00     0.117 C 
HETATM   26  O   UNK N   1      27.306  16.083   2.798  0.00  0.00    -0.274 OA
HETATM   27  H   UNK N   1      26.184  17.422   5.368  0.00  0.00     0.163 HD
ENDBRANCH   1  23
BRANCH   8  28
HETATM   28  O   UNK N   1      20.416  15.760   7.174  0.00  0.00    -0.352 OA
HETATM   29  C   UNK N   1      19.815  16.561   8.123  0.00  0.00     0.210 C 
ENDBRANCH   8  28
BRANCH   7  30
HETATM   30  O   UNK N   1      20.309  13.479   8.865  0.00  0.00    -0.351 OA
HETATM   31  C   UNK N   1      19.864  13.709  10.146  0.00  0.00     0.210 C 
ENDBRANCH   7  30
BRANCH   6  32
HETATM   32  O   UNK N   1      22.548  12.136   9.421  0.00  0.00    -0.353 OA
HETATM   33  C   UNK N   1      23.181  12.043  10.639  0.00  0.00     0.210 C 
ENDBRANCH   6  32
TORSDOF 8
ENDMDL
MODEL 5
REMARK VINA RESULT:      -6.7     12.354     15.152
REMARK  8 active torsions:
REMARK  status: ('A' for Active; 'I' for Inactive)
REMARK       I    between atoms: C_2  and  N_4 
REMARK    1  A    between atoms: C_5  and  N_4 
REMARK    2  A    between atoms: C_10  and  O_29 
REMARK    3  A    between atoms: C_11  and  O_27 
REMARK    4  A    between atoms: C_12  and  O_25 
REMARK    5  A    between atoms: C_17  and  O_20 
REMARK    6  A    between atoms: O_20  and  P_21 
REMARK    7  A    between atoms: P_21  and  O_23 
REMARK    8  A    between atoms: P_21  and  O_24 
ROOT
HETATM    1  C   UNK N   1      29.389  23.562  -4.112  0.00  0.00     0.119 C 
HETATM    2  C   UNK N   1      30.334  24.257  -3.165  0.00  0.00     0.034 C 
HETATM    3  C   UNK N   1      31.114  25.295  -3.915  0.00  0.00     0.042 C 
HETATM    4  C   UNK N   1      30.450  26.586  -3.669  0.00  0.00    -0.041 A 
HETATM    5  C   UNK N   1      31.179  27.527  -2.948  0.00  0.00     0.047 A 
HETATM    6  C   UNK N   1      30.644  28.774  -2.622  0.00  0.00     0.104 A 
HETATM    7  C   UNK N   1      29.360  29.107  -3.045  0.00  0.00     0.136 A 
HETATM    8  C   UNK N   1      28.604  28.180  -3.818  0.00  0.00     0.116 A 
HETATM    9  C   UNK N   1      29.140  26.873  -4.124  0.00  0.00     0.017 A 
HETATM   10  C   UNK N   1      28.259  25.861  -4.865  0.00  0.00    -0.014 C 
HETATM   11  C   UNK N   1      28.337  24.419  -4.797  0.00  0.00    -0.022 C 
HETATM   12  C   UNK N   1      27.288  23.671  -5.361  0.00  0.00     0.047 C 
HETATM   13  C   UNK N   1      26.230  24.249  -6.046  0.00  0.00     0.081 C 
HETATM   14  C   UNK N   1      26.239  25.621  -6.244  0.00  0.00     0.038 C 
HETATM   15  C   UNK N   1      27.219  26.395  -5.647  0.00  0.00     0.016 C 
ENDROOT
BRANCH  13  16
HETATM   16  O   UNK N   1      25.196  23.453  -6.456  0.00  0.00    -0.255 OA
BRANCH  16  17
HETATM   17  P   UNK N   1      25.153  22.213  -7.684  0.00  0.00     0.396 P 
HETATM   18  O   UNK N   1      23.713  22.189  -8.264  0.00  0.00    -0.631 OA
BRANCH  17  19
HETATM   19  O   UNK N   1      24.224  21.469  -6.414  0.00  0.00    -0.307 OA
HETATM   20  H   UNK N   1      24.379  20.580  -6.059  0.00  0.00     0.222 HD
ENDBRANCH  17  19
BRANCH  17  21
HETATM   21  O   UNK N   1      24.966  23.747  -8.477  0.00  0.00    -0.307 OA
HETATM   22  H   UNK N   1      25.501  24.353  -9.011  0.00  0.00     0.222 HD
ENDBRANCH  17  21
ENDBRANCH  16  17
ENDBRANCH  13  16
BRANCH   1  23
HETATM   23  N   UNK N   1      30.170  22.832  -5.100  0.00  0.00    -0.353 N 
HETATM   24  C   UNK N   1      30.572  21.542  -4.969  0.00  0.00     0.214 C 
HETATM   25  C   UNK N   1      31.317  20.892  -6.080  0.00  0.00     0.117 C 
HETATM   26  O   UNK N   1      30.336  20.906  -3.954  0.00  0.00    -0.274 OA
HETATM   27  H   UNK N   1      30.425  23.308  -5.923  0.00  0.00     0.163 HD
ENDBRANCH   1  23
BRANCH   8  28
HETATM   28  O   UNK N   1      27.361  28.508  -4.228  0.00  0.00    -0.352 OA
HETATM   29  C   UNK N   1      26.282  28.437  -3.372  0.00  0.00     0.210 C 
ENDBRANCH   8  28
BRANCH   7  30
HETATM   30  O   UNK N   1      28.875  30.322  -2.649  0.00  0.00    -0.351 OA
HETATM   31  C   UNK N   1      28.260  30.604  -1.451  0.00  0.00     0.210 C 
ENDBRANCH   7  30
BRANCH   6  32
HETATM   32  O   UNK N   1      31.340  29.661  -1.869  0.00  0.00    -0.353 OA
HETATM   33  C   UNK N   1      32.700  29.843  -1.968  0.00  0.00     0.210 C 
ENDBRANCH   6  32
TORSDOF 8
ENDMDL
MODEL 6
REMARK VINA RESULT:      -6.5      8.983     12.509
REMARK  8 active torsions:
REMARK  status: ('A' for Active; 'I' for Inactive)
REMARK       I    between atoms: C_2  and  N_4 
REMARK    1  A    between atoms: C_5  and  N_4 
REMARK    2  A    between atoms: C_10  and  O_29 
REMARK    3  A    between atoms: C_11  and  O_27 
REMARK    4  A    between atoms: C_12  and  O_25 
REMARK    5  A    between atoms: C_17  and  O_20 
REMARK    6  A    between atoms: O_20  and  P_21 
REMARK    7  A    between atoms: P_21  and  O_23 
REMARK    8  A    between atoms: P_21  and  O_24 
ROOT
HETATM    1  C   UNK N   1      34.829  10.727  12.497  0.00  0.00     0.119 C 
HETATM    2  C   UNK N   1      34.445   9.544  13.347  0.00  0.00     0.034 C 
HETATM    3  C   UNK N   1      35.663   9.016  14.043  0.00  0.00     0.042 C 
HETATM    4  C   UNK N   1      35.650   9.574  15.405  0.00  0.00    -0.041 A 
HETATM    5  C   UNK N   1      35.486   8.662  16.445  0.00  0.00     0.047 A 
HETATM    6  C   UNK N   1      35.422   9.075  17.776  0.00  0.00     0.104 A 
HETATM    7  C   UNK N   1      35.550  10.425  18.089  0.00  0.00     0.136 A 
HETATM    8  C   UNK N   1      35.758  11.378  17.050  0.00  0.00     0.116 A 
HETATM    9  C   UNK N   1      35.786  10.960  15.668  0.00  0.00     0.017 A 
HETATM   10  C   UNK N   1      35.903  12.022  14.569  0.00  0.00    -0.014 C 
HETATM   11  C   UNK N   1      35.421  11.932  13.209  0.00  0.00    -0.022 C 
HETATM   12  C   UNK N   1      35.411  13.103  12.430  0.00  0.00     0.047 C 
HETATM   13  C   UNK N   1      35.916  14.314  12.879  0.00  0.00     0.081 C 
HETATM   14  C   UNK N   1      36.520  14.360  14.126  0.00  0.00     0.038 C 
HETATM   15  C   UNK N   1      36.488  13.246  14.945  0.00  0.00     0.016 C 
ENDROOT
BRANCH  13  16
HETATM   16  O   UNK N   1      35.756  15.425  12.097  0.00  0.00    -0.255 OA
BRANCH  16  17
HETATM   17  P   UNK N   1      35.645  15.569  10.361  0.00  0.00     0.396 P 
HETATM   18  O   UNK N   1      35.534  17.082  10.031  0.00  0.00    -0.631 OA
BRANCH  17  19
HETATM   19  O   UNK N   1      34.019  15.965  10.841  0.00  0.00    -0.307 OA
HETATM   20  H   UNK N   1      33.554  15.578  11.599  0.00  0.00     0.222 HD
ENDBRANCH  17  19
BRANCH  17  21
HETATM   21  O   UNK N   1      37.168  16.245  10.849  0.00  0.00    -0.307 OA
HETATM   22  H   UNK N   1      37.847  16.833  10.485  0.00  0.00     0.222 HD
ENDBRANCH  17  21
ENDBRANCH  16  17
ENDBRANCH  13  16
BRANCH   1  23
HETATM   23  N   UNK N   1      35.722  10.275  11.440  0.00  0.00    -0.353 N 
HETATM   24  C   UNK N   1      35.389  10.197  10.126  0.00  0.00     0.214 C 
HETATM   25  C   UNK N   1      36.416   9.772   9.136  0.00  0.00     0.117 C 
HETATM   26  O   UNK N   1      34.262  10.466   9.742  0.00  0.00    -0.274 OA
HETATM   27  H   UNK N   1      36.633  10.005  11.697  0.00  0.00     0.163 HD
ENDBRANCH   1  23
BRANCH   8  28
HETATM   28  O   UNK N   1      35.885  12.686  17.359  0.00  0.00    -0.352 OA
HETATM   29  C   UNK N   1      34.855  13.385  17.954  0.00  0.00     0.210 C 
ENDBRANCH   8  28
BRANCH   7  30
HETATM   30  O   UNK N   1      35.427  10.769  19.406  0.00  0.00    -0.351 OA
HETATM   31  C   UNK N   1      36.444  10.831  20.330  0.00  0.00     0.210 C 
ENDBRANCH   7  30
BRANCH   6  32
HETATM   32  O   UNK N   1      35.204   8.186  18.776  0.00  0.00    -0.353 OA
HETATM   33  C   UNK N   1      33.972   7.639  19.056  0.00  0.00     0.210 C 
ENDBRANCH   6  32
TORSDOF 8
ENDMDL
MODEL 7
REMARK VINA RESULT:      -6.4      5.172      9.615
REMARK  8 active torsions:
REMARK  status: ('A' for Active; 'I' for Inactive)
REMARK       I    between atoms: C_2  and  N_4 
REMARK    1  A    between atoms: C_5  and  N_4 
REMARK    2  A    between atoms: C_10  and  O_29 
REMARK    3  A    between atoms: C_11  and  O_27 
REMARK    4  A    between atoms: C_12  and  O_25 
REMARK    5  A    between atoms: C_17  and  O_20 
REMARK    6  A    between atoms: O_20  and  P_21 
REMARK    7  A    between atoms: P_21  and  O_23 
REMARK    8  A    between atoms: P_21  and  O_24 
ROOT
HETATM    1  C   UNK N   1      26.680  19.415   5.325  0.00  0.00     0.119 C 
HETATM    2  C   UNK N   1      28.035  18.781   5.506  0.00  0.00     0.034 C 
HETATM    3  C   UNK N   1      27.928  17.653   6.489  0.00  0.00     0.042 C 
HETATM    4  C   UNK N   1      27.823  16.413   5.703  0.00  0.00    -0.041 A 
HETATM    5  C   UNK N   1      28.885  15.519   5.816  0.00  0.00     0.047 A 
HETATM    6  C   UNK N   1      28.916  14.326   5.093  0.00  0.00     0.104 A 
HETATM    7  C   UNK N   1      27.855  13.997   4.255  0.00  0.00     0.136 A 
HETATM    8  C   UNK N   1      26.736  14.872   4.148  0.00  0.00     0.116 A 
HETATM    9  C   UNK N   1      26.718  16.127   4.865  0.00  0.00     0.017 A 
HETATM   10  C   UNK N   1      25.549  17.094   4.645  0.00  0.00    -0.014 C 
HETATM   11  C   UNK N   1      25.566  18.533   4.784  0.00  0.00    -0.022 C 
HETATM   12  C   UNK N   1      24.462  19.259   4.304  0.00  0.00     0.047 C 
HETATM   13  C   UNK N   1      23.329  18.654   3.780  0.00  0.00     0.081 C 
HETATM   14  C   UNK N   1      23.251  17.270   3.792  0.00  0.00     0.038 C 
HETATM   15  C   UNK N   1      24.344  16.524   4.194  0.00  0.00     0.016 C 
ENDROOT
BRANCH  13  16
HETATM   16  O   UNK N   1      22.356  19.442   3.229  0.00  0.00    -0.255 OA
BRANCH  16  17
HETATM   17  P   UNK N   1      20.619  19.354   3.384  0.00  0.00     0.396 P 
HETATM   18  O   UNK N   1      20.115  20.780   3.732  0.00  0.00    -0.631 OA
BRANCH  17  19
HETATM   19  O   UNK N   1      21.100  19.553   5.045  0.00  0.00    -0.307 OA
HETATM   20  H   UNK N   1      20.492  19.696   5.787  0.00  0.00     0.222 HD
ENDBRANCH  17  19
BRANCH  17  21
HETATM   21  O   UNK N   1      20.976  20.308   1.978  0.00  0.00    -0.307 OA
HETATM   22  H   UNK N   1      21.234  20.164   1.054  0.00  0.00     0.222 HD
ENDBRANCH  17  21
ENDBRANCH  16  17
ENDBRANCH  13  16
BRANCH   1  23
HETATM   23  N   UNK N   1      26.277  20.025   6.583  0.00  0.00    -0.353 N 
HETATM   24  C   UNK N   1      26.410  21.343   6.882  0.00  0.00     0.214 C 
HETATM   25  C   UNK N   1      25.904  21.852   8.185  0.00  0.00     0.117 C 
HETATM   26  O   UNK N   1      26.941  22.118   6.102  0.00  0.00    -0.274 OA
HETATM   27  H   UNK N   1      25.880  19.440   7.267  0.00  0.00     0.163 HD
ENDBRANCH   1  23
BRANCH   8  28
HETATM   28  O   UNK N   1      25.708  14.547   3.337  0.00  0.00    -0.352 OA
HETATM   29  C   UNK N   1      25.848  14.556   1.965  0.00  0.00     0.210 C 
ENDBRANCH   8  28
BRANCH   7  30
HETATM   30  O   UNK N   1      27.970  12.839   3.537  0.00  0.00    -0.351 OA
HETATM   31  C   UNK N   1      27.412  11.623   3.855  0.00  0.00     0.210 C 
ENDBRANCH   7  30
BRANCH   6  32
HETATM   32  O   UNK N   1      29.981  13.490   5.166  0.00  0.00    -0.353 OA
HETATM   33  C   UNK N   1      31.239  13.815   4.711  0.00  0.00     0.210 C 
ENDBRANCH   6  32
TORSDOF 8
ENDMDL
MODEL 8
REMARK VINA RESULT:      -6.4      3.251      5.901
REMARK  8 active torsions:
REMARK  status: ('A' for Active; 'I' for Inactive)
REMARK       I    between atoms: C_2  and  N_4 
REMARK    1  A    between atoms: C_5  and  N_4 
REMARK    2  A    between atoms: C_10  and  O_29 
REMARK    3  A    between atoms: C_11  and  O_27 
REMARK    4  A    between atoms: C_12  and  O_25 
REMARK    5  A    between atoms: C_17  and  O_20 
REMARK    6  A    between atoms: O_20  and  P_21 
REMARK    7  A    between atoms: P_21  and  O_23 
REMARK    8  A    between atoms: P_21  and  O_24 
ROOT
HETATM    1  C   UNK N   1      27.986  17.340   6.196  0.00  0.00     0.119 C 
HETATM    2  C   UNK N   1      26.854  16.575   5.559  0.00  0.00     0.034 C 
HETATM    3  C   UNK N   1      26.946  16.704   4.068  0.00  0.00     0.042 C 
HETATM    4  C   UNK N   1      27.605  15.483   3.575  0.00  0.00    -0.041 A 
HETATM    5  C   UNK N   1      26.831  14.641   2.781  0.00  0.00     0.047 A 
HETATM    6  C   UNK N   1      27.334  13.438   2.284  0.00  0.00     0.104 A 
HETATM    7  C   UNK N   1      28.648  13.071   2.561  0.00  0.00     0.136 A 
HETATM    8  C   UNK N   1      29.477  13.930   3.338  0.00  0.00     0.116 A 
HETATM    9  C   UNK N   1      28.948  15.158   3.886  0.00  0.00     0.017 A 
HETATM   10  C   UNK N   1      29.833  16.006   4.807  0.00  0.00    -0.014 C 
HETATM   11  C   UNK N   1      29.400  16.902   5.855  0.00  0.00    -0.022 C 
HETATM   12  C   UNK N   1      30.369  17.401   6.744  0.00  0.00     0.047 C 
HETATM   13  C   UNK N   1      31.724  17.137   6.611  0.00  0.00     0.081 C 
HETATM   14  C   UNK N   1      32.153  16.405   5.514  0.00  0.00     0.038 C 
HETATM   15  C   UNK N   1      31.223  15.843   4.658  0.00  0.00     0.016 C 
ENDROOT
BRANCH  13  16
HETATM   16  O   UNK N   1      32.579  17.566   7.589  0.00  0.00    -0.255 OA
BRANCH  16  17
HETATM   17  P   UNK N   1      34.125  16.928   8.089  0.00  0.00     0.396 P 
HETATM   18  O   UNK N   1      34.699  17.895   9.158  0.00  0.00    -0.631 OA
BRANCH  17  19
HETATM   19  O   UNK N   1      34.613  18.312   7.153  0.00  0.00    -0.307 OA
HETATM   20  H   UNK N   1      34.305  19.220   7.301  0.00  0.00     0.222 HD
ENDBRANCH  17  19
BRANCH  17  21
HETATM   21  O   UNK N   1      33.039  16.796   9.437  0.00  0.00    -0.307 OA
HETATM   22  H   UNK N   1      32.129  17.047   9.659  0.00  0.00     0.222 HD
ENDBRANCH  17  21
ENDBRANCH  16  17
ENDBRANCH  13  16
BRANCH   1  23
HETATM   23  N   UNK N   1      27.811  18.757   5.911  0.00  0.00    -0.353 N 
HETATM   24  C   UNK N   1      27.726  19.732   6.853  0.00  0.00     0.214 C 
HETATM   25  C   UNK N   1      27.607  21.152   6.426  0.00  0.00     0.117 C 
HETATM   26  O   UNK N   1      27.742  19.463   8.044  0.00  0.00    -0.274 OA
HETATM   27  H   UNK N   1      27.750  19.028   4.967  0.00  0.00     0.163 HD
ENDBRANCH   1  23
BRANCH   8  28
HETATM   28  O   UNK N   1      30.751  13.571   3.601  0.00  0.00    -0.352 OA
HETATM   29  C   UNK N   1      31.040  12.519   4.444  0.00  0.00     0.210 C 
ENDBRANCH   8  28
BRANCH   7  30
HETATM   30  O   UNK N   1      29.063  11.857   2.088  0.00  0.00    -0.351 OA
HETATM   31  C   UNK N   1      29.749  11.629   0.919  0.00  0.00     0.210 C 
ENDBRANCH   7  30
BRANCH   6  32
HETATM   32  O   UNK N   1      26.554  12.598   1.561  0.00  0.00    -0.353 OA
HETATM   33  C   UNK N   1      25.180  12.579   1.634  0.00  0.00     0.210 C 
ENDBRANCH   6  32
TORSDOF 8
ENDMDL
MODEL 9
REMARK VINA RESULT:      -6.3     12.747     14.581
REMARK  8 active torsions:
REMARK  status: ('A' for Active; 'I' for Inactive)
REMARK       I    between atoms: C_2  and  N_4 
REMARK    1  A    between atoms: C_5  and  N_4 
REMARK    2  A    between atoms: C_10  and  O_29 
REMARK    3  A    between atoms: C_11  and  O_27 
REMARK    4  A    between atoms: C_12  and  O_25 
REMARK    5  A    between atoms: C_17  and  O_20 
REMARK    6  A    between atoms: O_20  and  P_21 
REMARK    7  A    between atoms: P_21  and  O_23 
REMARK    8  A    between atoms: P_21  and  O_24 
ROOT
HETATM    1  C   UNK N   1      26.466  24.128  -6.581  0.00  0.00     0.119 C 
HETATM    2  C   UNK N   1      25.778  25.464  -6.480  0.00  0.00     0.034 C 
HETATM    3  C   UNK N   1      25.360  25.702  -5.060  0.00  0.00     0.042 C 
HETATM    4  C   UNK N   1      26.389  26.562  -4.452  0.00  0.00    -0.041 A 
HETATM    5  C   UNK N   1      25.982  27.840  -4.078  0.00  0.00     0.047 A 
HETATM    6  C   UNK N   1      26.875  28.758  -3.523  0.00  0.00     0.104 A 
HETATM    7  C   UNK N   1      28.201  28.391  -3.311  0.00  0.00     0.136 A 
HETATM    8  C   UNK N   1      28.637  27.078  -3.647  0.00  0.00     0.116 A 
HETATM    9  C   UNK N   1      27.726  26.137  -4.257  0.00  0.00     0.017 A 
HETATM   10  C   UNK N   1      28.254  24.770  -4.706  0.00  0.00    -0.014 C 
HETATM   11  C   UNK N   1      27.735  23.936  -5.766  0.00  0.00    -0.022 C 
HETATM   12  C   UNK N   1      28.504  22.834  -6.181  0.00  0.00     0.047 C 
HETATM   13  C   UNK N   1      29.692  22.468  -5.567  0.00  0.00     0.081 C 
HETATM   14  C   UNK N   1      30.108  23.177  -4.451  0.00  0.00     0.038 C 
HETATM   15  C   UNK N   1      29.413  24.305  -4.056  0.00  0.00     0.016 C 
ENDROOT
BRANCH  13  16
HETATM   16  O   UNK N   1      30.432  21.455  -6.113  0.00  0.00    -0.255 OA
BRANCH  16  17
HETATM   17  P   UNK N   1      32.142  21.126  -5.999  0.00  0.00     0.396 P 
HETATM   18  O   UNK N   1      32.415  19.824  -6.799  0.00  0.00    -0.631 OA
BRANCH  17  19
HETATM   19  O   UNK N   1      31.486  19.882  -4.974  0.00  0.00    -0.307 OA
HETATM   20  H   UNK N   1      31.678  19.781  -4.029  0.00  0.00     0.222 HD
ENDBRANCH  17  19
BRANCH  17  21
HETATM   21  O   UNK N   1      31.793  21.536  -7.650  0.00  0.00    -0.307 OA
HETATM   22  H   UNK N   1      31.081  21.397  -8.294  0.00  0.00     0.222 HD
ENDBRANCH  17  21
ENDBRANCH  16  17
ENDBRANCH  13  16
BRANCH   1  23
HETATM   23  N   UNK N   1      25.503  23.081  -6.273  0.00  0.00    -0.353 N 
HETATM   24  C   UNK N   1      25.149  22.081  -7.121  0.00  0.00     0.214 C 
HETATM   25  C   UNK N   1      24.193  21.037  -6.662  0.00  0.00     0.117 C 
HETATM   26  O   UNK N   1      25.597  22.025  -8.255  0.00  0.00    -0.274 OA
HETATM   27  H   UNK N   1      25.077  23.099  -5.386  0.00  0.00     0.163 HD
ENDBRANCH   1  23
BRANCH   8  28
HETATM   28  O   UNK N   1      29.923  26.726  -3.436  0.00  0.00    -0.352 OA
HETATM   29  C   UNK N   1      30.947  27.272  -4.181  0.00  0.00     0.210 C 
ENDBRANCH   8  28
BRANCH   7  30
HETATM   30  O   UNK N   1      29.036  29.352  -2.813  0.00  0.00    -0.351 OA
HETATM   31  C   UNK N   1      29.288  29.604  -1.485  0.00  0.00     0.210 C 
ENDBRANCH   7  30
BRANCH   6  32
HETATM   32  O   UNK N   1      26.484  30.019  -3.216  0.00  0.00    -0.353 OA
HETATM   33  C   UNK N   1      26.497  31.062  -4.114  0.00  0.00     0.210 C 
ENDBRANCH   6  32
TORSDOF 8
ENDMDL
