MODEL 1
REMARK VINA RESULT:      -8.0      0.000      0.000
REMARK  4 active torsions:
REMARK  status: ('A' for Active; 'I' for Inactive)
REMARK    1  A    between atoms: C_2  and  C_3 
REMARK    2  A    between atoms: C_2  and  N_21 
REMARK    3  A    between atoms: N_13  and  C_14 
REMARK    4  A    between atoms: N_21  and  C_22 
ROOT
HETATM    1  C   UNK N   1      32.535  17.053   7.133  0.00  0.00     0.043 A 
HETATM    2  C   UNK N   1      31.887  17.585   8.255  0.00  0.00     0.040 A 
HETATM    3  C   UNK N   1      30.511  17.606   8.362  0.00  0.00    -0.017 A 
HETATM    4  C   UNK N   1      29.931  18.141   9.513  0.00  0.00     0.012 A 
HETATM    5  C   UNK N   1      28.547  18.174   9.650  0.00  0.00     0.003 A 
HETATM    6  C   UNK N   1      27.735  17.670   8.636  0.00  0.00     0.025 A 
HETATM    7  C   UNK N   1      28.295  17.134   7.473  0.00  0.00     0.050 A 
HETATM    8  C   UNK N   1      29.715  17.099   7.322  0.00  0.00     0.064 A 
HETATM    9  C   UNK N   1      30.365  16.573   6.179  0.00  0.00     0.265 A 
HETATM   10  O   UNK N   1      29.695  16.108   5.270  0.00  0.00    -0.267 OA
HETATM   11  N   UNK N   1      31.761  16.549   6.087  0.00  0.00    -0.280 N 
HETATM   12 Cl   UNK N   1      27.163  16.524   6.266  0.00  0.00    -0.083 Cl
ENDROOT
BRANCH   1  13
HETATM   13  C   UNK N   1      34.068  17.232   7.105  0.00  0.00     0.130 C 
HETATM   14  C   UNK N   1      34.539  18.426   7.945  0.00  0.00     0.039 C 
BRANCH  13  15
HETATM   15  N   UNK N   1      34.852  16.052   7.381  0.00  0.00    -0.365 N 
HETATM   16  H   UNK N   1      35.684  15.918   6.872  0.00  0.00     0.162 HD
BRANCH  15  17
HETATM   17  C   UNK N   1      34.494  15.068   8.347  0.00  0.00     0.133 A 
HETATM   18  C   UNK N   1      34.887  15.197   9.669  0.00  0.00     0.122 A 
HETATM   19  C   UNK N   1      34.539  14.267  10.576  0.00  0.00     0.138 A 
HETATM   20  N   UNK N   1      35.585  16.170  10.267  0.00  0.00    -0.346 N 
HETATM   21  N   UNK N   1      35.002  14.606  11.785  0.00  0.00    -0.337 N 
HETATM   22  N   UNK N   1      33.814  13.171  10.257  0.00  0.00    -0.337 N 
HETATM   23  C   UNK N   1      35.644  15.786  11.571  0.00  0.00     0.182 A 
HETATM   24  H   UNK N   1      34.900  14.116  12.633  0.00  0.00     0.168 HD
HETATM   25  C   UNK N   1      33.415  13.025   8.955  0.00  0.00     0.183 A 
ATOM     26  HN  UNK N   1      33.571  12.477  10.963  1.00  0.00     0.168 HD
HETATM   27  N   UNK N   1      33.746  13.970   8.014  0.00  0.00    -0.337 N 
ATOM     28  HN  UNK N   1      33.430  13.852   7.052  1.00  0.00     0.168 HD
ATOM     29  HN  UNK N   1      35.983  17.007   9.841  1.00  0.00     0.167 HD
ENDBRANCH  15  17
ENDBRANCH  13  15
ENDBRANCH   1  13
BRANCH  11  30
HETATM   30  C   UNK N   1      32.320  15.938   4.893  0.00  0.00     0.042 A 
HETATM   31  C   UNK N   1      32.716  14.586   4.907  0.00  0.00     0.030 A 
HETATM   32  C   UNK N   1      33.424  14.036   3.835  0.00  0.00     0.002 A 
HETATM   33  C   UNK N   1      33.787  14.840   2.753  0.00  0.00     0.000 A 
HETATM   34  C   UNK N   1      33.445  16.193   2.747  0.00  0.00     0.002 A 
HETATM   35  C   UNK N   1      32.728  16.740   3.815  0.00  0.00     0.030 A 
ENDBRANCH  11  30
TORSDOF 4
ENDMDL
MODEL 2
REMARK VINA RESULT:      -7.8      8.681     11.746
REMARK  4 active torsions:
REMARK  status: ('A' for Active; 'I' for Inactive)
REMARK    1  A    between atoms: C_2  and  C_3 
REMARK    2  A    between atoms: C_2  and  N_21 
REMARK    3  A    between atoms: N_13  and  C_14 
REMARK    4  A    between atoms: N_21  and  C_22 
ROOT
HETATM    1  C   UNK N   1      23.062  14.246   7.400  0.00  0.00     0.043 A 
HETATM    2  C   UNK N   1      24.047  13.752   8.265  0.00  0.00     0.040 A 
HETATM    3  C   UNK N   1      23.728  13.128   9.454  0.00  0.00    -0.017 A 
HETATM    4  C   UNK N   1      24.759  12.649  10.264  0.00  0.00     0.012 A 
HETATM    5  C   UNK N   1      24.468  12.015  11.467  0.00  0.00     0.003 A 
HETATM    6  C   UNK N   1      23.143  11.853  11.866  0.00  0.00     0.025 A 
HETATM    7  C   UNK N   1      22.095  12.328  11.072  0.00  0.00     0.050 A 
HETATM    8  C   UNK N   1      22.384  12.985   9.837  0.00  0.00     0.064 A 
HETATM    9  C   UNK N   1      21.385  13.495   8.972  0.00  0.00     0.265 A 
HETATM   10  O   UNK N   1      20.210  13.365   9.274  0.00  0.00    -0.267 OA
HETATM   11  N   UNK N   1      21.722  14.117   7.765  0.00  0.00    -0.280 N 
HETATM   12 Cl   UNK N   1      20.463  12.058  11.684  0.00  0.00    -0.083 Cl
ENDROOT
BRANCH   1  13
HETATM   13  C   UNK N   1      23.585  15.039   6.183  0.00  0.00     0.130 C 
HETATM   14  C   UNK N   1      23.439  14.266   4.867  0.00  0.00     0.039 C 
BRANCH  13  15
HETATM   15  N   UNK N   1      23.105  16.395   6.053  0.00  0.00    -0.365 N 
HETATM   16  H   UNK N   1      22.286  16.645   6.539  0.00  0.00     0.162 HD
BRANCH  15  17
HETATM   17  C   UNK N   1      23.745  17.393   5.265  0.00  0.00     0.133 A 
HETATM   18  C   UNK N   1      23.001  18.287   4.513  0.00  0.00     0.122 A 
HETATM   19  C   UNK N   1      23.613  19.231   3.775  0.00  0.00     0.138 A 
HETATM   20  N   UNK N   1      21.674  18.413   4.394  0.00  0.00    -0.346 N 
HETATM   21  N   UNK N   1      22.705  19.994   3.156  0.00  0.00    -0.337 N 
HETATM   22  N   UNK N   1      24.959  19.352   3.716  0.00  0.00    -0.337 N 
HETATM   23  C   UNK N   1      21.513  19.472   3.553  0.00  0.00     0.182 A 
HETATM   24  H   UNK N   1      22.862  20.757   2.554  0.00  0.00     0.168 HD
HETATM   25  C   UNK N   1      25.713  18.477   4.451  0.00  0.00     0.183 A 
ATOM     26  HN  UNK N   1      25.397  20.071   3.142  1.00  0.00     0.168 HD
HETATM   27  N   UNK N   1      25.109  17.515   5.224  0.00  0.00    -0.337 N 
ATOM     28  HN  UNK N   1      25.685  16.881   5.776  1.00  0.00     0.168 HD
ATOM     29  HN  UNK N   1      20.949  17.846   4.833  1.00  0.00     0.167 HD
ENDBRANCH  15  17
ENDBRANCH  13  15
ENDBRANCH   1  13
BRANCH  11  30
HETATM   30  C   UNK N   1      20.614  14.554   6.932  0.00  0.00     0.042 A 
HETATM   31  C   UNK N   1      20.215  13.785   5.821  0.00  0.00     0.030 A 
HETATM   32  C   UNK N   1      19.283  14.280   4.906  0.00  0.00     0.002 A 
HETATM   33  C   UNK N   1      18.768  15.568   5.061  0.00  0.00     0.000 A 
HETATM   34  C   UNK N   1      19.190  16.361   6.130  0.00  0.00     0.002 A 
HETATM   35  C   UNK N   1      20.116  15.861   7.050  0.00  0.00     0.030 A 
ENDBRANCH  11  30
TORSDOF 4
ENDMDL
MODEL 3
REMARK VINA RESULT:      -7.8      5.718      8.233
REMARK  4 active torsions:
REMARK  status: ('A' for Active; 'I' for Inactive)
REMARK    1  A    between atoms: C_2  and  C_3 
REMARK    2  A    between atoms: C_2  and  N_21 
REMARK    3  A    between atoms: N_13  and  C_14 
REMARK    4  A    between atoms: N_21  and  C_22 
ROOT
HETATM    1  C   UNK N   1      24.695  18.705   3.860  0.00  0.00     0.043 A 
HETATM    2  C   UNK N   1      23.667  19.599   3.533  0.00  0.00     0.040 A 
HETATM    3  C   UNK N   1      22.360  19.184   3.380  0.00  0.00    -0.017 A 
HETATM    4  C   UNK N   1      21.383  20.130   3.065  0.00  0.00     0.012 A 
HETATM    5  C   UNK N   1      20.057  19.742   2.905  0.00  0.00     0.003 A 
HETATM    6  C   UNK N   1      19.700  18.405   3.062  0.00  0.00     0.025 A 
HETATM    7  C   UNK N   1      20.662  17.440   3.373  0.00  0.00     0.050 A 
HETATM    8  C   UNK N   1      22.028  17.829   3.535  0.00  0.00     0.064 A 
HETATM    9  C   UNK N   1      23.065  16.918   3.852  0.00  0.00     0.265 A 
HETATM   10  O   UNK N   1      22.797  15.738   4.011  0.00  0.00    -0.267 OA
HETATM   11  N   UNK N   1      24.385  17.354   4.015  0.00  0.00    -0.280 N 
HETATM   12 Cl   UNK N   1      20.084  15.784   3.550  0.00  0.00    -0.083 Cl
ENDROOT
BRANCH   1  13
HETATM   13  C   UNK N   1      26.119  19.301   3.858  0.00  0.00     0.130 C 
HETATM   14  C   UNK N   1      26.206  20.618   3.078  0.00  0.00     0.039 C 
BRANCH  13  15
HETATM   15  N   UNK N   1      26.768  19.406   5.143  0.00  0.00    -0.365 N 
HETATM   16  H   UNK N   1      26.367  20.002   5.817  0.00  0.00     0.162 HD
BRANCH  15  17
HETATM   17  C   UNK N   1      27.952  18.699   5.496  0.00  0.00     0.133 A 
HETATM   18  C   UNK N   1      28.249  18.433   6.823  0.00  0.00     0.122 A 
HETATM   19  C   UNK N   1      29.367  17.759   7.149  0.00  0.00     0.138 A 
HETATM   20  N   UNK N   1      27.560  18.724   7.933  0.00  0.00    -0.346 N 
HETATM   21  N   UNK N   1      29.438  17.595   8.475  0.00  0.00    -0.337 N 
HETATM   22  N   UNK N   1      30.251  17.323   6.223  0.00  0.00    -0.337 N 
HETATM   23  C   UNK N   1      28.310  18.198   8.940  0.00  0.00     0.182 A 
HETATM   24  H   UNK N   1      30.142  17.142   8.993  0.00  0.00     0.168 HD
HETATM   25  C   UNK N   1      29.977  17.575   4.905  0.00  0.00     0.183 A 
ATOM     26  HN  UNK N   1      31.095  16.821   6.497  1.00  0.00     0.168 HD
HETATM   27  N   UNK N   1      28.833  18.249   4.549  0.00  0.00    -0.337 N 
ATOM     28  HN  UNK N   1      28.637  18.417   3.563  1.00  0.00     0.168 HD
ATOM     29  HN  UNK N   1      26.676  19.225   8.007  1.00  0.00     0.167 HD
ENDBRANCH  15  17
ENDBRANCH  13  15
ENDBRANCH   1  13
BRANCH  11  30
HETATM   30  C   UNK N   1      25.358  16.342   4.391  0.00  0.00     0.042 A 
HETATM   31  C   UNK N   1      25.593  16.054   5.750  0.00  0.00     0.030 A 
HETATM   32  C   UNK N   1      26.650  15.225   6.133  0.00  0.00     0.002 A 
HETATM   33  C   UNK N   1      27.517  14.708   5.170  0.00  0.00     0.000 A 
HETATM   34  C   UNK N   1      27.326  15.023   3.823  0.00  0.00     0.002 A 
HETATM   35  C   UNK N   1      26.262  15.844   3.439  0.00  0.00     0.030 A 
ENDBRANCH  11  30
TORSDOF 4
ENDMDL
MODEL 4
REMARK VINA RESULT:      -7.6      7.151     10.930
REMARK  4 active torsions:
REMARK  status: ('A' for Active; 'I' for Inactive)
REMARK    1  A    between atoms: C_2  and  C_3 
REMARK    2  A    between atoms: C_2  and  N_21 
REMARK    3  A    between atoms: N_13  and  C_14 
REMARK    4  A    between atoms: N_21  and  C_22 
ROOT
HETATM    1  C   UNK N   1      23.182  15.276   6.670  0.00  0.00     0.043 A 
HETATM    2  C   UNK N   1      21.953  15.153   7.330  0.00  0.00     0.040 A 
HETATM    3  C   UNK N   1      21.797  14.345   8.438  0.00  0.00    -0.017 A 
HETATM    4  C   UNK N   1      20.547  14.276   9.054  0.00  0.00     0.012 A 
HETATM    5  C   UNK N   1      20.360  13.472  10.173  0.00  0.00     0.003 A 
HETATM    6  C   UNK N   1      21.425  12.733  10.684  0.00  0.00     0.025 A 
HETATM    7  C   UNK N   1      22.685  12.783  10.081  0.00  0.00     0.050 A 
HETATM    8  C   UNK N   1      22.885  13.604   8.928  0.00  0.00     0.064 A 
HETATM    9  C   UNK N   1      24.126  13.715   8.256  0.00  0.00     0.265 A 
HETATM   10  O   UNK N   1      25.091  13.095   8.675  0.00  0.00    -0.267 OA
HETATM   11  N   UNK N   1      24.273  14.545   7.139  0.00  0.00    -0.280 N 
HETATM   12 Cl   UNK N   1      23.951  11.807  10.824  0.00  0.00    -0.083 Cl
ENDROOT
BRANCH   1  13
HETATM   13  C   UNK N   1      23.156  16.106   5.367  0.00  0.00     0.130 C 
HETATM   14  C   UNK N   1      22.400  15.403   4.234  0.00  0.00     0.039 C 
BRANCH  13  15
HETATM   15  N   UNK N   1      22.745  17.484   5.499  0.00  0.00    -0.365 N 
HETATM   16  H   UNK N   1      22.165  17.724   6.258  0.00  0.00     0.162 HD
BRANCH  15  17
HETATM   17  C   UNK N   1      23.126  18.517   4.596  0.00  0.00     0.133 A 
HETATM   18  C   UNK N   1      22.177  19.175   3.832  0.00  0.00     0.122 A 
HETATM   19  C   UNK N   1      22.544  20.155   2.985  0.00  0.00     0.138 A 
HETATM   20  N   UNK N   1      20.848  19.024   3.794  0.00  0.00    -0.346 N 
HETATM   21  N   UNK N   1      21.468  20.664   2.374  0.00  0.00    -0.337 N 
HETATM   22  N   UNK N   1      23.832  20.537   2.826  0.00  0.00    -0.337 N 
HETATM   23  C   UNK N   1      20.431  19.952   2.889  0.00  0.00     0.182 A 
HETATM   24  H   UNK N   1      21.436  21.388   1.707  0.00  0.00     0.168 HD
HETATM   25  C   UNK N   1      24.786  19.898   3.572  0.00  0.00     0.183 A 
ATOM     26  HN  UNK N   1      24.084  21.276   2.172  1.00  0.00     0.168 HD
HETATM   27  N   UNK N   1      24.432  18.905   4.454  0.00  0.00    -0.337 N 
ATOM     28  HN  UNK N   1      25.153  18.449   5.011  1.00  0.00     0.168 HD
ATOM     29  HN  UNK N   1      20.278  18.364   4.322  1.00  0.00     0.167 HD
ENDBRANCH  15  17
ENDBRANCH  13  15
ENDBRANCH   1  13
BRANCH  11  30
HETATM   30  C   UNK N   1      25.605  14.623   6.562  0.00  0.00     0.042 A 
HETATM   31  C   UNK N   1      26.440  15.719   6.850  0.00  0.00     0.030 A 
HETATM   32  C   UNK N   1      27.642  15.904   6.161  0.00  0.00     0.002 A 
HETATM   33  C   UNK N   1      28.005  15.023   5.142  0.00  0.00     0.000 A 
HETATM   34  C   UNK N   1      27.164  13.959   4.811  0.00  0.00     0.002 A 
HETATM   35  C   UNK N   1      25.967  13.769   5.507  0.00  0.00     0.030 A 
ENDBRANCH  11  30
TORSDOF 4
ENDMDL
MODEL 5
REMARK VINA RESULT:      -7.6      1.475      2.081
REMARK  4 active torsions:
REMARK  status: ('A' for Active; 'I' for Inactive)
REMARK    1  A    between atoms: C_2  and  C_3 
REMARK    2  A    between atoms: C_2  and  N_21 
REMARK    3  A    between atoms: N_13  and  C_14 
REMARK    4  A    between atoms: N_21  and  C_22 
ROOT
HETATM    1  C   UNK N   1      32.170  15.893   6.990  0.00  0.00     0.043 A 
HETATM    2  C   UNK N   1      31.611  16.535   8.102  0.00  0.00     0.040 A 
HETATM    3  C   UNK N   1      30.445  17.266   8.013  0.00  0.00    -0.017 A 
HETATM    4  C   UNK N   1      29.936  17.871   9.164  0.00  0.00     0.012 A 
HETATM    5  C   UNK N   1      28.762  18.614   9.105  0.00  0.00     0.003 A 
HETATM    6  C   UNK N   1      28.087  18.754   7.894  0.00  0.00     0.025 A 
HETATM    7  C   UNK N   1      28.580  18.160   6.728  0.00  0.00     0.050 A 
HETATM    8  C   UNK N   1      29.789  17.399   6.778  0.00  0.00     0.064 A 
HETATM    9  C   UNK N   1      30.357  16.764   5.648  0.00  0.00     0.265 A 
HETATM   10  O   UNK N   1      29.794  16.849   4.568  0.00  0.00    -0.267 OA
HETATM   11  N   UNK N   1      31.535  16.017   5.754  0.00  0.00    -0.280 N 
HETATM   12 Cl   UNK N   1      27.634  18.407   5.261  0.00  0.00    -0.083 Cl
ENDROOT
BRANCH   1  13
HETATM   13  C   UNK N   1      33.548  15.235   7.225  0.00  0.00     0.130 C 
HETATM   14  C   UNK N   1      34.714  16.178   6.908  0.00  0.00     0.039 C 
BRANCH  13  15
HETATM   15  N   UNK N   1      33.731  14.581   8.499  0.00  0.00    -0.365 N 
HETATM   16  H   UNK N   1      33.153  13.812   8.713  0.00  0.00     0.162 HD
BRANCH  15  17
HETATM   17  C   UNK N   1      34.696  14.981   9.467  0.00  0.00     0.133 A 
HETATM   18  C   UNK N   1      35.968  14.433   9.467  0.00  0.00     0.122 A 
HETATM   19  C   UNK N   1      36.877  14.820  10.380  0.00  0.00     0.138 A 
HETATM   20  N   UNK N   1      36.515  13.532   8.641  0.00  0.00    -0.346 N 
HETATM   21  N   UNK N   1      38.036  14.183  10.177  0.00  0.00    -0.337 N 
HETATM   22  N   UNK N   1      36.605  15.736  11.337  0.00  0.00    -0.337 N 
HETATM   23  C   UNK N   1      37.791  13.393   9.097  0.00  0.00     0.182 A 
HETATM   24  H   UNK N   1      38.873  14.268  10.689  0.00  0.00     0.168 HD
HETATM   25  C   UNK N   1      35.352  16.290  11.355  0.00  0.00     0.183 A 
ATOM     26  HN  UNK N   1      37.309  16.006  12.022  1.00  0.00     0.168 HD
HETATM   27  N   UNK N   1      34.413  15.921  10.422  0.00  0.00    -0.337 N 
ATOM     28  HN  UNK N   1      33.490  16.353  10.442  1.00  0.00     0.168 HD
ATOM     29  HN  UNK N   1      36.077  13.058   7.852  1.00  0.00     0.167 HD
ENDBRANCH  15  17
ENDBRANCH  13  15
ENDBRANCH   1  13
BRANCH  11  30
HETATM   30  C   UNK N   1      31.999  15.365   4.540  0.00  0.00     0.042 A 
HETATM   31  C   UNK N   1      31.710  14.006   4.310  0.00  0.00     0.030 A 
HETATM   32  C   UNK N   1      32.302  13.318   3.248  0.00  0.00     0.002 A 
HETATM   33  C   UNK N   1      33.228  13.964   2.428  0.00  0.00     0.000 A 
HETATM   34  C   UNK N   1      33.563  15.297   2.673  0.00  0.00     0.002 A 
HETATM   35  C   UNK N   1      32.962  15.988   3.730  0.00  0.00     0.030 A 
ENDBRANCH  11  30
TORSDOF 4
ENDMDL
MODEL 6
REMARK VINA RESULT:      -7.5      9.229     12.377
REMARK  4 active torsions:
REMARK  status: ('A' for Active; 'I' for Inactive)
REMARK    1  A    between atoms: C_2  and  C_3 
REMARK    2  A    between atoms: C_2  and  N_21 
REMARK    3  A    between atoms: N_13  and  C_14 
REMARK    4  A    between atoms: N_21  and  C_22 
ROOT
HETATM    1  C   UNK N   1      21.290  14.849   6.020  0.00  0.00     0.043 A 
HETATM    2  C   UNK N   1      20.618  14.340   7.139  0.00  0.00     0.040 A 
HETATM    3  C   UNK N   1      21.295  13.862   8.242  0.00  0.00    -0.017 A 
HETATM    4  C   UNK N   1      20.563  13.379   9.328  0.00  0.00     0.012 A 
HETATM    5  C   UNK N   1      21.218  12.891  10.454  0.00  0.00     0.003 A 
HETATM    6  C   UNK N   1      22.610  12.886  10.501  0.00  0.00     0.025 A 
HETATM    7  C   UNK N   1      23.364  13.361   9.424  0.00  0.00     0.050 A 
HETATM    8  C   UNK N   1      22.699  13.860   8.261  0.00  0.00     0.064 A 
HETATM    9  C   UNK N   1      23.384  14.360   7.127  0.00  0.00     0.265 A 
HETATM   10  O   UNK N   1      24.604  14.387   7.129  0.00  0.00    -0.267 OA
HETATM   11  N   UNK N   1      22.685  14.852   6.019  0.00  0.00    -0.280 N 
HETATM   12 Cl   UNK N   1      25.116  13.306   9.608  0.00  0.00    -0.083 Cl
ENDROOT
BRANCH   1  13
HETATM   13  C   UNK N   1      20.394  15.213   4.816  0.00  0.00     0.130 C 
HETATM   14  C   UNK N   1      18.999  14.585   4.907  0.00  0.00     0.039 C 
BRANCH  13  15
HETATM   15  N   UNK N   1      20.319  16.615   4.480  0.00  0.00    -0.365 N 
HETATM   16  H   UNK N   1      20.329  17.269   5.216  0.00  0.00     0.162 HD
BRANCH  15  17
HETATM   17  C   UNK N   1      20.232  17.110   3.148  0.00  0.00     0.133 A 
HETATM   18  C   UNK N   1      20.415  18.456   2.878  0.00  0.00     0.122 A 
HETATM   19  C   UNK N   1      20.337  18.915   1.616  0.00  0.00     0.138 A 
HETATM   20  N   UNK N   1      20.706  19.466   3.707  0.00  0.00    -0.346 N 
HETATM   21  N   UNK N   1      20.572  20.232   1.588  0.00  0.00    -0.337 N 
HETATM   22  N   UNK N   1      20.069  18.110   0.563  0.00  0.00    -0.337 N 
HETATM   23  C   UNK N   1      20.799  20.552   2.890  0.00  0.00     0.182 A 
HETATM   24  H   UNK N   1      20.580  20.830   0.806  0.00  0.00     0.168 HD
HETATM   25  C   UNK N   1      19.884  16.775   0.807  0.00  0.00     0.183 A 
ATOM     26  HN  UNK N   1      20.007  18.485  -0.383  1.00  0.00     0.168 HD
HETATM   27  N   UNK N   1      19.974  16.282   2.087  0.00  0.00    -0.337 N 
ATOM     28  HN  UNK N   1      19.846  15.284   2.250  1.00  0.00     0.168 HD
ATOM     29  HN  UNK N   1      20.830  19.431   4.718  1.00  0.00     0.167 HD
ENDBRANCH  15  17
ENDBRANCH  13  15
ENDBRANCH   1  13
BRANCH  11  30
HETATM   30  C   UNK N   1      23.489  15.390   4.934  0.00  0.00     0.042 A 
HETATM   31  C   UNK N   1      24.022  14.531   3.953  0.00  0.00     0.030 A 
HETATM   32  C   UNK N   1      24.946  15.001   3.016  0.00  0.00     0.002 A 
HETATM   33  C   UNK N   1      25.386  16.324   3.073  0.00  0.00     0.000 A 
HETATM   34  C   UNK N   1      24.904  17.175   4.070  0.00  0.00     0.002 A 
HETATM   35  C   UNK N   1      23.972  16.706   5.001  0.00  0.00     0.030 A 
ENDBRANCH  11  30
TORSDOF 4
ENDMDL
MODEL 7
REMARK VINA RESULT:      -7.5      5.931      8.821
REMARK  4 active torsions:
REMARK  status: ('A' for Active; 'I' for Inactive)
REMARK    1  A    between atoms: C_2  and  C_3 
REMARK    2  A    between atoms: C_2  and  N_21 
REMARK    3  A    between atoms: N_13  and  C_14 
REMARK    4  A    between atoms: N_21  and  C_22 
ROOT
HETATM    1  C   UNK N   1      24.557  14.126   7.339  0.00  0.00     0.043 A 
HETATM    2  C   UNK N   1      25.008  13.418   8.460  0.00  0.00     0.040 A 
HETATM    3  C   UNK N   1      24.150  13.016   9.463  0.00  0.00    -0.017 A 
HETATM    4  C   UNK N   1      24.664  12.304  10.547  0.00  0.00     0.012 A 
HETATM    5  C   UNK N   1      23.823  11.884  11.573  0.00  0.00     0.003 A 
HETATM    6  C   UNK N   1      22.461  12.171  11.517  0.00  0.00     0.025 A 
HETATM    7  C   UNK N   1      21.925  12.887  10.442  0.00  0.00     0.050 A 
HETATM    8  C   UNK N   1      22.782  13.326   9.387  0.00  0.00     0.064 A 
HETATM    9  C   UNK N   1      22.324  14.053   8.261  0.00  0.00     0.265 A 
HETATM   10  O   UNK N   1      21.136  14.317   8.163  0.00  0.00    -0.267 OA
HETATM   11  N   UNK N   1      23.203  14.447   7.247  0.00  0.00    -0.280 N 
HETATM   12 Cl   UNK N   1      20.187  13.183  10.485  0.00  0.00    -0.083 Cl
ENDROOT
BRANCH   1  13
HETATM   13  C   UNK N   1      25.661  14.624   6.380  0.00  0.00     0.130 C 
HETATM   14  C   UNK N   1      25.458  14.136   4.941  0.00  0.00     0.039 C 
BRANCH  13  15
HETATM   15  N   UNK N   1      25.949  16.038   6.421  0.00  0.00    -0.365 N 
HETATM   16  H   UNK N   1      25.193  16.663   6.512  0.00  0.00     0.162 HD
BRANCH  15  17
HETATM   17  C   UNK N   1      27.261  16.585   6.337  0.00  0.00     0.133 A 
HETATM   18  C   UNK N   1      27.891  17.089   7.463  0.00  0.00     0.122 A 
HETATM   19  C   UNK N   1      29.134  17.598   7.377  0.00  0.00     0.138 A 
HETATM   20  N   UNK N   1      27.469  17.145   8.732  0.00  0.00    -0.346 N 
HETATM   21  N   UNK N   1      29.552  18.000   8.583  0.00  0.00    -0.337 N 
HETATM   22  N   UNK N   1      29.819  17.659   6.213  0.00  0.00    -0.337 N 
HETATM   23  C   UNK N   1      28.508  17.710   9.406  0.00  0.00     0.182 A 
HETATM   24  H   UNK N   1      30.416  18.410   8.820  0.00  0.00     0.168 HD
HETATM   25  C   UNK N   1      29.214  17.166   5.088  0.00  0.00     0.183 A 
ATOM     26  HN  UNK N   1      30.756  18.057   6.174  1.00  0.00     0.168 HD
HETATM   27  N   UNK N   1      27.951  16.627   5.154  0.00  0.00    -0.337 N 
ATOM     28  HN  UNK N   1      27.520  16.253   4.310  1.00  0.00     0.168 HD
ATOM     29  HN  UNK N   1      26.573  16.835   9.108  1.00  0.00     0.167 HD
ENDBRANCH  15  17
ENDBRANCH  13  15
ENDBRANCH   1  13
BRANCH  11  30
HETATM   30  C   UNK N   1      22.614  15.142   6.114  0.00  0.00     0.042 A 
HETATM   31  C   UNK N   1      22.213  14.423   4.972  0.00  0.00     0.030 A 
HETATM   32  C   UNK N   1      21.822  15.090   3.808  0.00  0.00     0.002 A 
HETATM   33  C   UNK N   1      21.869  16.483   3.752  0.00  0.00     0.000 A 
HETATM   34  C   UNK N   1      22.311  17.208   4.860  0.00  0.00     0.002 A 
HETATM   35  C   UNK N   1      22.692  16.541   6.027  0.00  0.00     0.030 A 
ENDBRANCH  11  30
TORSDOF 4
ENDMDL
MODEL 8
REMARK VINA RESULT:      -7.4      5.869      8.881
REMARK  4 active torsions:
REMARK  status: ('A' for Active; 'I' for Inactive)
REMARK    1  A    between atoms: C_2  and  C_3 
REMARK    2  A    between atoms: C_2  and  N_21 
REMARK    3  A    between atoms: N_13  and  C_14 
REMARK    4  A    between atoms: N_21  and  C_22 
ROOT
HETATM    1  C   UNK N   1      24.048  17.299   4.763  0.00  0.00     0.043 A 
HETATM    2  C   UNK N   1      22.834  16.657   4.487  0.00  0.00     0.040 A 
HETATM    3  C   UNK N   1      21.801  17.297   3.835  0.00  0.00    -0.017 A 
HETATM    4  C   UNK N   1      20.622  16.594   3.582  0.00  0.00     0.012 A 
HETATM    5  C   UNK N   1      19.563  17.213   2.925  0.00  0.00     0.003 A 
HETATM    6  C   UNK N   1      19.680  18.540   2.514  0.00  0.00     0.025 A 
HETATM    7  C   UNK N   1      20.850  19.264   2.760  0.00  0.00     0.050 A 
HETATM    8  C   UNK N   1      21.941  18.638   3.439  0.00  0.00     0.064 A 
HETATM    9  C   UNK N   1      23.161  19.296   3.727  0.00  0.00     0.265 A 
HETATM   10  O   UNK N   1      23.313  20.455   3.375  0.00  0.00    -0.267 OA
HETATM   11  N   UNK N   1      24.204  18.631   4.381  0.00  0.00    -0.280 N 
HETATM   12 Cl   UNK N   1      20.876  20.931   2.187  0.00  0.00    -0.083 Cl
ENDROOT
BRANCH   1  13
HETATM   13  C   UNK N   1      25.046  16.492   5.622  0.00  0.00     0.130 C 
HETATM   14  C   UNK N   1      24.377  15.338   6.377  0.00  0.00     0.039 C 
BRANCH  13  15
HETATM   15  N   UNK N   1      26.252  16.057   4.956  0.00  0.00    -0.365 N 
HETATM   16  H   UNK N   1      26.166  15.414   4.216  0.00  0.00     0.162 HD
BRANCH  15  17
HETATM   17  C   UNK N   1      27.558  16.503   5.306  0.00  0.00     0.133 A 
HETATM   18  C   UNK N   1      28.575  16.525   4.366  0.00  0.00     0.122 A 
HETATM   19  C   UNK N   1      29.805  16.953   4.702  0.00  0.00     0.138 A 
HETATM   20  N   UNK N   1      28.552  16.195   3.069  0.00  0.00    -0.346 N 
HETATM   21  N   UNK N   1      30.615  16.912   3.638  0.00  0.00    -0.337 N 
HETATM   22  N   UNK N   1      30.117  17.367   5.951  0.00  0.00    -0.337 N 
HETATM   23  C   UNK N   1      29.821  16.442   2.639  0.00  0.00     0.182 A 
HETATM   24  H   UNK N   1      31.566  17.165   3.590  0.00  0.00     0.168 HD
HETATM   25  C   UNK N   1      29.126  17.353   6.897  0.00  0.00     0.183 A 
ATOM     26  HN  UNK N   1      31.059  17.679   6.182  1.00  0.00     0.168 HD
HETATM   27  N   UNK N   1      27.858  16.934   6.571  0.00  0.00    -0.337 N 
ATOM     28  HN  UNK N   1      27.129  16.943   7.284  1.00  0.00     0.168 HD
ATOM     29  HN  UNK N   1      27.766  15.839   2.526  1.00  0.00     0.167 HD
ENDBRANCH  15  17
ENDBRANCH  13  15
ENDBRANCH   1  13
BRANCH  11  30
HETATM   30  C   UNK N   1      25.429  19.388   4.578  0.00  0.00     0.042 A 
HETATM   31  C   UNK N   1      26.438  19.373   3.595  0.00  0.00     0.030 A 
HETATM   32  C   UNK N   1      27.691  19.937   3.847  0.00  0.00     0.002 A 
HETATM   33  C   UNK N   1      27.972  20.484   5.100  0.00  0.00     0.000 A 
HETATM   34  C   UNK N   1      26.998  20.463   6.100  0.00  0.00     0.002 A 
HETATM   35  C   UNK N   1      25.742  19.908   5.844  0.00  0.00     0.030 A 
ENDBRANCH  11  30
TORSDOF 4
ENDMDL
MODEL 9
REMARK VINA RESULT:      -7.4      5.852      9.465
REMARK  4 active torsions:
REMARK  status: ('A' for Active; 'I' for Inactive)
REMARK    1  A    between atoms: C_2  and  C_3 
REMARK    2  A    between atoms: C_2  and  N_21 
REMARK    3  A    between atoms: N_13  and  C_14 
REMARK    4  A    between atoms: N_21  and  C_22 
ROOT
HETATM    1  C   UNK N   1      35.795  12.631  14.115  0.00  0.00     0.043 A 
HETATM    2  C   UNK N   1      35.844  13.381  15.296  0.00  0.00     0.040 A 
HETATM    3  C   UNK N   1      35.558  12.826  16.527  0.00  0.00    -0.017 A 
HETATM    4  C   UNK N   1      35.638  13.629  17.666  0.00  0.00     0.012 A 
HETATM    5  C   UNK N   1      35.356  13.096  18.920  0.00  0.00     0.003 A 
HETATM    6  C   UNK N   1      34.997  11.756  19.041  0.00  0.00     0.025 A 
HETATM    7  C   UNK N   1      34.907  10.935  17.914  0.00  0.00     0.050 A 
HETATM    8  C   UNK N   1      35.190  11.474  16.621  0.00  0.00     0.064 A 
HETATM    9  C   UNK N   1      35.125  10.714  15.428  0.00  0.00     0.265 A 
HETATM   10  O   UNK N   1      34.826   9.532  15.488  0.00  0.00    -0.267 OA
HETATM   11  N   UNK N   1      35.427  11.287  14.188  0.00  0.00    -0.280 N 
HETATM   12 Cl   UNK N   1      34.447   9.257  18.200  0.00  0.00    -0.083 Cl
ENDROOT
BRANCH   1  13
HETATM   13  C   UNK N   1      36.003  13.431  12.810  0.00  0.00     0.130 C 
HETATM   14  C   UNK N   1      37.102  12.835  11.922  0.00  0.00     0.039 C 
BRANCH  13  15
HETATM   15  N   UNK N   1      34.813  13.727  12.049  0.00  0.00    -0.365 N 
HETATM   16  H   UNK N   1      34.055  13.103  12.112  0.00  0.00     0.162 HD
BRANCH  15  17
HETATM   17  C   UNK N   1      34.671  14.869  11.210  0.00  0.00     0.133 A 
HETATM   18  C   UNK N   1      33.789  14.858  10.142  0.00  0.00     0.122 A 
HETATM   19  C   UNK N   1      33.655  15.943   9.358  0.00  0.00     0.138 A 
HETATM   20  N   UNK N   1      32.955  13.896   9.726  0.00  0.00    -0.346 N 
HETATM   21  N   UNK N   1      32.736  15.717   8.411  0.00  0.00    -0.337 N 
HETATM   22  N   UNK N   1      34.366  17.076   9.553  0.00  0.00    -0.337 N 
HETATM   23  C   UNK N   1      32.315  14.447   8.658  0.00  0.00     0.182 A 
HETATM   24  H   UNK N   1      32.433  16.330   7.702  0.00  0.00     0.168 HD
HETATM   25  C   UNK N   1      35.244  17.108  10.603  0.00  0.00     0.183 A 
ATOM     26  HN  UNK N   1      34.251  17.881   8.938  1.00  0.00     0.168 HD
HETATM   27  N   UNK N   1      35.386  16.017  11.426  0.00  0.00    -0.337 N 
ATOM     28  HN  UNK N   1      36.035  16.063  12.211  1.00  0.00     0.168 HD
ATOM     29  HN  UNK N   1      32.829  12.964  10.119  1.00  0.00     0.167 HD
ENDBRANCH  15  17
ENDBRANCH  13  15
ENDBRANCH   1  13
BRANCH  11  30
HETATM   30  C   UNK N   1      35.379  10.401  13.037  0.00  0.00     0.042 A 
HETATM   31  C   UNK N   1      34.165  10.186  12.357  0.00  0.00     0.030 A 
HETATM   32  C   UNK N   1      34.060   9.200  11.373  0.00  0.00     0.002 A 
HETATM   33  C   UNK N   1      35.154   8.382  11.085  0.00  0.00     0.000 A 
HETATM   34  C   UNK N   1      36.350   8.550  11.785  0.00  0.00     0.002 A 
HETATM   35  C   UNK N   1      36.457   9.543  12.763  0.00  0.00     0.030 A 
ENDBRANCH  11  30
TORSDOF 4
ENDMDL
