MODEL 1
REMARK VINA RESULT:      -7.2      0.000      0.000
REMARK  3 active torsions:
REMARK  status: ('A' for Active; 'I' for Inactive)
REMARK    1  A    between atoms: C_3  and  C_9 
REMARK       I    between atoms: C_9  and  N_11 
REMARK    2  A    between atoms: N_11  and  S_12 
REMARK    3  A    between atoms: S_12  and  C_15 
ROOT
HETATM    1  C   UNK N   1      36.893  14.306  14.957  0.00  0.00     0.266 C 
HETATM    2  O   UNK N   1      37.474  15.165  15.605  0.00  0.00    -0.267 OA
HETATM    3  N   UNK N   1      36.744  14.521  13.622  0.00  0.00    -0.245 N 
HETATM    4  H   UNK N   1      37.376  15.165  13.229  0.00  0.00     0.182 HD
ENDROOT
BRANCH   3   5
HETATM    5  S   UNK N   1      35.587  13.817  12.487  0.00  0.00     0.272 S 
HETATM    6  O   UNK N   1      36.259  12.633  11.786  0.00  0.00    -0.200 OA
HETATM    7  O   UNK N   1      34.468  13.184  13.329  0.00  0.00    -0.200 OA
BRANCH   5   8
HETATM    8  C   UNK N   1      35.026  15.059  11.332  0.00  0.00     0.121 A 
HETATM    9  C   UNK N   1      35.684  16.259  11.052  0.00  0.00     0.035 A 
HETATM   10  C   UNK N   1      35.106  16.966   9.956  0.00  0.00     0.028 A 
HETATM   11  C   UNK N   1      34.020  16.293   9.386  0.00  0.00     0.052 A 
HETATM   12  S   UNK N   1      33.808  14.884  10.228  0.00  0.00    -0.069 SA
HETATM   13 Br   UNK N   1      33.010  16.859   7.873  0.00  0.00    -0.043 Br
ENDBRANCH   5   8
ENDBRANCH   3   5
BRANCH   1  14
HETATM   14  C   UNK N   1      36.354  13.141  15.701  0.00  0.00     0.054 A 
HETATM   15  C   UNK N   1      35.499  13.393  16.786  0.00  0.00     0.020 A 
HETATM   16  C   UNK N   1      35.054  12.356  17.607  0.00  0.00     0.025 A 
HETATM   17  C   UNK N   1      35.481  11.051  17.373  0.00  0.00     0.035 A 
HETATM   18  C   UNK N   1      36.364  10.785  16.326  0.00  0.00     0.048 A 
HETATM   19 Cl   UNK N   1      34.969   9.758  18.435  0.00  0.00    -0.084 Cl
HETATM   20  C   UNK N   1      36.808  11.815  15.488  0.00  0.00     0.051 A 
HETATM   21 Cl   UNK N   1      38.081  11.426  14.345  0.00  0.00    -0.083 Cl
ENDBRANCH   1  14
TORSDOF 3
ENDMDL
MODEL 2
REMARK VINA RESULT:      -6.9      5.635      9.209
REMARK  3 active torsions:
REMARK  status: ('A' for Active; 'I' for Inactive)
REMARK    1  A    between atoms: C_3  and  C_9 
REMARK       I    between atoms: C_9  and  N_11 
REMARK    2  A    between atoms: N_11  and  S_12 
REMARK    3  A    between atoms: S_12  and  C_15 
ROOT
HETATM    1  C   UNK N   1      34.154  17.916   8.391  0.00  0.00     0.266 C 
HETATM    2  O   UNK N   1      34.732  18.992   8.329  0.00  0.00    -0.267 OA
HETATM    3  N   UNK N   1      34.393  17.137   9.480  0.00  0.00    -0.245 N 
HETATM    4  H   UNK N   1      34.741  17.616  10.267  0.00  0.00     0.182 HD
ENDROOT
BRANCH   3   5
HETATM    5  S   UNK N   1      34.173  15.398   9.695  0.00  0.00     0.272 S 
HETATM    6  O   UNK N   1      32.675  15.115   9.834  0.00  0.00    -0.200 OA
HETATM    7  O   UNK N   1      34.571  14.733   8.368  0.00  0.00    -0.200 OA
BRANCH   5   8
HETATM    8  C   UNK N   1      35.104  14.831  11.110  0.00  0.00     0.121 A 
HETATM    9  C   UNK N   1      35.777  15.653  12.018  0.00  0.00     0.035 A 
HETATM   10  C   UNK N   1      36.274  14.940  13.149  0.00  0.00     0.028 A 
HETATM   11  C   UNK N   1      35.962  13.577  13.114  0.00  0.00     0.052 A 
HETATM   12  S   UNK N   1      35.104  13.296  11.726  0.00  0.00    -0.069 SA
HETATM   13 Br   UNK N   1      36.384  12.287  14.451  0.00  0.00    -0.043 Br
ENDBRANCH   5   8
ENDBRANCH   3   5
BRANCH   1  14
HETATM   14  C   UNK N   1      33.293  17.540   7.242  0.00  0.00     0.054 A 
HETATM   15  C   UNK N   1      33.899  17.410   5.983  0.00  0.00     0.020 A 
HETATM   16  C   UNK N   1      33.136  17.180   4.837  0.00  0.00     0.025 A 
HETATM   17  C   UNK N   1      31.748  17.105   4.930  0.00  0.00     0.035 A 
HETATM   18  C   UNK N   1      31.123  17.273   6.166  0.00  0.00     0.048 A 
HETATM   19 Cl   UNK N   1      30.785  16.873   3.487  0.00  0.00    -0.084 Cl
HETATM   20  C   UNK N   1      31.879  17.492   7.324  0.00  0.00     0.051 A 
HETATM   21 Cl   UNK N   1      31.003  17.911   8.785  0.00  0.00    -0.083 Cl
ENDBRANCH   1  14
TORSDOF 3
ENDMDL
MODEL 3
REMARK VINA RESULT:      -6.8      6.706      9.083
REMARK  3 active torsions:
REMARK  status: ('A' for Active; 'I' for Inactive)
REMARK    1  A    between atoms: C_3  and  C_9 
REMARK       I    between atoms: C_9  and  N_11 
REMARK    2  A    between atoms: N_11  and  S_12 
REMARK    3  A    between atoms: S_12  and  C_15 
ROOT
HETATM    1  C   UNK N   1      34.297  17.986   8.459  0.00  0.00     0.266 C 
HETATM    2  O   UNK N   1      34.853  19.068   8.337  0.00  0.00    -0.267 OA
HETATM    3  N   UNK N   1      34.552  17.271   9.588  0.00  0.00    -0.245 N 
HETATM    4  H   UNK N   1      34.892  17.798  10.347  0.00  0.00     0.182 HD
ENDROOT
BRANCH   3   5
HETATM    5  S   UNK N   1      34.366  15.542   9.896  0.00  0.00     0.272 S 
HETATM    6  O   UNK N   1      34.510  15.302  11.401  0.00  0.00    -0.200 OA
HETATM    7  O   UNK N   1      32.903  15.190   9.586  0.00  0.00    -0.200 OA
BRANCH   5   8
HETATM    8  C   UNK N   1      35.563  14.617   8.945  0.00  0.00     0.121 A 
HETATM    9  C   UNK N   1      35.488  14.368   7.572  0.00  0.00     0.035 A 
HETATM   10  C   UNK N   1      36.672  13.767   7.051  0.00  0.00     0.028 A 
HETATM   11  C   UNK N   1      37.659  13.577   8.024  0.00  0.00     0.052 A 
HETATM   12  S   UNK N   1      37.060  14.140   9.461  0.00  0.00    -0.069 SA
HETATM   13 Br   UNK N   1      39.404  12.865   7.739  0.00  0.00    -0.043 Br
ENDBRANCH   5   8
ENDBRANCH   3   5
BRANCH   1  14
HETATM   14  C   UNK N   1      33.442  17.531   7.334  0.00  0.00     0.054 A 
HETATM   15  C   UNK N   1      34.061  17.278   6.100  0.00  0.00     0.020 A 
HETATM   16  C   UNK N   1      33.308  16.968   4.967  0.00  0.00     0.025 A 
HETATM   17  C   UNK N   1      31.917  16.934   5.045  0.00  0.00     0.035 A 
HETATM   18  C   UNK N   1      31.280  17.224   6.252  0.00  0.00     0.048 A 
HETATM   19 Cl   UNK N   1      30.968  16.601   3.613  0.00  0.00    -0.084 Cl
HETATM   20  C   UNK N   1      32.026  17.524   7.398  0.00  0.00     0.051 A 
HETATM   21 Cl   UNK N   1      31.142  18.089   8.804  0.00  0.00    -0.083 Cl
ENDBRANCH   1  14
TORSDOF 3
ENDMDL
MODEL 4
REMARK VINA RESULT:      -6.7      5.671      8.672
REMARK  3 active torsions:
REMARK  status: ('A' for Active; 'I' for Inactive)
REMARK    1  A    between atoms: C_3  and  C_9 
REMARK       I    between atoms: C_9  and  N_11 
REMARK    2  A    between atoms: N_11  and  S_12 
REMARK    3  A    between atoms: S_12  and  C_15 
ROOT
HETATM    1  C   UNK N   1      34.274  17.936   8.579  0.00  0.00     0.266 C 
HETATM    2  O   UNK N   1      34.898  18.954   8.315  0.00  0.00    -0.267 OA
HETATM    3  N   UNK N   1      34.863  17.036   9.411  0.00  0.00    -0.245 N 
HETATM    4  H   UNK N   1      35.577  17.401   9.982  0.00  0.00     0.182 HD
ENDROOT
BRANCH   3   5
HETATM    5  S   UNK N   1      34.539  15.313   9.622  0.00  0.00     0.272 S 
HETATM    6  O   UNK N   1      33.028  15.122   9.781  0.00  0.00    -0.200 OA
HETATM    7  O   UNK N   1      34.876  14.630   8.288  0.00  0.00    -0.200 OA
BRANCH   5   8
HETATM    8  C   UNK N   1      35.452  14.683  11.023  0.00  0.00     0.121 A 
HETATM    9  C   UNK N   1      35.688  15.376  12.213  0.00  0.00     0.035 A 
HETATM   10  C   UNK N   1      36.282  14.560  13.222  0.00  0.00     0.028 A 
HETATM   11  C   UNK N   1      36.478  13.239  12.807  0.00  0.00     0.052 A 
HETATM   12  S   UNK N   1      35.931  13.116  11.250  0.00  0.00    -0.069 SA
HETATM   13 Br   UNK N   1      37.184  11.818  13.863  0.00  0.00    -0.043 Br
ENDBRANCH   5   8
ENDBRANCH   3   5
BRANCH   1  14
HETATM   14  C   UNK N   1      32.957  17.756   7.918  0.00  0.00     0.054 A 
HETATM   15  C   UNK N   1      31.802  17.973   8.686  0.00  0.00     0.020 A 
HETATM   16  C   UNK N   1      30.533  17.704   8.171  0.00  0.00     0.025 A 
HETATM   17  C   UNK N   1      30.402  17.185   6.884  0.00  0.00     0.035 A 
HETATM   18  C   UNK N   1      31.539  16.922   6.120  0.00  0.00     0.048 A 
HETATM   19 Cl   UNK N   1      28.816  16.794   6.256  0.00  0.00    -0.084 Cl
HETATM   20  C   UNK N   1      32.816  17.200   6.622  0.00  0.00     0.051 A 
HETATM   21 Cl   UNK N   1      34.186  16.634   5.684  0.00  0.00    -0.083 Cl
ENDBRANCH   1  14
TORSDOF 3
ENDMDL
MODEL 5
REMARK VINA RESULT:      -6.6      2.822      3.299
REMARK  3 active torsions:
REMARK  status: ('A' for Active; 'I' for Inactive)
REMARK    1  A    between atoms: C_3  and  C_9 
REMARK       I    between atoms: C_9  and  N_11 
REMARK    2  A    between atoms: N_11  and  S_12 
REMARK    3  A    between atoms: S_12  and  C_15 
ROOT
HETATM    1  C   UNK N   1      36.983  14.302  15.134  0.00  0.00     0.266 C 
HETATM    2  O   UNK N   1      37.527  15.089  15.896  0.00  0.00    -0.267 OA
HETATM    3  N   UNK N   1      36.939  14.633  13.816  0.00  0.00    -0.245 N 
HETATM    4  H   UNK N   1      37.610  15.294  13.529  0.00  0.00     0.182 HD
ENDROOT
BRANCH   3   5
HETATM    5  S   UNK N   1      35.861  14.054  12.542  0.00  0.00     0.272 S 
HETATM    6  O   UNK N   1      34.593  13.500  13.197  0.00  0.00    -0.200 OA
HETATM    7  O   UNK N   1      35.386  15.291  11.765  0.00  0.00    -0.200 OA
BRANCH   5   8
HETATM    8  C   UNK N   1      36.695  12.832  11.540  0.00  0.00     0.121 A 
HETATM    9  C   UNK N   1      36.214  11.550  11.259  0.00  0.00     0.035 A 
HETATM   10  C   UNK N   1      36.999  10.864  10.286  0.00  0.00     0.028 A 
HETATM   11  C   UNK N   1      38.066  11.631   9.808  0.00  0.00     0.052 A 
HETATM   12  S   UNK N   1      38.015  13.094  10.579  0.00  0.00    -0.069 SA
HETATM   13 Br   UNK N   1      39.314  11.115   8.462  0.00  0.00    -0.043 Br
ENDBRANCH   5   8
ENDBRANCH   3   5
BRANCH   1  14
HETATM   14  C   UNK N   1      36.371  13.090  15.733  0.00  0.00     0.054 A 
HETATM   15  C   UNK N   1      35.452  13.267  16.780  0.00  0.00     0.020 A 
HETATM   16  C   UNK N   1      34.931  12.174  17.473  0.00  0.00     0.025 A 
HETATM   17  C   UNK N   1      35.343  10.883  17.147  0.00  0.00     0.035 A 
HETATM   18  C   UNK N   1      36.287  10.688  16.139  0.00  0.00     0.048 A 
HETATM   19 Cl   UNK N   1      34.734   9.515  18.052  0.00  0.00    -0.084 Cl
HETATM   20  C   UNK N   1      36.808  11.776  15.428  0.00  0.00     0.051 A 
HETATM   21 Cl   UNK N   1      38.144  11.456  14.338  0.00  0.00    -0.083 Cl
ENDBRANCH   1  14
TORSDOF 3
ENDMDL
MODEL 6
REMARK VINA RESULT:      -6.6      8.431      9.893
REMARK  3 active torsions:
REMARK  status: ('A' for Active; 'I' for Inactive)
REMARK    1  A    between atoms: C_3  and  C_9 
REMARK       I    between atoms: C_9  and  N_11 
REMARK    2  A    between atoms: N_11  and  S_12 
REMARK    3  A    between atoms: S_12  and  C_15 
ROOT
HETATM    1  C   UNK N   1      33.646  17.898   7.262  0.00  0.00     0.266 C 
HETATM    2  O   UNK N   1      34.599  18.595   7.581  0.00  0.00    -0.267 OA
HETATM    3  N   UNK N   1      32.550  17.926   8.067  0.00  0.00    -0.245 N 
HETATM    4  H   UNK N   1      32.476  18.721   8.643  0.00  0.00     0.182 HD
ENDROOT
BRANCH   3   5
HETATM    5  S   UNK N   1      31.242  16.751   8.235  0.00  0.00     0.272 S 
HETATM    6  O   UNK N   1      31.838  15.434   8.738  0.00  0.00    -0.200 OA
HETATM    7  O   UNK N   1      30.352  17.239   9.388  0.00  0.00    -0.200 OA
BRANCH   5   8
HETATM    8  C   UNK N   1      30.388  16.557   6.677  0.00  0.00     0.121 A 
HETATM    9  C   UNK N   1      29.784  17.587   5.951  0.00  0.00     0.035 A 
HETATM   10  C   UNK N   1      29.343  17.171   4.660  0.00  0.00     0.028 A 
HETATM   11  C   UNK N   1      29.631  15.829   4.393  0.00  0.00     0.052 A 
HETATM   12  S   UNK N   1      30.399  15.208   5.721  0.00  0.00    -0.069 SA
HETATM   13 Br   UNK N   1      29.269  14.898   2.769  0.00  0.00    -0.043 Br
ENDBRANCH   5   8
ENDBRANCH   3   5
BRANCH   1  14
HETATM   14  C   UNK N   1      33.801  17.044   6.058  0.00  0.00     0.054 A 
HETATM   15  C   UNK N   1      33.196  17.474   4.867  0.00  0.00     0.020 A 
HETATM   16  C   UNK N   1      33.194  16.667   3.728  0.00  0.00     0.025 A 
HETATM   17  C   UNK N   1      33.775  15.401   3.773  0.00  0.00     0.035 A 
HETATM   18  C   UNK N   1      34.344  14.938   4.959  0.00  0.00     0.048 A 
HETATM   19 Cl   UNK N   1      33.724  14.364   2.364  0.00  0.00    -0.084 Cl
HETATM   20  C   UNK N   1      34.363  15.744   6.104  0.00  0.00     0.051 A 
HETATM   21 Cl   UNK N   1      34.898  14.999   7.599  0.00  0.00    -0.083 Cl
ENDBRANCH   1  14
TORSDOF 3
ENDMDL
MODEL 7
REMARK VINA RESULT:      -6.5     23.152     24.805
REMARK  3 active torsions:
REMARK  status: ('A' for Active; 'I' for Inactive)
REMARK    1  A    between atoms: C_3  and  C_9 
REMARK       I    between atoms: C_9  and  N_11 
REMARK    2  A    between atoms: N_11  and  S_12 
REMARK    3  A    between atoms: S_12  and  C_15 
ROOT
HETATM    1  C   UNK N   1      26.696  24.877  -3.749  0.00  0.00     0.266 C 
HETATM    2  O   UNK N   1      26.745  24.235  -2.709  0.00  0.00    -0.267 OA
HETATM    3  N   UNK N   1      26.441  26.209  -3.653  0.00  0.00    -0.245 N 
HETATM    4  H   UNK N   1      26.633  26.609  -2.775  0.00  0.00     0.182 HD
ENDROOT
BRANCH   3   5
HETATM    5  S   UNK N   1      25.815  27.329  -4.868  0.00  0.00     0.272 S 
HETATM    6  O   UNK N   1      24.501  26.765  -5.413  0.00  0.00    -0.200 OA
HETATM    7  O   UNK N   1      25.407  28.609  -4.123  0.00  0.00    -0.200 OA
BRANCH   5   8
HETATM    8  C   UNK N   1      27.030  27.581  -6.153  0.00  0.00     0.121 A 
HETATM    9  C   UNK N   1      27.101  26.865  -7.351  0.00  0.00     0.035 A 
HETATM   10  C   UNK N   1      28.054  27.406  -8.265  0.00  0.00     0.028 A 
HETATM   11  C   UNK N   1      28.693  28.548  -7.772  0.00  0.00     0.052 A 
HETATM   12  S   UNK N   1      28.084  28.851  -6.264  0.00  0.00    -0.069 SA
HETATM   13 Br   UNK N   1      29.982  29.607  -8.695  0.00  0.00    -0.043 Br
ENDBRANCH   5   8
ENDBRANCH   3   5
BRANCH   1  14
HETATM   14  C   UNK N   1      26.863  24.127  -5.019  0.00  0.00     0.054 A 
HETATM   15  C   UNK N   1      25.714  23.582  -5.615  0.00  0.00     0.020 A 
HETATM   16  C   UNK N   1      25.806  22.762  -6.740  0.00  0.00     0.025 A 
HETATM   17  C   UNK N   1      27.056  22.451  -7.272  0.00  0.00     0.035 A 
HETATM   18  C   UNK N   1      28.212  22.947  -6.670  0.00  0.00     0.048 A 
HETATM   19 Cl   UNK N   1      27.178  21.377  -8.649  0.00  0.00    -0.084 Cl
HETATM   20  C   UNK N   1      28.131  23.781  -5.548  0.00  0.00     0.051 A 
HETATM   21 Cl   UNK N   1      29.633  24.173  -4.732  0.00  0.00    -0.083 Cl
ENDBRANCH   1  14
TORSDOF 3
ENDMDL
MODEL 8
REMARK VINA RESULT:      -6.5     22.903     24.584
REMARK  3 active torsions:
REMARK  status: ('A' for Active; 'I' for Inactive)
REMARK    1  A    between atoms: C_3  and  C_9 
REMARK       I    between atoms: C_9  and  N_11 
REMARK    2  A    between atoms: N_11  and  S_12 
REMARK    3  A    between atoms: S_12  and  C_15 
ROOT
HETATM    1  C   UNK N   1      25.850  23.192  -6.720  0.00  0.00     0.266 C 
HETATM    2  O   UNK N   1      25.321  22.099  -6.866  0.00  0.00    -0.267 OA
HETATM    3  N   UNK N   1      25.387  24.221  -7.480  0.00  0.00    -0.245 N 
HETATM    4  H   UNK N   1      24.478  24.099  -7.837  0.00  0.00     0.182 HD
ENDROOT
BRANCH   3   5
HETATM    5  S   UNK N   1      26.170  25.741  -7.920  0.00  0.00     0.272 S 
HETATM    6  O   UNK N   1      27.637  25.450  -8.251  0.00  0.00    -0.200 OA
HETATM    7  O   UNK N   1      25.554  26.188  -9.255  0.00  0.00    -0.200 OA
BRANCH   5   8
HETATM    8  C   UNK N   1      25.997  26.927  -6.596  0.00  0.00     0.121 A 
HETATM    9  C   UNK N   1      24.969  26.940  -5.649  0.00  0.00     0.035 A 
HETATM   10  C   UNK N   1      25.189  27.885  -4.604  0.00  0.00     0.028 A 
HETATM   11  C   UNK N   1      26.395  28.578  -4.741  0.00  0.00     0.052 A 
HETATM   12  S   UNK N   1      27.138  28.023  -6.112  0.00  0.00    -0.069 SA
HETATM   13 Br   UNK N   1      27.095  29.877  -3.535  0.00  0.00    -0.043 Br
ENDBRANCH   5   8
ENDBRANCH   3   5
BRANCH   1  14
HETATM   14  C   UNK N   1      26.988  23.275  -5.770  0.00  0.00     0.054 A 
HETATM   15  C   UNK N   1      26.803  24.009  -4.588  0.00  0.00     0.020 A 
HETATM   16  C   UNK N   1      27.863  24.234  -3.708  0.00  0.00     0.025 A 
HETATM   17  C   UNK N   1      29.133  23.751  -4.011  0.00  0.00     0.035 A 
HETATM   18  C   UNK N   1      29.347  23.055  -5.201  0.00  0.00     0.048 A 
HETATM   19 Cl   UNK N   1      30.475  24.080  -2.937  0.00  0.00    -0.084 Cl
HETATM   20  C   UNK N   1      28.290  22.812  -6.086  0.00  0.00     0.051 A 
HETATM   21 Cl   UNK N   1      28.695  22.129  -7.650  0.00  0.00    -0.083 Cl
ENDBRANCH   1  14
TORSDOF 3
ENDMDL
MODEL 9
REMARK VINA RESULT:      -6.4     20.923     23.093
REMARK  3 active torsions:
REMARK  status: ('A' for Active; 'I' for Inactive)
REMARK    1  A    between atoms: C_3  and  C_9 
REMARK       I    between atoms: C_9  and  N_11 
REMARK    2  A    between atoms: N_11  and  S_12 
REMARK    3  A    between atoms: S_12  and  C_15 
ROOT
HETATM    1  C   UNK N   1      27.518  24.325  -3.433  0.00  0.00     0.266 C 
HETATM    2  O   UNK N   1      26.391  24.413  -2.966  0.00  0.00    -0.267 OA
HETATM    3  N   UNK N   1      28.390  23.484  -2.816  0.00  0.00    -0.245 N 
HETATM    4  H   UNK N   1      27.974  22.785  -2.261  0.00  0.00     0.182 HD
ENDROOT
BRANCH   3   5
HETATM    5  S   UNK N   1      30.156  23.456  -2.860  0.00  0.00     0.272 S 
HETATM    6  O   UNK N   1      30.660  24.901  -2.912  0.00  0.00    -0.200 OA
HETATM    7  O   UNK N   1      30.626  22.931  -1.494  0.00  0.00    -0.200 OA
BRANCH   5   8
HETATM    8  C   UNK N   1      30.720  22.491  -4.253  0.00  0.00     0.121 A 
HETATM    9  C   UNK N   1      30.420  21.145  -4.481  0.00  0.00     0.035 A 
HETATM   10  C   UNK N   1      30.850  20.690  -5.763  0.00  0.00     0.028 A 
HETATM   11  C   UNK N   1      31.458  21.695  -6.522  0.00  0.00     0.052 A 
HETATM   12  S   UNK N   1      31.451  23.080  -5.615  0.00  0.00    -0.069 SA
HETATM   13 Br   UNK N   1      32.115  21.524  -8.303  0.00  0.00    -0.043 Br
ENDBRANCH   5   8
ENDBRANCH   3   5
BRANCH   1  14
HETATM   14  C   UNK N   1      27.842  25.191  -4.595  0.00  0.00     0.054 A 
HETATM   15  C   UNK N   1      27.837  26.581  -4.398  0.00  0.00     0.020 A 
HETATM   16  C   UNK N   1      28.010  27.459  -5.469  0.00  0.00     0.025 A 
HETATM   17  C   UNK N   1      28.162  26.960  -6.761  0.00  0.00     0.035 A 
HETATM   18  C   UNK N   1      28.127  25.583  -6.983  0.00  0.00     0.048 A 
HETATM   19 Cl   UNK N   1      28.322  28.060  -8.112  0.00  0.00    -0.084 Cl
HETATM   20  C   UNK N   1      27.967  24.692  -5.915  0.00  0.00     0.051 A 
HETATM   21 Cl   UNK N   1      27.713  23.002  -6.314  0.00  0.00    -0.083 Cl
ENDBRANCH   1  14
TORSDOF 3
ENDMDL
