MODEL 1
REMARK VINA RESULT:      -7.8      0.000      0.000
REMARK  9 active torsions:
REMARK  status: ('A' for Active; 'I' for Inactive)
REMARK    1  A    between atoms: O_2  and  C_3 
REMARK    2  A    between atoms: C_3  and  C_4 
REMARK    3  A    between atoms: C_4  and  O_5 
REMARK    4  A    between atoms: O_5  and  C_6 
REMARK    5  A    between atoms: C_9  and  N_12 
REMARK    6  A    between atoms: N_15  and  C_18 
REMARK    7  A    between atoms: C_18  and  C_19 
REMARK    8  A    between atoms: C_19  and  N_20 
REMARK    9  A    between atoms: C_29  and  C_37 
REMARK       I    between atoms: C_33  and  N_36 
ROOT
HETATM    1  N   UNK N   1      34.562  13.535   7.559  0.00  0.00    -0.274 N 
HETATM    2  C   UNK N   1      35.408  13.564   8.590  0.00  0.00     0.153 A 
HETATM    3  C   UNK N   1      34.764  13.089   9.672  0.00  0.00     0.073 A 
HETATM    4  C   UNK N   1      33.491  12.752   9.283  0.00  0.00     0.126 A 
HETATM    5  N   UNK N   1      33.399  13.036   7.967  0.00  0.00    -0.307 N 
ATOM      6  HN  UNK N   1      32.575  12.893   7.382  1.00  0.00     0.186 HD
HETATM    7  C   UNK N   1      35.398  13.093  10.855  0.00  0.00     0.162 A 
HETATM    8  N   UNK N   1      34.875  12.788  12.034  0.00  0.00    -0.322 N 
ATOM      9  HN  UNK N   1      33.959  12.390  12.241  1.00  0.00     0.169 HD
HETATM   10  C   UNK N   1      35.854  13.134  12.889  0.00  0.00     0.157 A 
HETATM   11  N   UNK N   1      36.961  13.599  12.239  0.00  0.00    -0.260 N 
ATOM     12  HN  UNK N   1      37.841  13.906  12.654  1.00  0.00     0.190 HD
HETATM   13  N   UNK N   1      36.646  13.563  10.962  0.00  0.00    -0.067 N 
HETATM   14  C   UNK N   1      37.344  14.000   9.859  0.00  0.00     0.700 A 
HETATM   15  N   UNK N   1      36.709  14.005   8.635  0.00  0.00    -0.173 N 
ATOM     16  HN  UNK N   1      37.188  14.325   7.792  1.00  0.00     0.186 HD
HETATM   17  N   UNK N   1      38.656  14.505   9.990  0.00  0.00    -0.233 N 
HETATM   18  H   UNK N   1      39.223  14.623   9.193  0.00  0.00     0.174 HD
HETATM   19  H   UNK N   1      39.005  14.740  10.880  0.00  0.00     0.174 HD
ENDROOT
BRANCH   1  20
HETATM   20  C   UNK N   1      34.819  13.871   6.189  0.00  0.00     0.181 C 
BRANCH  20  21
HETATM   21  C   UNK N   1      33.491  13.690   5.486  0.00  0.00     0.294 C 
BRANCH  21  22
HETATM   22  N   UNK N   1      33.578  12.723   4.365  0.00  0.00     0.093 N 
HETATM   23  C   UNK N   1      32.208  12.412   3.952  0.00  0.00     0.292 C 
HETATM   24  C   UNK N   1      31.542  13.627   3.316  0.00  0.00     0.153 C 
HETATM   25  N   UNK N   1      32.488  14.728   3.267  0.00  0.00    -0.378 N 
HETATM   26  C   UNK N   1      33.738  14.500   2.596  0.00  0.00     0.153 C 
HETATM   27  C   UNK N   1      34.340  13.223   3.189  0.00  0.00     0.292 C 
BRANCH  25  28
HETATM   28  C   UNK N   1      32.103  16.002   3.730  0.00  0.00     0.030 C 
HETATM   29  C   UNK N   1      33.143  16.917   3.937  0.00  0.00     0.032 C 
HETATM   30  C   UNK N   1      33.244  17.565   5.148  0.00  0.00     0.039 C 
HETATM   31  C   UNK N   1      32.294  17.298   6.124  0.00  0.00     0.069 C 
HETATM   32  C   UNK N   1      31.100  16.635   5.788  0.00  0.00     0.039 C 
HETATM   33  C   UNK N   1      30.988  16.013   4.561  0.00  0.00     0.032 C 
BRANCH  31  34
HETATM   34  O   UNK N   1      32.592  17.580   7.402  0.00  0.00    -0.349 OA
BRANCH  34  35
HETATM   35  C   UNK N   1      33.830  18.062   7.751  0.00  0.00     0.201 C 
BRANCH  35  36
HETATM   36  C   UNK N   1      34.490  17.068   8.663  0.00  0.00     0.193 C 
BRANCH  36  37
HETATM   37  O   UNK N   1      35.221  17.747   9.632  0.00  0.00    -0.394 OA
HETATM   38  C   UNK N   1      35.310  16.836  10.680  0.00  0.00     0.201 C 
ENDBRANCH  36  37
ENDBRANCH  35  36
ENDBRANCH  34  35
ENDBRANCH  31  34
ENDBRANCH  25  28
ENDBRANCH  21  22
ENDBRANCH  20  21
ENDBRANCH   1  20
BRANCH  10  39
HETATM   39  C   UNK N   1      35.550  13.302  14.297  0.00  0.00     0.120 A 
HETATM   40  C   UNK N   1      36.489  13.676  15.232  0.00  0.00     0.043 A 
HETATM   41  C   UNK N   1      35.879  13.509  16.453  0.00  0.00     0.027 A 
HETATM   42  C   UNK N   1      34.606  13.027  16.185  0.00  0.00     0.142 A 
HETATM   43  O   UNK N   1      34.453  12.911  14.886  0.00  0.00    -0.319 OA
ENDBRANCH  10  39
TORSDOF 9
ENDMDL
MODEL 2
REMARK VINA RESULT:      -7.5      7.912     11.110
REMARK  9 active torsions:
REMARK  status: ('A' for Active; 'I' for Inactive)
REMARK    1  A    between atoms: O_2  and  C_3 
REMARK    2  A    between atoms: C_3  and  C_4 
REMARK    3  A    between atoms: C_4  and  O_5 
REMARK    4  A    between atoms: O_5  and  C_6 
REMARK    5  A    between atoms: C_9  and  N_12 
REMARK    6  A    between atoms: N_15  and  C_18 
REMARK    7  A    between atoms: C_18  and  C_19 
REMARK    8  A    between atoms: C_19  and  N_20 
REMARK    9  A    between atoms: C_29  and  C_37 
REMARK       I    between atoms: C_33  and  N_36 
ROOT
HETATM    1  N   UNK N   1      23.525  14.953   4.315  0.00  0.00    -0.274 N 
HETATM    2  C   UNK N   1      24.806  15.301   4.448  0.00  0.00     0.153 A 
HETATM    3  C   UNK N   1      25.073  15.415   5.762  0.00  0.00     0.073 A 
HETATM    4  C   UNK N   1      23.921  15.117   6.447  0.00  0.00     0.126 A 
HETATM    5  N   UNK N   1      22.981  14.831   5.522  0.00  0.00    -0.307 N 
ATOM      6  HN  UNK N   1      22.015  14.565   5.716  1.00  0.00     0.186 HD
HETATM    7  C   UNK N   1      26.292  15.832   6.140  0.00  0.00     0.162 A 
HETATM    8  N   UNK N   1      26.681  16.123   7.373  0.00  0.00    -0.322 N 
ATOM      9  HN  UNK N   1      26.183  15.973   8.250  1.00  0.00     0.169 HD
HETATM   10  C   UNK N   1      27.897  16.663   7.178  0.00  0.00     0.157 A 
HETATM   11  N   UNK N   1      28.253  16.662   5.860  0.00  0.00    -0.260 N 
ATOM     12  HN  UNK N   1      29.127  16.996   5.453  1.00  0.00     0.190 HD
HETATM   13  N   UNK N   1      27.225  16.134   5.231  0.00  0.00    -0.067 N 
HETATM   14  C   UNK N   1      26.992  15.971   3.883  0.00  0.00     0.700 A 
HETATM   15  N   UNK N   1      25.746  15.545   3.475  0.00  0.00    -0.173 N 
ATOM     16  HN  UNK N   1      25.530  15.415   2.486  1.00  0.00     0.186 HD
HETATM   17  N   UNK N   1      27.984  16.306   2.935  0.00  0.00    -0.233 N 
HETATM   18  H   UNK N   1      27.899  16.002   2.002  0.00  0.00     0.174 HD
HETATM   19  H   UNK N   1      28.761  16.845   3.207  0.00  0.00     0.174 HD
ENDROOT
BRANCH   1  20
HETATM   20  C   UNK N   1      22.809  14.645   3.112  0.00  0.00     0.181 C 
BRANCH  20  21
HETATM   21  C   UNK N   1      21.957  15.867   2.840  0.00  0.00     0.294 C 
BRANCH  21  22
HETATM   22  N   UNK N   1      20.585  15.508   2.406  0.00  0.00     0.093 N 
HETATM   23  C   UNK N   1      19.753  15.440   3.610  0.00  0.00     0.292 C 
HETATM   24  C   UNK N   1      19.575  16.822   4.228  0.00  0.00     0.153 C 
HETATM   25  N   UNK N   1      20.251  17.810   3.406  0.00  0.00    -0.378 N 
HETATM   26  C   UNK N   1      19.881  17.888   2.019  0.00  0.00     0.153 C 
HETATM   27  C   UNK N   1      19.978  16.471   1.449  0.00  0.00     0.292 C 
BRANCH  25  28
HETATM   28  C   UNK N   1      21.117  18.745   4.007  0.00  0.00     0.030 C 
HETATM   29  C   UNK N   1      21.780  19.615   3.132  0.00  0.00     0.032 C 
HETATM   30  C   UNK N   1      23.149  19.739   3.209  0.00  0.00     0.039 C 
HETATM   31  C   UNK N   1      23.829  19.002   4.170  0.00  0.00     0.069 C 
HETATM   32  C   UNK N   1      23.126  18.396   5.226  0.00  0.00     0.039 C 
HETATM   33  C   UNK N   1      21.750  18.301   5.163  0.00  0.00     0.032 C 
BRANCH  31  34
HETATM   34  O   UNK N   1      25.143  18.788   4.001  0.00  0.00    -0.349 OA
BRANCH  34  35
HETATM   35  C   UNK N   1      25.954  19.754   3.456  0.00  0.00     0.201 C 
BRANCH  35  36
HETATM   36  C   UNK N   1      27.285  19.708   4.150  0.00  0.00     0.193 C 
BRANCH  36  37
HETATM   37  O   UNK N   1      27.084  19.562   5.519  0.00  0.00    -0.394 OA
HETATM   38  C   UNK N   1      27.407  20.811   6.038  0.00  0.00     0.201 C 
ENDBRANCH  36  37
ENDBRANCH  35  36
ENDBRANCH  34  35
ENDBRANCH  31  34
ENDBRANCH  25  28
ENDBRANCH  21  22
ENDBRANCH  20  21
ENDBRANCH   1  20
BRANCH  10  39
HETATM   39  C   UNK N   1      28.511  17.446   8.233  0.00  0.00     0.120 A 
HETATM   40  C   UNK N   1      29.544  18.330   8.013  0.00  0.00     0.043 A 
HETATM   41  C   UNK N   1      29.987  18.695   9.263  0.00  0.00     0.027 A 
HETATM   42  C   UNK N   1      29.204  17.997  10.169  0.00  0.00     0.142 A 
HETATM   43  O   UNK N   1      28.340  17.257   9.513  0.00  0.00    -0.319 OA
ENDBRANCH  10  39
TORSDOF 9
ENDMDL
MODEL 3
REMARK VINA RESULT:      -7.4      7.476     11.365
REMARK  9 active torsions:
REMARK  status: ('A' for Active; 'I' for Inactive)
REMARK    1  A    between atoms: O_2  and  C_3 
REMARK    2  A    between atoms: C_3  and  C_4 
REMARK    3  A    between atoms: C_4  and  O_5 
REMARK    4  A    between atoms: O_5  and  C_6 
REMARK    5  A    between atoms: C_9  and  N_12 
REMARK    6  A    between atoms: N_15  and  C_18 
REMARK    7  A    between atoms: C_18  and  C_19 
REMARK    8  A    between atoms: C_19  and  N_20 
REMARK    9  A    between atoms: C_29  and  C_37 
REMARK       I    between atoms: C_33  and  N_36 
ROOT
HETATM    1  N   UNK N   1      24.578  15.056   3.069  0.00  0.00    -0.274 N 
HETATM    2  C   UNK N   1      25.472  15.619   3.883  0.00  0.00     0.153 A 
HETATM    3  C   UNK N   1      26.523  16.013   3.141  0.00  0.00     0.073 A 
HETATM    4  C   UNK N   1      26.252  15.688   1.834  0.00  0.00     0.126 A 
HETATM    5  N   UNK N   1      25.038  15.101   1.823  0.00  0.00    -0.307 N 
ATOM      6  HN  UNK N   1      24.554  14.749   0.997  1.00  0.00     0.186 HD
HETATM    7  C   UNK N   1      27.589  16.544   3.760  0.00  0.00     0.162 A 
HETATM    8  N   UNK N   1      28.750  16.861   3.204  0.00  0.00    -0.322 N 
ATOM      9  HN  UNK N   1      29.000  16.876   2.216  1.00  0.00     0.169 HD
HETATM   10  C   UNK N   1      29.514  17.161   4.269  0.00  0.00     0.157 A 
HETATM   11  N   UNK N   1      28.820  17.067   5.441  0.00  0.00    -0.260 N 
ATOM     12  HN  UNK N   1      29.162  17.259   6.383  1.00  0.00     0.190 HD
HETATM   13  N   UNK N   1      27.613  16.677   5.091  0.00  0.00    -0.067 N 
HETATM   14  C   UNK N   1      26.527  16.333   5.865  0.00  0.00     0.700 A 
HETATM   15  N   UNK N   1      25.423  15.784   5.248  0.00  0.00    -0.173 N 
ATOM     16  HN  UNK N   1      24.599  15.512   5.784  1.00  0.00     0.186 HD
HETATM   17  N   UNK N   1      26.573  16.468   7.270  0.00  0.00    -0.233 N 
HETATM   18  H   UNK N   1      25.743  16.420   7.799  0.00  0.00     0.174 HD
HETATM   19  H   UNK N   1      27.435  16.609   7.722  0.00  0.00     0.174 HD
ENDROOT
BRANCH   1  20
HETATM   20  C   UNK N   1      23.274  14.557   3.393  0.00  0.00     0.181 C 
BRANCH  20  21
HETATM   21  C   UNK N   1      22.318  15.648   2.959  0.00  0.00     0.294 C 
BRANCH  21  22
HETATM   22  N   UNK N   1      21.052  15.100   2.415  0.00  0.00     0.093 N 
HETATM   23  C   UNK N   1      20.126  14.948   3.539  0.00  0.00     0.292 C 
HETATM   24  C   UNK N   1      19.711  16.308   4.090  0.00  0.00     0.153 C 
HETATM   25  N   UNK N   1      20.327  17.359   3.300  0.00  0.00    -0.378 N 
HETATM   26  C   UNK N   1      20.084  17.356   1.883  0.00  0.00     0.153 C 
HETATM   27  C   UNK N   1      20.419  15.952   1.373  0.00  0.00     0.292 C 
BRANCH  25  28
HETATM   28  C   UNK N   1      21.003  18.414   3.945  0.00  0.00     0.030 C 
HETATM   29  C   UNK N   1      21.661  19.322   3.106  0.00  0.00     0.032 C 
HETATM   30  C   UNK N   1      22.989  19.612   3.331  0.00  0.00     0.039 C 
HETATM   31  C   UNK N   1      23.629  19.000   4.401  0.00  0.00     0.069 C 
HETATM   32  C   UNK N   1      22.879  18.356   5.400  0.00  0.00     0.039 C 
HETATM   33  C   UNK N   1      21.541  18.095   5.187  0.00  0.00     0.032 C 
BRANCH  31  34
HETATM   34  O   UNK N   1      24.970  18.939   4.394  0.00  0.00    -0.349 OA
BRANCH  34  35
HETATM   35  C   UNK N   1      25.722  19.789   5.167  0.00  0.00     0.201 C 
BRANCH  35  36
HETATM   36  C   UNK N   1      26.924  20.217   4.375  0.00  0.00     0.193 C 
BRANCH  36  37
HETATM   37  O   UNK N   1      28.048  20.192   5.195  0.00  0.00    -0.394 OA
HETATM   38  C   UNK N   1      27.521  20.235   6.482  0.00  0.00     0.201 C 
ENDBRANCH  36  37
ENDBRANCH  35  36
ENDBRANCH  34  35
ENDBRANCH  31  34
ENDBRANCH  25  28
ENDBRANCH  21  22
ENDBRANCH  20  21
ENDBRANCH   1  20
BRANCH  10  39
HETATM   39  C   UNK N   1      30.956  17.207   4.126  0.00  0.00     0.120 A 
HETATM   40  C   UNK N   1      31.618  16.754   3.006  0.00  0.00     0.043 A 
HETATM   41  C   UNK N   1      32.952  16.760   3.340  0.00  0.00     0.027 A 
HETATM   42  C   UNK N   1      33.019  17.204   4.652  0.00  0.00     0.142 A 
HETATM   43  O   UNK N   1      31.805  17.452   5.086  0.00  0.00    -0.319 OA
ENDBRANCH  10  39
TORSDOF 9
ENDMDL
MODEL 4
REMARK VINA RESULT:      -7.3      3.256      8.518
REMARK  9 active torsions:
REMARK  status: ('A' for Active; 'I' for Inactive)
REMARK    1  A    between atoms: O_2  and  C_3 
REMARK    2  A    between atoms: C_3  and  C_4 
REMARK    3  A    between atoms: C_4  and  O_5 
REMARK    4  A    between atoms: O_5  and  C_6 
REMARK    5  A    between atoms: C_9  and  N_12 
REMARK    6  A    between atoms: N_15  and  C_18 
REMARK    7  A    between atoms: C_18  and  C_19 
REMARK    8  A    between atoms: C_19  and  N_20 
REMARK    9  A    between atoms: C_29  and  C_37 
REMARK       I    between atoms: C_33  and  N_36 
ROOT
HETATM    1  N   UNK N   1      36.262  14.412  11.127  0.00  0.00    -0.274 N 
HETATM    2  C   UNK N   1      35.261  14.318  10.250  0.00  0.00     0.153 A 
HETATM    3  C   UNK N   1      34.762  15.552  10.052  0.00  0.00     0.073 A 
HETATM    4  C   UNK N   1      35.490  16.423  10.825  0.00  0.00     0.126 A 
HETATM    5  N   UNK N   1      36.415  15.687  11.475  0.00  0.00    -0.307 N 
ATOM      6  HN  UNK N   1      37.114  16.046  12.125  1.00  0.00     0.186 HD
HETATM    7  C   UNK N   1      33.688  15.695   9.259  0.00  0.00     0.162 A 
HETATM    8  N   UNK N   1      32.995  16.807   9.060  0.00  0.00    -0.322 N 
ATOM      9  HN  UNK N   1      33.210  17.756   9.366  1.00  0.00     0.169 HD
HETATM   10  C   UNK N   1      31.936  16.371   8.355  0.00  0.00     0.157 A 
HETATM   11  N   UNK N   1      32.008  15.033   8.096  0.00  0.00    -0.260 N 
ATOM     12  HN  UNK N   1      31.345  14.466   7.567  1.00  0.00     0.190 HD
HETATM   13  N   UNK N   1      33.119  14.634   8.677  0.00  0.00    -0.067 N 
HETATM   14  C   UNK N   1      33.647  13.370   8.820  0.00  0.00     0.700 A 
HETATM   15  N   UNK N   1      34.748  13.202   9.632  0.00  0.00    -0.173 N 
ATOM     16  HN  UNK N   1      35.169  12.282   9.769  1.00  0.00     0.186 HD
HETATM   17  N   UNK N   1      33.028  12.257   8.209  0.00  0.00    -0.233 N 
HETATM   18  H   UNK N   1      33.508  11.401   8.139  0.00  0.00     0.174 HD
HETATM   19  H   UNK N   1      32.114  12.338   7.854  0.00  0.00     0.174 HD
ENDROOT
BRANCH   1  20
HETATM   20  C   UNK N   1      37.140  13.377  11.587  0.00  0.00     0.181 C 
BRANCH  20  21
HETATM   21  C   UNK N   1      36.323  12.587  12.587  0.00  0.00     0.294 C 
BRANCH  21  22
HETATM   22  N   UNK N   1      36.626  12.974  13.987  0.00  0.00     0.093 N 
HETATM   23  C   UNK N   1      35.346  13.140  14.678  0.00  0.00     0.292 C 
HETATM   24  C   UNK N   1      34.631  11.802  14.831  0.00  0.00     0.153 C 
HETATM   25  N   UNK N   1      35.461  10.745  14.281  0.00  0.00    -0.378 N 
HETATM   26  C   UNK N   1      36.793  10.605  14.804  0.00  0.00     0.153 C 
HETATM   27  C   UNK N   1      37.454  11.983  14.726  0.00  0.00     0.292 C 
BRANCH  25  28
HETATM   28  C   UNK N   1      34.903   9.812  13.385  0.00  0.00     0.030 C 
HETATM   29  C   UNK N   1      35.818   9.044  12.653  0.00  0.00     0.032 C 
HETATM   30  C   UNK N   1      35.707   8.984  11.282  0.00  0.00     0.039 C 
HETATM   31  C   UNK N   1      34.675   9.680  10.668  0.00  0.00     0.069 C 
HETATM   32  C   UNK N   1      33.600  10.170  11.431  0.00  0.00     0.039 C 
HETATM   33  C   UNK N   1      33.699  10.200  12.807  0.00  0.00     0.032 C 
BRANCH  31  34
HETATM   34  O   UNK N   1      34.786   9.972   9.363  0.00  0.00    -0.349 OA
BRANCH  34  35
HETATM   35  C   UNK N   1      35.824   9.474   8.612  0.00  0.00     0.201 C 
BRANCH  35  36
HETATM   36  C   UNK N   1      36.659  10.626   8.131  0.00  0.00     0.193 C 
BRANCH  36  37
HETATM   37  O   UNK N   1      35.900  11.420   7.277  0.00  0.00    -0.394 OA
HETATM   38  C   UNK N   1      36.828  12.304   6.735  0.00  0.00     0.201 C 
ENDBRANCH  36  37
ENDBRANCH  35  36
ENDBRANCH  34  35
ENDBRANCH  31  34
ENDBRANCH  25  28
ENDBRANCH  21  22
ENDBRANCH  20  21
ENDBRANCH   1  20
BRANCH  10  39
HETATM   39  C   UNK N   1      30.754  17.204   8.247  0.00  0.00     0.120 A 
HETATM   40  C   UNK N   1      30.540  18.315   9.034  0.00  0.00     0.043 A 
HETATM   41  C   UNK N   1      29.240  18.692   8.790  0.00  0.00     0.027 A 
HETATM   42  C   UNK N   1      28.737  17.776   7.879  0.00  0.00     0.142 A 
HETATM   43  O   UNK N   1      29.671  16.900   7.587  0.00  0.00    -0.319 OA
ENDBRANCH  10  39
TORSDOF 9
ENDMDL
MODEL 5
REMARK VINA RESULT:      -7.2      1.686      2.246
REMARK  9 active torsions:
REMARK  status: ('A' for Active; 'I' for Inactive)
REMARK    1  A    between atoms: O_2  and  C_3 
REMARK    2  A    between atoms: C_3  and  C_4 
REMARK    3  A    between atoms: C_4  and  O_5 
REMARK    4  A    between atoms: O_5  and  C_6 
REMARK    5  A    between atoms: C_9  and  N_12 
REMARK    6  A    between atoms: N_15  and  C_18 
REMARK    7  A    between atoms: C_18  and  C_19 
REMARK    8  A    between atoms: C_19  and  N_20 
REMARK    9  A    between atoms: C_29  and  C_37 
REMARK       I    between atoms: C_33  and  N_36 
ROOT
HETATM    1  N   UNK N   1      35.613  13.758   6.978  0.00  0.00    -0.274 N 
HETATM    2  C   UNK N   1      35.563  14.427   8.132  0.00  0.00     0.153 A 
HETATM    3  C   UNK N   1      35.984  13.606   9.110  0.00  0.00     0.073 A 
HETATM    4  C   UNK N   1      36.309  12.404   8.531  0.00  0.00     0.126 A 
HETATM    5  N   UNK N   1      36.073  12.532   7.209  0.00  0.00    -0.307 N 
ATOM      6  HN  UNK N   1      36.221  11.810   6.504  1.00  0.00     0.186 HD
HETATM    7  C   UNK N   1      35.948  14.041  10.380  0.00  0.00     0.162 A 
HETATM    8  N   UNK N   1      36.198  13.327  11.468  0.00  0.00    -0.322 N 
ATOM      9  HN  UNK N   1      36.570  12.380  11.537  1.00  0.00     0.169 HD
HETATM   10  C   UNK N   1      35.840  14.164  12.458  0.00  0.00     0.157 A 
HETATM   11  N   UNK N   1      35.422  15.373  11.981  0.00  0.00    -0.260 N 
ATOM     12  HN  UNK N   1      35.117  16.182  12.522  1.00  0.00     0.190 HD
HETATM   13  N   UNK N   1      35.500  15.267  10.672  0.00  0.00    -0.067 N 
HETATM   14  C   UNK N   1      35.118  16.145   9.682  0.00  0.00     0.700 A 
HETATM   15  N   UNK N   1      35.145  15.716   8.372  0.00  0.00    -0.173 N 
ATOM     16  HN  UNK N   1      34.867  16.332   7.607  1.00  0.00     0.186 HD
HETATM   17  N   UNK N   1      34.634  17.431  10.007  0.00  0.00    -0.233 N 
HETATM   18  H   UNK N   1      34.558  18.122   9.309  0.00  0.00     0.174 HD
HETATM   19  H   UNK N   1      34.373  17.638  10.933  0.00  0.00     0.174 HD
ENDROOT
BRANCH   1  20
HETATM   20  C   UNK N   1      35.334  14.242   5.658  0.00  0.00     0.181 C 
BRANCH  20  21
HETATM   21  C   UNK N   1      34.048  13.554   5.254  0.00  0.00     0.294 C 
BRANCH  21  22
HETATM   22  N   UNK N   1      34.208  12.747   4.019  0.00  0.00     0.093 N 
HETATM   23  C   UNK N   1      32.891  12.204   3.681  0.00  0.00     0.292 C 
HETATM   24  C   UNK N   1      31.938  13.314   3.253  0.00  0.00     0.153 C 
HETATM   25  N   UNK N   1      32.638  14.586   3.265  0.00  0.00    -0.378 N 
HETATM   26  C   UNK N   1      33.834  14.693   2.475  0.00  0.00     0.153 C 
HETATM   27  C   UNK N   1      34.733  13.514   2.857  0.00  0.00     0.292 C 
BRANCH  25  28
HETATM   28  C   UNK N   1      32.060  15.697   3.909  0.00  0.00     0.030 C 
HETATM   29  C   UNK N   1      32.943  16.725   4.265  0.00  0.00     0.032 C 
HETATM   30  C   UNK N   1      32.952  17.191   5.561  0.00  0.00     0.039 C 
HETATM   31  C   UNK N   1      32.067  16.631   6.473  0.00  0.00     0.069 C 
HETATM   32  C   UNK N   1      30.992  15.845   6.025  0.00  0.00     0.039 C 
HETATM   33  C   UNK N   1      30.967  15.405   4.718  0.00  0.00     0.032 C 
BRANCH  31  34
HETATM   34  O   UNK N   1      32.331  16.761   7.783  0.00  0.00    -0.349 OA
BRANCH  34  35
HETATM   35  C   UNK N   1      31.316  16.858   8.704  0.00  0.00     0.201 C 
BRANCH  35  36
HETATM   36  C   UNK N   1      30.910  18.299   8.819  0.00  0.00     0.193 C 
BRANCH  36  37
HETATM   37  O   UNK N   1      29.837  18.406   9.698  0.00  0.00    -0.394 OA
HETATM   38  C   UNK N   1      28.722  18.358   8.869  0.00  0.00     0.201 C 
ENDBRANCH  36  37
ENDBRANCH  35  36
ENDBRANCH  34  35
ENDBRANCH  31  34
ENDBRANCH  25  28
ENDBRANCH  21  22
ENDBRANCH  20  21
ENDBRANCH   1  20
BRANCH  10  39
HETATM   39  C   UNK N   1      35.614  13.641  13.791  0.00  0.00     0.120 A 
HETATM   40  C   UNK N   1      36.616  13.502  14.726  0.00  0.00     0.043 A 
HETATM   41  C   UNK N   1      36.058  12.781  15.757  0.00  0.00     0.027 A 
HETATM   42  C   UNK N   1      34.751  12.514  15.378  0.00  0.00     0.142 A 
HETATM   43  O   UNK N   1      34.530  13.038  14.194  0.00  0.00    -0.319 OA
ENDBRANCH  10  39
TORSDOF 9
ENDMDL
MODEL 6
REMARK VINA RESULT:      -7.1      2.781      9.145
REMARK  9 active torsions:
REMARK  status: ('A' for Active; 'I' for Inactive)
REMARK    1  A    between atoms: O_2  and  C_3 
REMARK    2  A    between atoms: C_3  and  C_4 
REMARK    3  A    between atoms: C_4  and  O_5 
REMARK    4  A    between atoms: O_5  and  C_6 
REMARK    5  A    between atoms: C_9  and  N_12 
REMARK    6  A    between atoms: N_15  and  C_18 
REMARK    7  A    between atoms: C_18  and  C_19 
REMARK    8  A    between atoms: C_19  and  N_20 
REMARK    9  A    between atoms: C_29  and  C_37 
REMARK       I    between atoms: C_33  and  N_36 
ROOT
HETATM    1  N   UNK N   1      36.581  15.029  10.026  0.00  0.00    -0.274 N 
HETATM    2  C   UNK N   1      35.631  15.178   9.101  0.00  0.00     0.153 A 
HETATM    3  C   UNK N   1      34.842  16.202   9.474  0.00  0.00     0.073 A 
HETATM    4  C   UNK N   1      35.334  16.696  10.657  0.00  0.00     0.126 A 
HETATM    5  N   UNK N   1      36.414  15.950  10.970  0.00  0.00    -0.307 N 
ATOM      6  HN  UNK N   1      37.004  16.072  11.793  1.00  0.00     0.186 HD
HETATM    7  C   UNK N   1      33.764  16.492   8.728  0.00  0.00     0.162 A 
HETATM    8  N   UNK N   1      32.816  17.373   9.017  0.00  0.00    -0.322 N 
ATOM      9  HN  UNK N   1      32.792  18.058   9.772  1.00  0.00     0.169 HD
HETATM   10  C   UNK N   1      31.897  17.138   8.064  0.00  0.00     0.157 A 
HETATM   11  N   UNK N   1      32.297  16.165   7.194  0.00  0.00    -0.260 N 
ATOM     12  HN  UNK N   1      31.793  15.817   6.378  1.00  0.00     0.190 HD
HETATM   13  N   UNK N   1      33.474  15.777   7.636  0.00  0.00    -0.067 N 
HETATM   14  C   UNK N   1      34.298  14.762   7.204  0.00  0.00     0.700 A 
HETATM   15  N   UNK N   1      35.409  14.447   7.957  0.00  0.00    -0.173 N 
ATOM     16  HN  UNK N   1      36.044  13.700   7.676  1.00  0.00     0.186 HD
HETATM   17  N   UNK N   1      33.971  14.008   6.056  0.00  0.00    -0.233 N 
HETATM   18  H   UNK N   1      34.648  13.430   5.634  0.00  0.00     0.174 HD
HETATM   19  H   UNK N   1      33.064  14.058   5.677  0.00  0.00     0.174 HD
ENDROOT
BRANCH   1  20
HETATM   20  C   UNK N   1      37.688  14.119  10.023  0.00  0.00     0.181 C 
BRANCH  20  21
HETATM   21  C   UNK N   1      37.286  13.009  10.970  0.00  0.00     0.294 C 
BRANCH  21  22
HETATM   22  N   UNK N   1      36.513  11.943  10.287  0.00  0.00     0.093 N 
HETATM   23  C   UNK N   1      37.149  10.665  10.619  0.00  0.00     0.292 C 
HETATM   24  C   UNK N   1      36.970  10.336  12.097  0.00  0.00     0.153 C 
HETATM   25  N   UNK N   1      36.177  11.374  12.732  0.00  0.00    -0.378 N 
HETATM   26  C   UNK N   1      34.881  11.655  12.176  0.00  0.00     0.153 C 
HETATM   27  C   UNK N   1      35.078  11.888  10.675  0.00  0.00     0.292 C 
BRANCH  25  28
HETATM   28  C   UNK N   1      36.620  11.955  13.936  0.00  0.00     0.030 C 
HETATM   29  C   UNK N   1      37.157  11.070  14.881  0.00  0.00     0.032 C 
HETATM   30  C   UNK N   1      36.674  11.084  16.171  0.00  0.00     0.039 C 
HETATM   31  C   UNK N   1      35.676  11.992  16.497  0.00  0.00     0.069 C 
HETATM   32  C   UNK N   1      35.388  13.065  15.636  0.00  0.00     0.039 C 
HETATM   33  C   UNK N   1      35.897  13.067  14.353  0.00  0.00     0.032 C 
BRANCH  31  34
HETATM   34  O   UNK N   1      34.924  11.754  17.582  0.00  0.00    -0.349 OA
BRANCH  34  35
HETATM   35  C   UNK N   1      35.306  12.207  18.822  0.00  0.00     0.201 C 
BRANCH  35  36
HETATM   36  C   UNK N   1      35.587  11.021  19.699  0.00  0.00     0.193 C 
BRANCH  36  37
HETATM   37  O   UNK N   1      34.564  10.884  20.631  0.00  0.00    -0.394 OA
HETATM   38  C   UNK N   1      34.272   9.524  20.607  0.00  0.00     0.201 C 
ENDBRANCH  36  37
ENDBRANCH  35  36
ENDBRANCH  34  35
ENDBRANCH  31  34
ENDBRANCH  25  28
ENDBRANCH  21  22
ENDBRANCH  20  21
ENDBRANCH   1  20
BRANCH  10  39
HETATM   39  C   UNK N   1      30.545  17.635   8.235  0.00  0.00     0.120 A 
HETATM   40  C   UNK N   1      30.165  18.439   9.287  0.00  0.00     0.043 A 
HETATM   41  C   UNK N   1      28.793  18.509   9.218  0.00  0.00     0.027 A 
HETATM   42  C   UNK N   1      28.421  17.728   8.134  0.00  0.00     0.142 A 
HETATM   43  O   UNK N   1      29.497  17.219   7.580  0.00  0.00    -0.319 OA
ENDBRANCH  10  39
TORSDOF 9
ENDMDL
MODEL 7
REMARK VINA RESULT:      -7.1      7.486     10.436
REMARK  9 active torsions:
REMARK  status: ('A' for Active; 'I' for Inactive)
REMARK    1  A    between atoms: O_2  and  C_3 
REMARK    2  A    between atoms: C_3  and  C_4 
REMARK    3  A    between atoms: C_4  and  O_5 
REMARK    4  A    between atoms: O_5  and  C_6 
REMARK    5  A    between atoms: C_9  and  N_12 
REMARK    6  A    between atoms: N_15  and  C_18 
REMARK    7  A    between atoms: C_18  and  C_19 
REMARK    8  A    between atoms: C_19  and  N_20 
REMARK    9  A    between atoms: C_29  and  C_37 
REMARK       I    between atoms: C_33  and  N_36 
ROOT
HETATM    1  N   UNK N   1      23.323  17.700   5.174  0.00  0.00    -0.274 N 
HETATM    2  C   UNK N   1      23.744  16.529   5.655  0.00  0.00     0.153 A 
HETATM    3  C   UNK N   1      22.771  16.025   6.438  0.00  0.00     0.073 A 
HETATM    4  C   UNK N   1      21.725  16.914   6.423  0.00  0.00     0.126 A 
HETATM    5  N   UNK N   1      22.096  17.939   5.628  0.00  0.00    -0.307 N 
ATOM      6  HN  UNK N   1      21.531  18.760   5.410  1.00  0.00     0.186 HD
HETATM    7  C   UNK N   1      23.001  14.878   7.096  0.00  0.00     0.162 A 
HETATM    8  N   UNK N   1      22.214  14.314   8.001  0.00  0.00    -0.322 N 
ATOM      9  HN  UNK N   1      21.264  14.573   8.269  1.00  0.00     0.169 HD
HETATM   10  C   UNK N   1      22.980  13.316   8.476  0.00  0.00     0.157 A 
HETATM   11  N   UNK N   1      24.188  13.251   7.844  0.00  0.00    -0.260 N 
ATOM     12  HN  UNK N   1      24.937  12.578   8.004  1.00  0.00     0.190 HD
HETATM   13  N   UNK N   1      24.174  14.245   6.982  0.00  0.00    -0.067 N 
HETATM   14  C   UNK N   1      25.161  14.712   6.143  0.00  0.00     0.700 A 
HETATM   15  N   UNK N   1      24.945  15.890   5.460  0.00  0.00    -0.173 N 
ATOM     16  HN  UNK N   1      25.652  16.273   4.831  1.00  0.00     0.186 HD
HETATM   17  N   UNK N   1      26.399  14.039   6.043  0.00  0.00    -0.233 N 
HETATM   18  H   UNK N   1      27.017  14.247   5.305  0.00  0.00     0.174 HD
HETATM   19  H   UNK N   1      26.645  13.362   6.713  0.00  0.00     0.174 HD
ENDROOT
BRANCH   1  20
HETATM   20  C   UNK N   1      23.982  18.565   4.240  0.00  0.00     0.181 C 
BRANCH  20  21
HETATM   21  C   UNK N   1      25.183  19.105   4.988  0.00  0.00     0.294 C 
BRANCH  21  22
HETATM   22  N   UNK N   1      25.619  20.424   4.468  0.00  0.00     0.093 N 
HETATM   23  C   UNK N   1      25.959  21.255   5.625  0.00  0.00     0.292 C 
HETATM   24  C   UNK N   1      27.204  20.727   6.329  0.00  0.00     0.153 C 
HETATM   25  N   UNK N   1      27.713  19.573   5.610  0.00  0.00    -0.378 N 
HETATM   26  C   UNK N   1      28.023  19.741   4.216  0.00  0.00     0.153 C 
HETATM   27  C   UNK N   1      26.790  20.360   3.553  0.00  0.00     0.292 C 
BRANCH  25  28
HETATM   28  C   UNK N   1      28.027  18.393   6.314  0.00  0.00     0.030 C 
HETATM   29  C   UNK N   1      28.576  18.571   7.590  0.00  0.00     0.032 C 
HETATM   30  C   UNK N   1      29.754  17.935   7.914  0.00  0.00     0.039 C 
HETATM   31  C   UNK N   1      30.353  17.122   6.962  0.00  0.00     0.069 C 
HETATM   32  C   UNK N   1      29.632  16.712   5.827  0.00  0.00     0.039 C 
HETATM   33  C   UNK N   1      28.435  17.327   5.520  0.00  0.00     0.032 C 
BRANCH  31  34
HETATM   34  O   UNK N   1      31.658  16.838   7.092  0.00  0.00    -0.349 OA
BRANCH  34  35
HETATM   35  C   UNK N   1      32.265  16.842   8.325  0.00  0.00     0.201 C 
BRANCH  35  36
HETATM   36  C   UNK N   1      33.526  17.652   8.234  0.00  0.00     0.193 C 
BRANCH  36  37
HETATM   37  O   UNK N   1      34.219  17.561   9.437  0.00  0.00    -0.394 OA
HETATM   38  C   UNK N   1      34.451  16.197   9.584  0.00  0.00     0.201 C 
ENDBRANCH  36  37
ENDBRANCH  35  36
ENDBRANCH  34  35
ENDBRANCH  31  34
ENDBRANCH  25  28
ENDBRANCH  21  22
ENDBRANCH  20  21
ENDBRANCH   1  20
BRANCH  10  39
HETATM   39  C   UNK N   1      22.633  12.684   9.734  0.00  0.00     0.120 A 
HETATM   40  C   UNK N   1      21.357  12.687  10.254  0.00  0.00     0.043 A 
HETATM   41  C   UNK N   1      21.480  12.196  11.533  0.00  0.00     0.027 A 
HETATM   42  C   UNK N   1      22.830  11.938  11.719  0.00  0.00     0.142 A 
HETATM   43  O   UNK N   1      23.484  12.251  10.624  0.00  0.00    -0.319 OA
ENDBRANCH  10  39
TORSDOF 9
ENDMDL
MODEL 8
REMARK VINA RESULT:      -7.0      3.570      5.187
REMARK  9 active torsions:
REMARK  status: ('A' for Active; 'I' for Inactive)
REMARK    1  A    between atoms: O_2  and  C_3 
REMARK    2  A    between atoms: C_3  and  C_4 
REMARK    3  A    between atoms: C_4  and  O_5 
REMARK    4  A    between atoms: O_5  and  C_6 
REMARK    5  A    between atoms: C_9  and  N_12 
REMARK    6  A    between atoms: N_15  and  C_18 
REMARK    7  A    between atoms: C_18  and  C_19 
REMARK    8  A    between atoms: C_19  and  N_20 
REMARK    9  A    between atoms: C_29  and  C_37 
REMARK       I    between atoms: C_33  and  N_36 
ROOT
HETATM    1  N   UNK N   1      34.188  14.022  10.550  0.00  0.00    -0.274 N 
HETATM    2  C   UNK N   1      35.097  13.846  11.510  0.00  0.00     0.153 A 
HETATM    3  C   UNK N   1      35.511  12.566  11.464  0.00  0.00     0.073 A 
HETATM    4  C   UNK N   1      34.840  11.950  10.437  0.00  0.00     0.126 A 
HETATM    5  N   UNK N   1      34.031  12.879   9.888  0.00  0.00    -0.307 N 
ATOM      6  HN  UNK N   1      33.404  12.731   9.097  1.00  0.00     0.186 HD
HETATM    7  C   UNK N   1      36.379  12.134  12.393  0.00  0.00     0.162 A 
HETATM    8  N   UNK N   1      36.787  10.886  12.574  0.00  0.00    -0.322 N 
ATOM      9  HN  UNK N   1      36.619  10.069  11.986  1.00  0.00     0.169 HD
HETATM   10  C   UNK N   1      37.478  10.967  13.724  0.00  0.00     0.157 A 
HETATM   11  N   UNK N   1      37.524  12.243  14.207  0.00  0.00    -0.260 N 
ATOM     12  HN  UNK N   1      37.997  12.572  15.048  1.00  0.00     0.190 HD
HETATM   13  N   UNK N   1      36.824  12.955  13.350  0.00  0.00    -0.067 N 
HETATM   14  C   UNK N   1      36.458  14.282  13.383  0.00  0.00     0.700 A 
HETATM   15  N   UNK N   1      35.565  14.745  12.439  0.00  0.00    -0.173 N 
ATOM     16  HN  UNK N   1      35.264  15.720  12.429  1.00  0.00     0.186 HD
HETATM   17  N   UNK N   1      36.925  15.134  14.408  0.00  0.00    -0.233 N 
HETATM   18  H   UNK N   1      36.835  16.110  14.320  0.00  0.00     0.174 HD
HETATM   19  H   UNK N   1      37.342  14.750  15.213  0.00  0.00     0.174 HD
ENDROOT
BRANCH   1  20
HETATM   20  C   UNK N   1      33.523  15.233  10.167  0.00  0.00     0.181 C 
BRANCH  20  21
HETATM   21  C   UNK N   1      33.409  15.157   8.660  0.00  0.00     0.294 C 
BRANCH  21  22
HETATM   22  N   UNK N   1      34.435  15.983   7.978  0.00  0.00     0.093 N 
HETATM   23  C   UNK N   1      34.148  15.937   6.543  0.00  0.00     0.292 C 
HETATM   24  C   UNK N   1      32.845  16.662   6.224  0.00  0.00     0.153 C 
HETATM   25  N   UNK N   1      32.296  17.228   7.443  0.00  0.00    -0.378 N 
HETATM   26  C   UNK N   1      33.132  18.120   8.199  0.00  0.00     0.153 C 
HETATM   27  C   UNK N   1      34.466  17.403   8.423  0.00  0.00     0.292 C 
BRANCH  25  28
HETATM   28  C   UNK N   1      30.940  17.016   7.764  0.00  0.00     0.030 C 
HETATM   29  C   UNK N   1      30.079  16.814   6.677  0.00  0.00     0.032 C 
HETATM   30  C   UNK N   1      28.939  17.579   6.566  0.00  0.00     0.039 C 
HETATM   31  C   UNK N   1      28.673  18.519   7.552  0.00  0.00     0.069 C 
HETATM   32  C   UNK N   1      29.367  18.480   8.774  0.00  0.00     0.039 C 
HETATM   33  C   UNK N   1      30.491  17.689   8.895  0.00  0.00     0.032 C 
BRANCH  31  34
HETATM   34  O   UNK N   1      27.831  19.525   7.266  0.00  0.00    -0.349 OA
BRANCH  34  35
HETATM   35  C   UNK N   1      27.634  19.938   5.971  0.00  0.00     0.201 C 
BRANCH  35  36
HETATM   36  C   UNK N   1      26.429  20.833   5.933  0.00  0.00     0.193 C 
BRANCH  36  37
HETATM   37  O   UNK N   1      25.691  20.564   4.784  0.00  0.00    -0.394 OA
HETATM   38  C   UNK N   1      25.577  19.177   4.781  0.00  0.00     0.201 C 
ENDBRANCH  36  37
ENDBRANCH  35  36
ENDBRANCH  34  35
ENDBRANCH  31  34
ENDBRANCH  25  28
ENDBRANCH  21  22
ENDBRANCH  20  21
ENDBRANCH   1  20
BRANCH  10  39
HETATM   39  C   UNK N   1      37.783   9.757  14.463  0.00  0.00     0.120 A 
HETATM   40  C   UNK N   1      39.065   9.291  14.652  0.00  0.00     0.043 A 
HETATM   41  C   UNK N   1      38.923   8.034  15.193  0.00  0.00     0.027 A 
HETATM   42  C   UNK N   1      37.559   7.806  15.286  0.00  0.00     0.142 A 
HETATM   43  O   UNK N   1      36.914   8.856  14.832  0.00  0.00    -0.319 OA
ENDBRANCH  10  39
TORSDOF 9
ENDMDL
MODEL 9
REMARK VINA RESULT:      -7.0      3.616      8.713
REMARK  9 active torsions:
REMARK  status: ('A' for Active; 'I' for Inactive)
REMARK    1  A    between atoms: O_2  and  C_3 
REMARK    2  A    between atoms: C_3  and  C_4 
REMARK    3  A    between atoms: C_4  and  O_5 
REMARK    4  A    between atoms: O_5  and  C_6 
REMARK    5  A    between atoms: C_9  and  N_12 
REMARK    6  A    between atoms: N_15  and  C_18 
REMARK    7  A    between atoms: C_18  and  C_19 
REMARK    8  A    between atoms: C_19  and  N_20 
REMARK    9  A    between atoms: C_29  and  C_37 
REMARK       I    between atoms: C_33  and  N_36 
ROOT
HETATM    1  N   UNK N   1      33.566  17.393   7.538  0.00  0.00    -0.274 N 
HETATM    2  C   UNK N   1      32.254  17.502   7.757  0.00  0.00     0.153 A 
HETATM    3  C   UNK N   1      31.623  17.415   6.572  0.00  0.00     0.073 A 
HETATM    4  C   UNK N   1      32.582  17.238   5.605  0.00  0.00     0.126 A 
HETATM    5  N   UNK N   1      33.774  17.225   6.236  0.00  0.00    -0.307 N 
ATOM      6  HN  UNK N   1      34.684  17.105   5.789  1.00  0.00     0.186 HD
HETATM    7  C   UNK N   1      30.291  17.574   6.536  0.00  0.00     0.162 A 
HETATM    8  N   UNK N   1      29.533  17.650   5.451  0.00  0.00    -0.322 N 
ATOM      9  HN  UNK N   1      29.793  17.486   4.479  1.00  0.00     0.169 HD
HETATM   10  C   UNK N   1      28.335  17.996   5.954  0.00  0.00     0.157 A 
HETATM   11  N   UNK N   1      28.357  18.087   7.316  0.00  0.00    -0.260 N 
ATOM     12  HN  UNK N   1      27.579  18.315   7.935  1.00  0.00     0.190 HD
HETATM   13  N   UNK N   1      29.599  17.818   7.654  0.00  0.00    -0.067 N 
HETATM   14  C   UNK N   1      30.216  17.854   8.885  0.00  0.00     0.700 A 
HETATM   15  N   UNK N   1      31.584  17.695   8.943  0.00  0.00    -0.173 N 
ATOM     16  HN  UNK N   1      32.082  17.718   9.833  1.00  0.00     0.186 HD
HETATM   17  N   UNK N   1      29.474  18.125  10.055  0.00  0.00    -0.233 N 
HETATM   18  H   UNK N   1      29.866  17.950  10.942  0.00  0.00     0.174 HD
HETATM   19  H   UNK N   1      28.562  18.490   9.985  0.00  0.00     0.174 HD
ENDROOT
BRANCH   1  20
HETATM   20  C   UNK N   1      34.627  17.352   8.501  0.00  0.00     0.181 C 
BRANCH  20  21
HETATM   21  C   UNK N   1      34.631  15.929   9.018  0.00  0.00     0.294 C 
BRANCH  21  22
HETATM   22  N   UNK N   1      34.956  15.860  10.463  0.00  0.00     0.093 N 
HETATM   23  C   UNK N   1      34.277  14.681  11.005  0.00  0.00     0.292 C 
HETATM   24  C   UNK N   1      34.883  13.398  10.447  0.00  0.00     0.153 C 
HETATM   25  N   UNK N   1      35.994  13.729   9.572  0.00  0.00    -0.378 N 
HETATM   26  C   UNK N   1      37.057  14.526  10.119  0.00  0.00     0.153 C 
HETATM   27  C   UNK N   1      36.412  15.760  10.755  0.00  0.00     0.292 C 
BRANCH  25  28
HETATM   28  C   UNK N   1      36.073  13.146   8.291  0.00  0.00     0.030 C 
HETATM   29  C   UNK N   1      36.937  13.775   7.386  0.00  0.00     0.032 C 
HETATM   30  C   UNK N   1      36.468  14.133   6.141  0.00  0.00     0.039 C 
HETATM   31  C   UNK N   1      35.149  13.842   5.819  0.00  0.00     0.069 C 
HETATM   32  C   UNK N   1      34.411  12.941   6.606  0.00  0.00     0.039 C 
HETATM   33  C   UNK N   1      34.896  12.557   7.840  0.00  0.00     0.032 C 
BRANCH  31  34
HETATM   34  O   UNK N   1      34.569  14.525   4.820  0.00  0.00    -0.349 OA
BRANCH  34  35
HETATM   35  C   UNK N   1      34.641  14.079   3.522  0.00  0.00     0.201 C 
BRANCH  35  36
HETATM   36  C   UNK N   1      33.257  13.720   3.063  0.00  0.00     0.193 C 
BRANCH  36  37
HETATM   37  O   UNK N   1      32.510  14.882   2.899  0.00  0.00    -0.394 OA
HETATM   38  C   UNK N   1      31.268  14.557   3.435  0.00  0.00     0.201 C 
ENDBRANCH  36  37
ENDBRANCH  35  36
ENDBRANCH  34  35
ENDBRANCH  31  34
ENDBRANCH  25  28
ENDBRANCH  21  22
ENDBRANCH  20  21
ENDBRANCH   1  20
BRANCH  10  39
HETATM   39  C   UNK N   1      27.317  18.536   5.073  0.00  0.00     0.120 A 
HETATM   40  C   UNK N   1      27.539  19.601   4.228  0.00  0.00     0.043 A 
HETATM   41  C   UNK N   1      26.300  19.946   3.739  0.00  0.00     0.027 A 
HETATM   42  C   UNK N   1      25.396  19.076   4.330  0.00  0.00     0.142 A 
HETATM   43  O   UNK N   1      26.044  18.255   5.125  0.00  0.00    -0.319 OA
ENDBRANCH  10  39
TORSDOF 9
ENDMDL
