MODEL 1
REMARK VINA RESULT:      -7.1      0.000      0.000
REMARK  22 active torsions:
REMARK  status: ('A' for Active; 'I' for Inactive)
REMARK    1  A    between atoms: C_2  and  C_4 
REMARK    2  A    between atoms: C_4  and  C_5 
REMARK    3  A    between atoms: C_5  and  C_6 
REMARK    4  A    between atoms: C_5  and  N_27 
REMARK       I    between atoms: C_6  and  N_8 
REMARK    5  A    between atoms: C_9  and  N_8 
REMARK    6  A    between atoms: C_9  and  C_10 
REMARK    7  A    between atoms: C_9  and  C_15 
REMARK    8  A    between atoms: C_10  and  C_11 
REMARK    9  A    between atoms: C_11  and  C_12 
REMARK   10  A    between atoms: C_12  and  C_13 
REMARK   11  A    between atoms: C_13  and  N_14 
REMARK       I    between atoms: C_15  and  N_17 
REMARK   12  A    between atoms: C_20  and  C_23 
REMARK   13  A    between atoms: C_20  and  N_26 
REMARK   14  A    between atoms: C_23  and  O_25 
REMARK       I    between atoms: N_27  and  C_28 
REMARK   15  A    between atoms: C_28  and  C_30 
REMARK   16  A    between atoms: C_30  and  C_31 
REMARK   17  A    between atoms: C_30  and  N_38 
REMARK   18  A    between atoms: C_31  and  C_32 
REMARK       I    between atoms: N_38  and  C_39 
REMARK   19  A    between atoms: C_39  and  C_41 
REMARK   20  A    between atoms: C_41  and  C_42 
REMARK   21  A    between atoms: C_41  and  N_49 
REMARK   22  A    between atoms: C_42  and  C_43 
ROOT
HETATM    1  C   UNK N   1      21.603  16.487   6.400  0.00  0.00     0.177 C 
ENDROOT
BRANCH   1   2
HETATM    2  C   UNK N   1      21.789  15.877   7.795  0.00  0.00     0.038 C 
BRANCH   2   3
HETATM    3  C   UNK N   1      20.590  15.117   8.368  0.00  0.00    -0.020 C 
HETATM    4  C   UNK N   1      20.984  14.159   9.475  0.00  0.00     0.009 C 
HETATM    5  C   UNK N   1      19.473  16.041   8.818  0.00  0.00     0.009 C 
ENDBRANCH   2   3
ENDBRANCH   1   2
BRANCH   1   6
HETATM    6  C   UNK N   1      21.363  17.981   6.358  0.00  0.00     0.241 C 
HETATM    7  O   UNK N   1      20.797  18.536   7.286  0.00  0.00    -0.271 OA
HETATM    8  N   UNK N   1      21.805  18.720   5.311  0.00  0.00    -0.346 N 
HETATM    9  H   UNK N   1      21.584  19.679   5.270  0.00  0.00     0.163 HD
BRANCH   8  10
HETATM   10  C   UNK N   1      22.595  18.132   4.253  0.00  0.00     0.176 C 
BRANCH  10  11
HETATM   11  C   UNK N   1      21.772  17.464   3.142  0.00  0.00     0.035 C 
BRANCH  11  12
HETATM   12  C   UNK N   1      20.402  18.071   2.904  0.00  0.00     0.004 C 
BRANCH  12  13
HETATM   13  C   UNK N   1      20.355  18.720   1.533  0.00  0.00     0.019 C 
BRANCH  13  14
HETATM   14  C   UNK N   1      20.617  20.211   1.643  0.00  0.00     0.111 C 
BRANCH  14  15
HETATM   15  N   UNK N   1      20.527  20.828   0.331  0.00  0.00    -0.430 N 
HETATM   16  H   UNK N   1      21.105  21.638   0.108  0.00  0.00     0.149 HD
HETATM   17  H   UNK N   1      19.886  20.451  -0.367  0.00  0.00     0.149 HD
ENDBRANCH  14  15
ENDBRANCH  13  14
ENDBRANCH  12  13
ENDBRANCH  11  12
ENDBRANCH  10  11
BRANCH  10  18
HETATM   18  C   UNK N   1      23.707  19.049   3.817  0.00  0.00     0.242 C 
HETATM   19  O   UNK N   1      23.433  20.230   3.635  0.00  0.00    -0.271 OA
HETATM   20  N   UNK N   1      24.991  18.622   3.624  0.00  0.00    -0.350 N 
HETATM   21  C   UNK N   1      26.035  19.550   3.308  0.00  0.00     0.129 C 
HETATM   22  C   UNK N   1      25.403  17.265   3.856  0.00  0.00     0.129 C 
HETATM   23  C   UNK N   1      26.822  19.761   4.588  0.00  0.00     0.061 C 
HETATM   24  C   UNK N   1      27.198  18.468   5.357  0.00  0.00     0.113 C 
HETATM   25  C   UNK N   1      26.294  17.238   5.098  0.00  0.00     0.061 C 
BRANCH  24  26
HETATM   26  C   UNK N   1      28.631  18.074   5.113  0.00  0.00     0.169 C 
HETATM   27  O   UNK N   1      29.377  17.806   6.042  0.00  0.00    -0.648 OA
BRANCH  26  28
HETATM   28  O   UNK N   1      29.086  17.978   3.848  0.00  0.00    -0.775 OA
HETATM   29  H   UNK N   1      29.871  17.528   3.608  0.00  0.00     0.167 HD
ENDBRANCH  26  28
ENDBRANCH  24  26
BRANCH  24  30
HETATM   30  N   UNK N   1      27.067  18.787   6.768  0.00  0.00    -0.413 N 
HETATM   31  H   UNK N   1      27.360  19.422   7.510  0.00  0.00     0.151 HD
HETATM   32  H   UNK N   1      26.428  18.107   7.179  0.00  0.00     0.151 HD
ENDBRANCH  24  30
ENDBRANCH  10  18
ENDBRANCH   8  10
ENDBRANCH   1   6
BRANCH   1  33
HETATM   33  N   UNK N   1      20.840  15.626   5.507  0.00  0.00    -0.346 N 
HETATM   34  C   UNK N   1      21.225  14.429   4.988  0.00  0.00     0.241 C 
HETATM   35  O   UNK N   1      20.406  13.766   4.378  0.00  0.00    -0.271 OA
HETATM   36  H   UNK N   1      19.945  15.947   5.248  0.00  0.00     0.163 HD
BRANCH  34  37
HETATM   37  C   UNK N   1      22.622  13.906   5.171  0.00  0.00     0.180 C 
BRANCH  37  38
HETATM   38  C   UNK N   1      22.796  12.463   5.631  0.00  0.00     0.073 C 
BRANCH  38  39
HETATM   39  C   UNK N   1      23.434  12.475   6.989  0.00  0.00    -0.056 A 
HETATM   40  C   UNK N   1      23.034  11.547   7.955  0.00  0.00     0.007 A 
HETATM   41  C   UNK N   1      23.578  11.598   9.242  0.00  0.00     0.001 A 
HETATM   42  C   UNK N   1      24.515  12.581   9.573  0.00  0.00     0.000 A 
HETATM   43  C   UNK N   1      24.925  13.504   8.610  0.00  0.00     0.001 A 
HETATM   44  C   UNK N   1      24.386  13.452   7.323  0.00  0.00     0.007 A 
ENDBRANCH  38  39
ENDBRANCH  37  38
BRANCH  37  45
HETATM   45  N   UNK N   1      23.612  14.316   4.187  0.00  0.00    -0.346 N 
HETATM   46  C   UNK N   1      23.871  13.828   2.943  0.00  0.00     0.240 C 
HETATM   47  O   UNK N   1      24.869  14.225   2.366  0.00  0.00    -0.271 OA
HETATM   48  H   UNK N   1      24.184  15.067   4.464  0.00  0.00     0.163 HD
BRANCH  46  49
HETATM   49  C   UNK N   1      22.998  12.863   2.199  0.00  0.00     0.171 C 
BRANCH  49  50
HETATM   50  C   UNK N   1      22.632  13.171   0.752  0.00  0.00     0.072 C 
BRANCH  50  51
HETATM   51  C   UNK N   1      21.169  13.461   0.731  0.00  0.00    -0.056 A 
HETATM   52  C   UNK N   1      20.261  12.432   0.450  0.00  0.00     0.007 A 
HETATM   53  C   UNK N   1      18.900  12.715   0.316  0.00  0.00     0.001 A 
HETATM   54  C   UNK N   1      18.444  14.030   0.444  0.00  0.00     0.000 A 
HETATM   55  C   UNK N   1      19.349  15.061   0.722  0.00  0.00     0.001 A 
HETATM   56  C   UNK N   1      20.711  14.777   0.865  0.00  0.00     0.007 A 
ENDBRANCH  50  51
ENDBRANCH  49  50
BRANCH  49  57
HETATM   57  N   UNK N   1      23.434  11.489   2.382  0.00  0.00    -0.418 N 
HETATM   58  H   UNK N   1      23.650  11.142   3.317  0.00  0.00     0.150 HD
HETATM   59  H   UNK N   1      23.524  10.871   1.576  0.00  0.00     0.150 HD
ENDBRANCH  49  57
ENDBRANCH  46  49
ENDBRANCH  37  45
ENDBRANCH  34  37
ENDBRANCH   1  33
TORSDOF 22
ENDMDL
MODEL 2
REMARK VINA RESULT:      -7.1      2.406      4.342
REMARK  22 active torsions:
REMARK  status: ('A' for Active; 'I' for Inactive)
REMARK    1  A    between atoms: C_2  and  C_4 
REMARK    2  A    between atoms: C_4  and  C_5 
REMARK    3  A    between atoms: C_5  and  C_6 
REMARK    4  A    between atoms: C_5  and  N_27 
REMARK       I    between atoms: C_6  and  N_8 
REMARK    5  A    between atoms: C_9  and  N_8 
REMARK    6  A    between atoms: C_9  and  C_10 
REMARK    7  A    between atoms: C_9  and  C_15 
REMARK    8  A    between atoms: C_10  and  C_11 
REMARK    9  A    between atoms: C_11  and  C_12 
REMARK   10  A    between atoms: C_12  and  C_13 
REMARK   11  A    between atoms: C_13  and  N_14 
REMARK       I    between atoms: C_15  and  N_17 
REMARK   12  A    between atoms: C_20  and  C_23 
REMARK   13  A    between atoms: C_20  and  N_26 
REMARK   14  A    between atoms: C_23  and  O_25 
REMARK       I    between atoms: N_27  and  C_28 
REMARK   15  A    between atoms: C_28  and  C_30 
REMARK   16  A    between atoms: C_30  and  C_31 
REMARK   17  A    between atoms: C_30  and  N_38 
REMARK   18  A    between atoms: C_31  and  C_32 
REMARK       I    between atoms: N_38  and  C_39 
REMARK   19  A    between atoms: C_39  and  C_41 
REMARK   20  A    between atoms: C_41  and  C_42 
REMARK   21  A    between atoms: C_41  and  N_49 
REMARK   22  A    between atoms: C_42  and  C_43 
ROOT
HETATM    1  C   UNK N   1      23.000  15.465   6.542  0.00  0.00     0.177 C 
ENDROOT
BRANCH   1   2
HETATM    2  C   UNK N   1      24.462  15.187   6.913  0.00  0.00     0.038 C 
BRANCH   2   3
HETATM    3  C   UNK N   1      24.845  13.716   7.101  0.00  0.00    -0.020 C 
HETATM    4  C   UNK N   1      26.023  13.308   6.237  0.00  0.00     0.009 C 
HETATM    5  C   UNK N   1      25.084  13.355   8.555  0.00  0.00     0.009 C 
ENDBRANCH   2   3
ENDBRANCH   1   2
BRANCH   1   6
HETATM    6  C   UNK N   1      22.664  16.905   6.213  0.00  0.00     0.241 C 
HETATM    7  O   UNK N   1      21.670  17.425   6.694  0.00  0.00    -0.271 OA
HETATM    8  N   UNK N   1      23.477  17.637   5.413  0.00  0.00    -0.346 N 
HETATM    9  H   UNK N   1      23.209  18.550   5.159  0.00  0.00     0.163 HD
BRANCH   8  10
HETATM   10  C   UNK N   1      24.731  17.108   4.927  0.00  0.00     0.176 C 
BRANCH  10  11
HETATM   11  C   UNK N   1      24.610  16.249   3.660  0.00  0.00     0.035 C 
BRANCH  11  12
HETATM   12  C   UNK N   1      25.821  16.278   2.746  0.00  0.00     0.004 C 
BRANCH  12  13
HETATM   13  C   UNK N   1      26.055  14.900   2.154  0.00  0.00     0.019 C 
BRANCH  13  14
HETATM   14  C   UNK N   1      27.387  14.341   2.619  0.00  0.00     0.111 C 
BRANCH  14  15
HETATM   15  N   UNK N   1      28.434  15.329   2.425  0.00  0.00    -0.430 N 
HETATM   16  H   UNK N   1      29.304  15.260   2.953  0.00  0.00     0.149 HD
HETATM   17  H   UNK N   1      28.300  16.090   1.761  0.00  0.00     0.149 HD
ENDBRANCH  14  15
ENDBRANCH  13  14
ENDBRANCH  12  13
ENDBRANCH  11  12
ENDBRANCH  10  11
BRANCH  10  18
HETATM   18  C   UNK N   1      25.815  18.155   4.938  0.00  0.00     0.242 C 
HETATM   19  O   UNK N   1      25.524  19.278   4.544  0.00  0.00    -0.271 OA
HETATM   20  N   UNK N   1      27.088  17.903   5.365  0.00  0.00    -0.350 N 
HETATM   21  C   UNK N   1      28.056  18.954   5.451  0.00  0.00     0.129 C 
HETATM   22  C   UNK N   1      27.499  16.625   5.878  0.00  0.00     0.129 C 
HETATM   23  C   UNK N   1      28.163  19.318   6.920  0.00  0.00     0.061 C 
HETATM   24  C   UNK N   1      28.296  18.118   7.893  0.00  0.00     0.113 C 
HETATM   25  C   UNK N   1      27.740  16.765   7.381  0.00  0.00     0.061 C 
BRANCH  24  26
HETATM   26  C   UNK N   1      29.720  17.917   8.337  0.00  0.00     0.169 C 
HETATM   27  O   UNK N   1      30.566  17.490   7.566  0.00  0.00    -0.648 OA
BRANCH  26  28
HETATM   28  O   UNK N   1      30.077  18.252   9.594  0.00  0.00    -0.775 OA
HETATM   29  H   UNK N   1      29.747  17.827  10.361  0.00  0.00     0.167 HD
ENDBRANCH  26  28
ENDBRANCH  24  26
BRANCH  24  30
HETATM   30  N   UNK N   1      27.517  18.465   9.069  0.00  0.00    -0.413 N 
HETATM   31  H   UNK N   1      27.239  18.166  10.003  0.00  0.00     0.151 HD
HETATM   32  H   UNK N   1      27.072  19.364   8.888  0.00  0.00     0.151 HD
ENDBRANCH  24  30
ENDBRANCH  10  18
ENDBRANCH   8  10
ENDBRANCH   1   6
BRANCH   1  33
HETATM   33  N   UNK N   1      22.060  14.686   7.335  0.00  0.00    -0.346 N 
HETATM   34  C   UNK N   1      20.983  13.987   6.885  0.00  0.00     0.241 C 
HETATM   35  O   UNK N   1      20.388  13.266   7.664  0.00  0.00    -0.271 OA
HETATM   36  H   UNK N   1      22.220  14.663   8.307  0.00  0.00     0.163 HD
BRANCH  34  37
HETATM   37  C   UNK N   1      20.534  14.071   5.454  0.00  0.00     0.180 C 
BRANCH  37  38
HETATM   38  C   UNK N   1      20.217  12.774   4.720  0.00  0.00     0.073 C 
BRANCH  38  39
HETATM   39  C   UNK N   1      21.513  12.122   4.334  0.00  0.00    -0.056 A 
HETATM   40  C   UNK N   1      22.656  12.903   4.141  0.00  0.00     0.007 A 
HETATM   41  C   UNK N   1      23.847  12.307   3.717  0.00  0.00     0.001 A 
HETATM   42  C   UNK N   1      23.900  10.932   3.474  0.00  0.00     0.000 A 
HETATM   43  C   UNK N   1      22.764  10.146   3.674  0.00  0.00     0.001 A 
HETATM   44  C   UNK N   1      21.575  10.738   4.103  0.00  0.00     0.007 A 
ENDBRANCH  38  39
ENDBRANCH  37  38
BRANCH  37  45
HETATM   45  N   UNK N   1      19.628  15.158   5.112  0.00  0.00    -0.346 N 
HETATM   46  C   UNK N   1      19.682  16.063   4.097  0.00  0.00     0.240 C 
HETATM   47  O   UNK N   1      18.893  16.992   4.113  0.00  0.00    -0.271 OA
HETATM   48  H   UNK N   1      18.851  15.251   5.709  0.00  0.00     0.163 HD
BRANCH  46  49
HETATM   49  C   UNK N   1      20.614  15.986   2.926  0.00  0.00     0.171 C 
BRANCH  49  50
HETATM   50  C   UNK N   1      20.086  15.447   1.602  0.00  0.00     0.072 C 
BRANCH  50  51
HETATM   51  C   UNK N   1      20.968  14.305   1.220  0.00  0.00    -0.056 A 
HETATM   52  C   UNK N   1      22.315  14.541   0.917  0.00  0.00     0.007 A 
HETATM   53  C   UNK N   1      23.121  13.500   0.449  0.00  0.00     0.001 A 
HETATM   54  C   UNK N   1      22.578  12.225   0.266  0.00  0.00     0.000 A 
HETATM   55  C   UNK N   1      21.232  11.988   0.567  0.00  0.00     0.001 A 
HETATM   56  C   UNK N   1      20.427  13.027   1.042  0.00  0.00     0.007 A 
ENDBRANCH  50  51
ENDBRANCH  49  50
BRANCH  49  57
HETATM   57  N   UNK N   1      21.376  17.213   2.762  0.00  0.00    -0.418 N 
HETATM   58  H   UNK N   1      22.395  17.178   2.715  0.00  0.00     0.150 HD
HETATM   59  H   UNK N   1      20.893  18.108   2.694  0.00  0.00     0.150 HD
ENDBRANCH  49  57
ENDBRANCH  46  49
ENDBRANCH  37  45
ENDBRANCH  34  37
ENDBRANCH   1  33
TORSDOF 22
ENDMDL
MODEL 3
REMARK VINA RESULT:      -7.1      2.942      7.731
REMARK  22 active torsions:
REMARK  status: ('A' for Active; 'I' for Inactive)
REMARK    1  A    between atoms: C_2  and  C_4 
REMARK    2  A    between atoms: C_4  and  C_5 
REMARK    3  A    between atoms: C_5  and  C_6 
REMARK    4  A    between atoms: C_5  and  N_27 
REMARK       I    between atoms: C_6  and  N_8 
REMARK    5  A    between atoms: C_9  and  N_8 
REMARK    6  A    between atoms: C_9  and  C_10 
REMARK    7  A    between atoms: C_9  and  C_15 
REMARK    8  A    between atoms: C_10  and  C_11 
REMARK    9  A    between atoms: C_11  and  C_12 
REMARK   10  A    between atoms: C_12  and  C_13 
REMARK   11  A    between atoms: C_13  and  N_14 
REMARK       I    between atoms: C_15  and  N_17 
REMARK   12  A    between atoms: C_20  and  C_23 
REMARK   13  A    between atoms: C_20  and  N_26 
REMARK   14  A    between atoms: C_23  and  O_25 
REMARK       I    between atoms: N_27  and  C_28 
REMARK   15  A    between atoms: C_28  and  C_30 
REMARK   16  A    between atoms: C_30  and  C_31 
REMARK   17  A    between atoms: C_30  and  N_38 
REMARK   18  A    between atoms: C_31  and  C_32 
REMARK       I    between atoms: N_38  and  C_39 
REMARK   19  A    between atoms: C_39  and  C_41 
REMARK   20  A    between atoms: C_41  and  C_42 
REMARK   21  A    between atoms: C_41  and  N_49 
REMARK   22  A    between atoms: C_42  and  C_43 
ROOT
HETATM    1  C   UNK N   1      24.657  16.886   4.813  0.00  0.00     0.177 C 
ENDROOT
BRANCH   1   2
HETATM    2  C   UNK N   1      23.865  18.193   4.940  0.00  0.00     0.038 C 
BRANCH   2   3
HETATM    3  C   UNK N   1      23.658  18.987   3.648  0.00  0.00    -0.020 C 
HETATM    4  C   UNK N   1      22.222  19.443   3.470  0.00  0.00     0.009 C 
HETATM    5  C   UNK N   1      24.620  20.153   3.518  0.00  0.00     0.009 C 
ENDBRANCH   2   3
ENDBRANCH   1   2
BRANCH   1   6
HETATM    6  C   UNK N   1      24.434  16.098   3.539  0.00  0.00     0.241 C 
HETATM    7  O   UNK N   1      25.319  16.025   2.703  0.00  0.00    -0.271 OA
HETATM    8  N   UNK N   1      23.268  15.438   3.333  0.00  0.00    -0.346 N 
HETATM    9  H   UNK N   1      23.116  14.984   2.471  0.00  0.00     0.163 HD
BRANCH   8  10
HETATM   10  C   UNK N   1      22.241  15.385   4.349  0.00  0.00     0.176 C 
BRANCH  10  11
HETATM   11  C   UNK N   1      20.992  16.221   4.035  0.00  0.00     0.035 C 
BRANCH  11  12
HETATM   12  C   UNK N   1      19.845  15.449   3.409  0.00  0.00     0.004 C 
BRANCH  12  13
HETATM   13  C   UNK N   1      20.005  15.417   1.901  0.00  0.00     0.019 C 
BRANCH  13  14
HETATM   14  C   UNK N   1      20.352  16.798   1.374  0.00  0.00     0.111 C 
BRANCH  14  15
HETATM   15  N   UNK N   1      19.137  17.541   1.094  0.00  0.00    -0.430 N 
HETATM   16  H   UNK N   1      18.229  17.081   1.168  0.00  0.00     0.149 HD
HETATM   17  H   UNK N   1      19.190  18.523   0.824  0.00  0.00     0.149 HD
ENDBRANCH  14  15
ENDBRANCH  13  14
ENDBRANCH  12  13
ENDBRANCH  11  12
ENDBRANCH  10  11
BRANCH  10  18
HETATM   18  C   UNK N   1      22.014  13.976   4.832  0.00  0.00     0.242 C 
HETATM   19  O   UNK N   1      22.407  13.060   4.119  0.00  0.00    -0.271 OA
HETATM   20  N   UNK N   1      21.398  13.687   6.017  0.00  0.00    -0.350 N 
HETATM   21  C   UNK N   1      21.294  12.337   6.481  0.00  0.00     0.129 C 
HETATM   22  C   UNK N   1      20.945  14.703   6.927  0.00  0.00     0.129 C 
HETATM   23  C   UNK N   1      22.350  12.171   7.558  0.00  0.00     0.061 C 
HETATM   24  C   UNK N   1      22.406  13.307   8.613  0.00  0.00     0.113 C 
HETATM   25  C   UNK N   1      21.846  14.679   8.162  0.00  0.00     0.061 C 
BRANCH  24  26
HETATM   26  C   UNK N   1      21.729  12.906   9.896  0.00  0.00     0.169 C 
HETATM   27  O   UNK N   1      20.513  12.816   9.964  0.00  0.00    -0.648 OA
BRANCH  26  28
HETATM   28  O   UNK N   1      22.478  12.605  10.976  0.00  0.00    -0.775 OA
HETATM   29  H   UNK N   1      23.134  13.171  11.331  0.00  0.00     0.167 HD
ENDBRANCH  26  28
ENDBRANCH  24  26
BRANCH  24  30
HETATM   30  N   UNK N   1      23.813  13.513   8.907  0.00  0.00    -0.413 N 
HETATM   31  H   UNK N   1      24.537  14.212   9.070  0.00  0.00     0.151 HD
HETATM   32  H   UNK N   1      24.250  12.594   8.982  0.00  0.00     0.151 HD
ENDBRANCH  24  30
ENDBRANCH  10  18
ENDBRANCH   8  10
ENDBRANCH   1   6
BRANCH   1  33
HETATM   33  N   UNK N   1      24.764  16.168   6.075  0.00  0.00    -0.346 N 
HETATM   34  C   UNK N   1      25.876  15.585   6.600  0.00  0.00     0.241 C 
HETATM   35  O   UNK N   1      25.828  15.155   7.738  0.00  0.00    -0.271 OA
HETATM   36  H   UNK N   1      23.939  16.095   6.609  0.00  0.00     0.163 HD
BRANCH  34  37
HETATM   37  C   UNK N   1      27.154  15.483   5.817  0.00  0.00     0.180 C 
BRANCH  37  38
HETATM   38  C   UNK N   1      28.353  16.297   6.286  0.00  0.00     0.073 C 
BRANCH  38  39
HETATM   39  C   UNK N   1      28.095  17.742   5.973  0.00  0.00    -0.056 A 
HETATM   40  C   UNK N   1      28.146  18.187   4.649  0.00  0.00     0.007 A 
HETATM   41  C   UNK N   1      27.972  19.544   4.360  0.00  0.00     0.001 A 
HETATM   42  C   UNK N   1      27.756  20.463   5.392  0.00  0.00     0.000 A 
HETATM   43  C   UNK N   1      27.695  20.022   6.714  0.00  0.00     0.001 A 
HETATM   44  C   UNK N   1      27.864  18.666   7.004  0.00  0.00     0.007 A 
ENDBRANCH  38  39
ENDBRANCH  37  38
BRANCH  37  45
HETATM   45  N   UNK N   1      27.517  14.165   5.319  0.00  0.00    -0.346 N 
HETATM   46  C   UNK N   1      28.128  13.799   4.159  0.00  0.00     0.240 C 
HETATM   47  O   UNK N   1      28.175  12.612   3.884  0.00  0.00    -0.271 OA
HETATM   48  H   UNK N   1      27.285  13.419   5.918  0.00  0.00     0.163 HD
BRANCH  46  49
HETATM   49  C   UNK N   1      28.791  14.743   3.203  0.00  0.00     0.171 C 
BRANCH  49  50
HETATM   50  C   UNK N   1      30.265  14.538   2.875  0.00  0.00     0.072 C 
BRANCH  50  51
HETATM   51  C   UNK N   1      31.035  15.463   3.757  0.00  0.00    -0.056 A 
HETATM   52  C   UNK N   1      31.419  15.042   5.037  0.00  0.00     0.007 A 
HETATM   53  C   UNK N   1      32.039  15.937   5.912  0.00  0.00     0.001 A 
HETATM   54  C   UNK N   1      32.262  17.259   5.518  0.00  0.00     0.000 A 
HETATM   55  C   UNK N   1      31.878  17.682   4.240  0.00  0.00     0.001 A 
HETATM   56  C   UNK N   1      31.263  16.786   3.361  0.00  0.00     0.007 A 
ENDBRANCH  50  51
ENDBRANCH  49  50
BRANCH  49  57
HETATM   57  N   UNK N   1      27.983  14.965   2.016  0.00  0.00    -0.418 N 
HETATM   58  H   UNK N   1      26.983  15.150   2.106  0.00  0.00     0.150 HD
HETATM   59  H   UNK N   1      28.414  14.937   1.092  0.00  0.00     0.150 HD
ENDBRANCH  49  57
ENDBRANCH  46  49
ENDBRANCH  37  45
ENDBRANCH  34  37
ENDBRANCH   1  33
TORSDOF 22
ENDMDL
MODEL 4
REMARK VINA RESULT:      -6.9      3.077      8.716
REMARK  22 active torsions:
REMARK  status: ('A' for Active; 'I' for Inactive)
REMARK    1  A    between atoms: C_2  and  C_4 
REMARK    2  A    between atoms: C_4  and  C_5 
REMARK    3  A    between atoms: C_5  and  C_6 
REMARK    4  A    between atoms: C_5  and  N_27 
REMARK       I    between atoms: C_6  and  N_8 
REMARK    5  A    between atoms: C_9  and  N_8 
REMARK    6  A    between atoms: C_9  and  C_10 
REMARK    7  A    between atoms: C_9  and  C_15 
REMARK    8  A    between atoms: C_10  and  C_11 
REMARK    9  A    between atoms: C_11  and  C_12 
REMARK   10  A    between atoms: C_12  and  C_13 
REMARK   11  A    between atoms: C_13  and  N_14 
REMARK       I    between atoms: C_15  and  N_17 
REMARK   12  A    between atoms: C_20  and  C_23 
REMARK   13  A    between atoms: C_20  and  N_26 
REMARK   14  A    between atoms: C_23  and  O_25 
REMARK       I    between atoms: N_27  and  C_28 
REMARK   15  A    between atoms: C_28  and  C_30 
REMARK   16  A    between atoms: C_30  and  C_31 
REMARK   17  A    between atoms: C_30  and  N_38 
REMARK   18  A    between atoms: C_31  and  C_32 
REMARK       I    between atoms: N_38  and  C_39 
REMARK   19  A    between atoms: C_39  and  C_41 
REMARK   20  A    between atoms: C_41  and  C_42 
REMARK   21  A    between atoms: C_41  and  N_49 
REMARK   22  A    between atoms: C_42  and  C_43 
ROOT
HETATM    1  C   UNK N   1      26.138  17.742   4.957  0.00  0.00     0.177 C 
ENDROOT
BRANCH   1   2
HETATM    2  C   UNK N   1      25.935  19.205   5.369  0.00  0.00     0.038 C 
BRANCH   2   3
HETATM    3  C   UNK N   1      26.960  20.208   4.833  0.00  0.00    -0.020 C 
HETATM    4  C   UNK N   1      26.680  20.613   3.398  0.00  0.00     0.009 C 
HETATM    5  C   UNK N   1      27.109  21.426   5.724  0.00  0.00     0.009 C 
ENDBRANCH   2   3
ENDBRANCH   1   2
BRANCH   1   6
HETATM    6  C   UNK N   1      25.470  17.320   3.665  0.00  0.00     0.241 C 
HETATM    7  O   UNK N   1      26.148  17.022   2.695  0.00  0.00    -0.271 OA
HETATM    8  N   UNK N   1      24.119  17.235   3.583  0.00  0.00    -0.346 N 
HETATM    9  H   UNK N   1      23.700  17.022   2.717  0.00  0.00     0.163 HD
BRANCH   8  10
HETATM   10  C   UNK N   1      23.279  17.450   4.740  0.00  0.00     0.176 C 
BRANCH  10  11
HETATM   11  C   UNK N   1      22.179  18.502   4.540  0.00  0.00     0.035 C 
BRANCH  11  12
HETATM   12  C   UNK N   1      22.394  19.442   3.367  0.00  0.00     0.004 C 
BRANCH  12  13
HETATM   13  C   UNK N   1      21.123  20.223   3.090  0.00  0.00     0.019 C 
BRANCH  13  14
HETATM   14  C   UNK N   1      20.797  20.197   1.608  0.00  0.00     0.111 C 
BRANCH  14  15
HETATM   15  N   UNK N   1      20.292  18.888   1.233  0.00  0.00    -0.430 N 
HETATM   16  H   UNK N   1      20.129  18.180   1.950  0.00  0.00     0.149 HD
HETATM   17  H   UNK N   1      20.098  18.677   0.255  0.00  0.00     0.149 HD
ENDBRANCH  14  15
ENDBRANCH  13  14
ENDBRANCH  12  13
ENDBRANCH  11  12
ENDBRANCH  10  11
BRANCH  10  18
HETATM   18  C   UNK N   1      22.867  16.147   5.374  0.00  0.00     0.242 C 
HETATM   19  O   UNK N   1      23.214  15.943   6.532  0.00  0.00    -0.271 OA
HETATM   20  N   UNK N   1      22.132  15.200   4.718  0.00  0.00    -0.350 N 
HETATM   21  C   UNK N   1      21.679  14.022   5.393  0.00  0.00     0.129 C 
HETATM   22  C   UNK N   1      21.653  15.380   3.375  0.00  0.00     0.129 C 
HETATM   23  C   UNK N   1      20.209  14.242   5.699  0.00  0.00     0.061 C 
HETATM   24  C   UNK N   1      19.360  14.783   4.519  0.00  0.00     0.113 C 
HETATM   25  C   UNK N   1      20.135  15.558   3.425  0.00  0.00     0.061 C 
BRANCH  24  26
HETATM   26  C   UNK N   1      18.562  13.689   3.862  0.00  0.00     0.169 C 
HETATM   27  O   UNK N   1      17.960  12.861   4.528  0.00  0.00    -0.648 OA
BRANCH  26  28
HETATM   28  O   UNK N   1      18.478  13.645   2.517  0.00  0.00    -0.775 OA
HETATM   29  H   UNK N   1      18.699  14.362   1.956  0.00  0.00     0.167 HD
ENDBRANCH  26  28
ENDBRANCH  24  26
BRANCH  24  30
HETATM   30  N   UNK N   1      18.417  15.723   5.100  0.00  0.00    -0.413 N 
HETATM   31  H   UNK N   1      17.680  16.397   4.897  0.00  0.00     0.151 HD
HETATM   32  H   UNK N   1      18.542  15.698   6.111  0.00  0.00     0.151 HD
ENDBRANCH  24  30
ENDBRANCH  10  18
ENDBRANCH   8  10
ENDBRANCH   1   6
BRANCH   1  33
HETATM   33  N   UNK N   1      26.116  16.828   6.091  0.00  0.00    -0.346 N 
HETATM   34  C   UNK N   1      27.157  16.495   6.900  0.00  0.00     0.241 C 
HETATM   35  O   UNK N   1      26.933  15.832   7.896  0.00  0.00    -0.271 OA
HETATM   36  H   UNK N   1      25.251  16.404   6.294  0.00  0.00     0.163 HD
BRANCH  34  37
HETATM   37  C   UNK N   1      28.560  16.943   6.602  0.00  0.00     0.180 C 
BRANCH  37  38
HETATM   38  C   UNK N   1      28.950  17.168   5.146  0.00  0.00     0.073 C 
BRANCH  38  39
HETATM   39  C   UNK N   1      29.361  15.849   4.559  0.00  0.00    -0.056 A 
HETATM   40  C   UNK N   1      29.318  15.660   3.174  0.00  0.00     0.007 A 
HETATM   41  C   UNK N   1      29.637  14.412   2.629  0.00  0.00     0.001 A 
HETATM   42  C   UNK N   1      29.989  13.347   3.463  0.00  0.00     0.000 A 
HETATM   43  C   UNK N   1      30.041  13.534   4.845  0.00  0.00     0.001 A 
HETATM   44  C   UNK N   1      29.729  14.781   5.391  0.00  0.00     0.007 A 
ENDBRANCH  38  39
ENDBRANCH  37  38
BRANCH  37  45
HETATM   45  N   UNK N   1      29.145  17.920   7.508  0.00  0.00    -0.346 N 
HETATM   46  C   UNK N   1      30.352  17.927   8.135  0.00  0.00     0.240 C 
HETATM   47  O   UNK N   1      30.554  18.776   8.986  0.00  0.00    -0.271 OA
HETATM   48  H   UNK N   1      28.576  18.702   7.696  0.00  0.00     0.163 HD
BRANCH  46  49
HETATM   49  C   UNK N   1      31.483  16.991   7.831  0.00  0.00     0.171 C 
BRANCH  49  50
HETATM   50  C   UNK N   1      32.725  17.542   7.140  0.00  0.00     0.072 C 
BRANCH  50  51
HETATM   51  C   UNK N   1      32.786  16.903   5.793  0.00  0.00    -0.056 A 
HETATM   52  C   UNK N   1      33.223  15.577   5.673  0.00  0.00     0.007 A 
HETATM   53  C   UNK N   1      33.392  15.007   4.409  0.00  0.00     0.001 A 
HETATM   54  C   UNK N   1      33.142  15.765   3.261  0.00  0.00     0.000 A 
HETATM   55  C   UNK N   1      32.707  17.089   3.379  0.00  0.00     0.001 A 
HETATM   56  C   UNK N   1      32.530  17.659   4.643  0.00  0.00     0.007 A 
ENDBRANCH  50  51
ENDBRANCH  49  50
BRANCH  49  57
HETATM   57  N   UNK N   1      31.808  16.150   8.971  0.00  0.00    -0.418 N 
HETATM   58  H   UNK N   1      31.434  16.374   9.893  0.00  0.00     0.150 HD
HETATM   59  H   UNK N   1      32.410  15.335   8.849  0.00  0.00     0.150 HD
ENDBRANCH  49  57
ENDBRANCH  46  49
ENDBRANCH  37  45
ENDBRANCH  34  37
ENDBRANCH   1  33
TORSDOF 22
ENDMDL
MODEL 5
REMARK VINA RESULT:      -6.8      3.131      8.686
REMARK  22 active torsions:
REMARK  status: ('A' for Active; 'I' for Inactive)
REMARK    1  A    between atoms: C_2  and  C_4 
REMARK    2  A    between atoms: C_4  and  C_5 
REMARK    3  A    between atoms: C_5  and  C_6 
REMARK    4  A    between atoms: C_5  and  N_27 
REMARK       I    between atoms: C_6  and  N_8 
REMARK    5  A    between atoms: C_9  and  N_8 
REMARK    6  A    between atoms: C_9  and  C_10 
REMARK    7  A    between atoms: C_9  and  C_15 
REMARK    8  A    between atoms: C_10  and  C_11 
REMARK    9  A    between atoms: C_11  and  C_12 
REMARK   10  A    between atoms: C_12  and  C_13 
REMARK   11  A    between atoms: C_13  and  N_14 
REMARK       I    between atoms: C_15  and  N_17 
REMARK   12  A    between atoms: C_20  and  C_23 
REMARK   13  A    between atoms: C_20  and  N_26 
REMARK   14  A    between atoms: C_23  and  O_25 
REMARK       I    between atoms: N_27  and  C_28 
REMARK   15  A    between atoms: C_28  and  C_30 
REMARK   16  A    between atoms: C_30  and  C_31 
REMARK   17  A    between atoms: C_30  and  N_38 
REMARK   18  A    between atoms: C_31  and  C_32 
REMARK       I    between atoms: N_38  and  C_39 
REMARK   19  A    between atoms: C_39  and  C_41 
REMARK   20  A    between atoms: C_41  and  C_42 
REMARK   21  A    between atoms: C_41  and  N_49 
REMARK   22  A    between atoms: C_42  and  C_43 
ROOT
HETATM    1  C   UNK N   1      25.143  16.649   4.214  0.00  0.00     0.177 C 
ENDROOT
BRANCH   1   2
HETATM    2  C   UNK N   1      24.480  18.026   4.343  0.00  0.00     0.038 C 
BRANCH   2   3
HETATM    3  C   UNK N   1      24.943  19.096   3.350  0.00  0.00    -0.020 C 
HETATM    4  C   UNK N   1      23.969  20.254   3.248  0.00  0.00     0.009 C 
HETATM    5  C   UNK N   1      26.349  19.589   3.635  0.00  0.00     0.009 C 
ENDBRANCH   2   3
ENDBRANCH   1   2
BRANCH   1   6
HETATM    6  C   UNK N   1      24.701  15.809   3.034  0.00  0.00     0.241 C 
HETATM    7  O   UNK N   1      25.442  15.665   2.075  0.00  0.00    -0.271 OA
HETATM    8  N   UNK N   1      23.499  15.182   3.046  0.00  0.00    -0.346 N 
HETATM    9  H   UNK N   1      23.202  14.693   2.244  0.00  0.00     0.163 HD
BRANCH   8  10
HETATM   10  C   UNK N   1      22.644  15.214   4.211  0.00  0.00     0.176 C 
BRANCH  10  11
HETATM   11  C   UNK N   1      21.407  16.112   4.067  0.00  0.00     0.035 C 
BRANCH  11  12
HETATM   12  C   UNK N   1      21.122  16.591   2.655  0.00  0.00     0.004 C 
BRANCH  12  13
HETATM   13  C   UNK N   1      21.075  18.107   2.624  0.00  0.00     0.019 C 
BRANCH  13  14
HETATM   14  C   UNK N   1      19.726  18.606   3.109  0.00  0.00     0.111 C 
BRANCH  14  15
HETATM   15  N   UNK N   1      18.707  18.327   2.113  0.00  0.00    -0.430 N 
HETATM   16  H   UNK N   1      17.953  18.996   1.953  0.00  0.00     0.149 HD
HETATM   17  H   UNK N   1      18.744  17.463   1.573  0.00  0.00     0.149 HD
ENDBRANCH  14  15
ENDBRANCH  13  14
ENDBRANCH  12  13
ENDBRANCH  11  12
ENDBRANCH  10  11
BRANCH  10  18
HETATM   18  C   UNK N   1      22.422  13.834   4.772  0.00  0.00     0.242 C 
HETATM   19  O   UNK N   1      22.580  12.881   4.017  0.00  0.00    -0.271 OA
HETATM   20  N   UNK N   1      22.060  13.608   6.070  0.00  0.00    -0.350 N 
HETATM   21  C   UNK N   1      21.958  12.276   6.584  0.00  0.00     0.129 C 
HETATM   22  C   UNK N   1      21.895  14.667   7.028  0.00  0.00     0.129 C 
HETATM   23  C   UNK N   1      23.209  12.038   7.410  0.00  0.00     0.061 C 
HETATM   24  C   UNK N   1      23.580  13.177   8.394  0.00  0.00     0.113 C 
HETATM   25  C   UNK N   1      23.040  14.585   8.038  0.00  0.00     0.061 C 
BRANCH  24  26
HETATM   26  C   UNK N   1      23.171  12.847   9.805  0.00  0.00     0.169 C 
HETATM   27  O   UNK N   1      23.901  12.196  10.536  0.00  0.00    -0.648 OA
BRANCH  26  28
HETATM   28  O   UNK N   1      21.998  13.311  10.281  0.00  0.00    -0.775 OA
HETATM   29  H   UNK N   1      21.219  12.794  10.345  0.00  0.00     0.167 HD
ENDBRANCH  26  28
ENDBRANCH  24  26
BRANCH  24  30
HETATM   30  N   UNK N   1      25.029  13.274   8.371  0.00  0.00    -0.413 N 
HETATM   31  H   UNK N   1      25.849  13.356   7.771  0.00  0.00     0.151 HD
HETATM   32  H   UNK N   1      25.355  13.249   9.337  0.00  0.00     0.151 HD
ENDBRANCH  24  30
ENDBRANCH  10  18
ENDBRANCH   8  10
ENDBRANCH   1   6
BRANCH   1  33
HETATM   33  N   UNK N   1      25.349  16.000   5.502  0.00  0.00    -0.346 N 
HETATM   34  C   UNK N   1      26.461  16.053   6.283  0.00  0.00     0.241 C 
HETATM   35  O   UNK N   1      26.412  15.577   7.402  0.00  0.00    -0.271 OA
HETATM   36  H   UNK N   1      24.598  15.462   5.845  0.00  0.00     0.163 HD
BRANCH  34  37
HETATM   37  C   UNK N   1      27.728  16.702   5.803  0.00  0.00     0.180 C 
BRANCH  37  38
HETATM   38  C   UNK N   1      28.312  16.246   4.471  0.00  0.00     0.073 C 
BRANCH  38  39
HETATM   39  C   UNK N   1      29.808  16.263   4.581  0.00  0.00    -0.056 A 
HETATM   40  C   UNK N   1      30.494  17.481   4.557  0.00  0.00     0.007 A 
HETATM   41  C   UNK N   1      31.892  17.497   4.592  0.00  0.00     0.001 A 
HETATM   42  C   UNK N   1      32.610  16.298   4.640  0.00  0.00     0.000 A 
HETATM   43  C   UNK N   1      31.930  15.080   4.673  0.00  0.00     0.001 A 
HETATM   44  C   UNK N   1      30.534  15.063   4.644  0.00  0.00     0.007 A 
ENDBRANCH  38  39
ENDBRANCH  37  38
BRANCH  37  45
HETATM   45  N   UNK N   1      27.858  18.135   6.023  0.00  0.00    -0.346 N 
HETATM   46  C   UNK N   1      28.191  18.826   7.147  0.00  0.00     0.240 C 
HETATM   47  O   UNK N   1      28.069  20.039   7.132  0.00  0.00    -0.271 OA
HETATM   48  H   UNK N   1      27.677  18.693   5.232  0.00  0.00     0.163 HD
BRANCH  46  49
HETATM   49  C   UNK N   1      28.742  18.216   8.400  0.00  0.00     0.171 C 
BRANCH  49  50
HETATM   50  C   UNK N   1      30.024  18.788   8.992  0.00  0.00     0.072 C 
BRANCH  50  51
HETATM   51  C   UNK N   1      31.131  17.873   8.588  0.00  0.00    -0.056 A 
HETATM   52  C   UNK N   1      30.901  16.492   8.523  0.00  0.00     0.007 A 
HETATM   53  C   UNK N   1      31.957  15.618   8.258  0.00  0.00     0.001 A 
HETATM   54  C   UNK N   1      33.249  16.118   8.073  0.00  0.00     0.000 A 
HETATM   55  C   UNK N   1      33.482  17.496   8.139  0.00  0.00     0.001 A 
HETATM   56  C   UNK N   1      32.424  18.373   8.398  0.00  0.00     0.007 A 
ENDBRANCH  50  51
ENDBRANCH  49  50
BRANCH  49  57
HETATM   57  N   UNK N   1      27.708  18.014   9.401  0.00  0.00    -0.418 N 
HETATM   58  H   UNK N   1      26.853  18.569   9.371  0.00  0.00     0.150 HD
HETATM   59  H   UNK N   1      27.838  17.317  10.134  0.00  0.00     0.150 HD
ENDBRANCH  49  57
ENDBRANCH  46  49
ENDBRANCH  37  45
ENDBRANCH  34  37
ENDBRANCH   1  33
TORSDOF 22
ENDMDL
MODEL 6
REMARK VINA RESULT:      -6.8      1.789      2.908
REMARK  22 active torsions:
REMARK  status: ('A' for Active; 'I' for Inactive)
REMARK    1  A    between atoms: C_2  and  C_4 
REMARK    2  A    between atoms: C_4  and  C_5 
REMARK    3  A    between atoms: C_5  and  C_6 
REMARK    4  A    between atoms: C_5  and  N_27 
REMARK       I    between atoms: C_6  and  N_8 
REMARK    5  A    between atoms: C_9  and  N_8 
REMARK    6  A    between atoms: C_9  and  C_10 
REMARK    7  A    between atoms: C_9  and  C_15 
REMARK    8  A    between atoms: C_10  and  C_11 
REMARK    9  A    between atoms: C_11  and  C_12 
REMARK   10  A    between atoms: C_12  and  C_13 
REMARK   11  A    between atoms: C_13  and  N_14 
REMARK       I    between atoms: C_15  and  N_17 
REMARK   12  A    between atoms: C_20  and  C_23 
REMARK   13  A    between atoms: C_20  and  N_26 
REMARK   14  A    between atoms: C_23  and  O_25 
REMARK       I    between atoms: N_27  and  C_28 
REMARK   15  A    between atoms: C_28  and  C_30 
REMARK   16  A    between atoms: C_30  and  C_31 
REMARK   17  A    between atoms: C_30  and  N_38 
REMARK   18  A    between atoms: C_31  and  C_32 
REMARK       I    between atoms: N_38  and  C_39 
REMARK   19  A    between atoms: C_39  and  C_41 
REMARK   20  A    between atoms: C_41  and  C_42 
REMARK   21  A    between atoms: C_41  and  N_49 
REMARK   22  A    between atoms: C_42  and  C_43 
ROOT
HETATM    1  C   UNK N   1      21.547  16.040   5.432  0.00  0.00     0.177 C 
ENDROOT
BRANCH   1   2
HETATM    2  C   UNK N   1      22.743  15.091   5.579  0.00  0.00     0.038 C 
BRANCH   2   3
HETATM    3  C   UNK N   1      23.297  14.913   6.995  0.00  0.00    -0.020 C 
HETATM    4  C   UNK N   1      22.422  14.019   7.853  0.00  0.00     0.009 C 
HETATM    5  C   UNK N   1      24.737  14.437   7.004  0.00  0.00     0.009 C 
ENDBRANCH   2   3
ENDBRANCH   1   2
BRANCH   1   6
HETATM    6  C   UNK N   1      21.699  17.400   6.081  0.00  0.00     0.241 C 
HETATM    7  O   UNK N   1      21.390  17.556   7.251  0.00  0.00    -0.271 OA
HETATM    8  N   UNK N   1      22.210  18.443   5.383  0.00  0.00    -0.346 N 
HETATM    9  H   UNK N   1      22.241  19.335   5.801  0.00  0.00     0.163 HD
BRANCH   8  10
HETATM   10  C   UNK N   1      22.712  18.276   4.038  0.00  0.00     0.176 C 
BRANCH  10  11
HETATM   11  C   UNK N   1      21.622  18.163   2.962  0.00  0.00     0.035 C 
BRANCH  11  12
HETATM   12  C   UNK N   1      20.344  18.924   3.261  0.00  0.00     0.004 C 
BRANCH  12  13
HETATM   13  C   UNK N   1      20.418  20.315   2.657  0.00  0.00     0.019 C 
BRANCH  13  14
HETATM   14  C   UNK N   1      21.011  20.257   1.261  0.00  0.00     0.111 C 
BRANCH  14  15
HETATM   15  N   UNK N   1      20.318  21.187   0.388  0.00  0.00    -0.430 N 
HETATM   16  H   UNK N   1      20.242  22.171   0.649  0.00  0.00     0.149 HD
HETATM   17  H   UNK N   1      19.908  20.859  -0.485  0.00  0.00     0.149 HD
ENDBRANCH  14  15
ENDBRANCH  13  14
ENDBRANCH  12  13
ENDBRANCH  11  12
ENDBRANCH  10  11
BRANCH  10  18
HETATM   18  C   UNK N   1      23.854  19.217   3.753  0.00  0.00     0.242 C 
HETATM   19  O   UNK N   1      23.604  20.416   3.703  0.00  0.00    -0.271 OA
HETATM   20  N   UNK N   1      25.137  18.791   3.554  0.00  0.00    -0.350 N 
HETATM   21  C   UNK N   1      26.206  19.728   3.386  0.00  0.00     0.129 C 
HETATM   22  C   UNK N   1      25.519  17.408   3.635  0.00  0.00     0.129 C 
HETATM   23  C   UNK N   1      26.949  19.771   4.708  0.00  0.00     0.061 C 
HETATM   24  C   UNK N   1      27.278  18.389   5.330  0.00  0.00     0.113 C 
HETATM   25  C   UNK N   1      26.364  17.216   4.895  0.00  0.00     0.061 C 
BRANCH  24  26
HETATM   26  C   UNK N   1      28.712  17.998   5.089  0.00  0.00     0.169 C 
HETATM   27  O   UNK N   1      29.476  17.805   6.021  0.00  0.00    -0.648 OA
BRANCH  26  28
HETATM   28  O   UNK N   1      29.148  17.821   3.825  0.00  0.00    -0.775 OA
HETATM   29  H   UNK N   1      30.041  17.919   3.562  0.00  0.00     0.167 HD
ENDBRANCH  26  28
ENDBRANCH  24  26
BRANCH  24  30
HETATM   30  N   UNK N   1      27.101  18.540   6.763  0.00  0.00    -0.413 N 
HETATM   31  H   UNK N   1      27.365  19.086   7.583  0.00  0.00     0.151 HD
HETATM   32  H   UNK N   1      26.456  17.813   7.072  0.00  0.00     0.151 HD
ENDBRANCH  24  30
ENDBRANCH  10  18
ENDBRANCH   8  10
ENDBRANCH   1   6
BRANCH   1  33
HETATM   33  N   UNK N   1      20.267  15.352   5.529  0.00  0.00    -0.346 N 
HETATM   34  C   UNK N   1      19.856  14.271   4.814  0.00  0.00     0.241 C 
HETATM   35  O   UNK N   1      18.813  13.727   5.125  0.00  0.00    -0.271 OA
HETATM   36  H   UNK N   1      19.626  15.711   6.185  0.00  0.00     0.163 HD
BRANCH  34  37
HETATM   37  C   UNK N   1      20.669  13.728   3.672  0.00  0.00     0.180 C 
BRANCH  37  38
HETATM   38  C   UNK N   1      20.788  12.216   3.527  0.00  0.00     0.073 C 
BRANCH  38  39
HETATM   39  C   UNK N   1      21.876  11.738   4.444  0.00  0.00    -0.056 A 
HETATM   40  C   UNK N   1      23.212  11.815   4.038  0.00  0.00     0.007 A 
HETATM   41  C   UNK N   1      24.223  11.309   4.861  0.00  0.00     0.001 A 
HETATM   42  C   UNK N   1      23.904  10.716   6.086  0.00  0.00     0.000 A 
HETATM   43  C   UNK N   1      22.573  10.645   6.500  0.00  0.00     0.001 A 
HETATM   44  C   UNK N   1      21.563  11.155   5.681  0.00  0.00     0.007 A 
ENDBRANCH  38  39
ENDBRANCH  37  38
BRANCH  37  45
HETATM   45  N   UNK N   1      20.554  14.418   2.396  0.00  0.00    -0.346 N 
HETATM   46  C   UNK N   1      21.496  14.689   1.453  0.00  0.00     0.240 C 
HETATM   47  O   UNK N   1      21.195  15.434   0.536  0.00  0.00    -0.271 OA
HETATM   48  H   UNK N   1      19.648  14.739   2.181  0.00  0.00     0.163 HD
BRANCH  46  49
HETATM   49  C   UNK N   1      22.877  14.106   1.426  0.00  0.00     0.171 C 
BRANCH  49  50
HETATM   50  C   UNK N   1      23.396  13.510   0.123  0.00  0.00     0.072 C 
BRANCH  50  51
HETATM   51  C   UNK N   1      23.708  12.077   0.400  0.00  0.00    -0.056 A 
HETATM   52  C   UNK N   1      22.678  11.128   0.391  0.00  0.00     0.007 A 
HETATM   53  C   UNK N   1      22.940   9.806   0.760  0.00  0.00     0.001 A 
HETATM   54  C   UNK N   1      24.228   9.433   1.154  0.00  0.00     0.000 A 
HETATM   55  C   UNK N   1      25.258  10.380   1.165  0.00  0.00     0.001 A 
HETATM   56  C   UNK N   1      24.999  11.701   0.789  0.00  0.00     0.007 A 
ENDBRANCH  50  51
ENDBRANCH  49  50
BRANCH  49  57
HETATM   57  N   UNK N   1      23.846  14.984   2.061  0.00  0.00    -0.418 N 
HETATM   58  H   UNK N   1      23.536  15.847   2.507  0.00  0.00     0.150 HD
HETATM   59  H   UNK N   1      24.835  14.736   2.061  0.00  0.00     0.150 HD
ENDBRANCH  49  57
ENDBRANCH  46  49
ENDBRANCH  37  45
ENDBRANCH  34  37
ENDBRANCH   1  33
TORSDOF 22
ENDMDL
MODEL 7
REMARK VINA RESULT:      -6.8      2.465      8.450
REMARK  22 active torsions:
REMARK  status: ('A' for Active; 'I' for Inactive)
REMARK    1  A    between atoms: C_2  and  C_4 
REMARK    2  A    between atoms: C_4  and  C_5 
REMARK    3  A    between atoms: C_5  and  C_6 
REMARK    4  A    between atoms: C_5  and  N_27 
REMARK       I    between atoms: C_6  and  N_8 
REMARK    5  A    between atoms: C_9  and  N_8 
REMARK    6  A    between atoms: C_9  and  C_10 
REMARK    7  A    between atoms: C_9  and  C_15 
REMARK    8  A    between atoms: C_10  and  C_11 
REMARK    9  A    between atoms: C_11  and  C_12 
REMARK   10  A    between atoms: C_12  and  C_13 
REMARK   11  A    between atoms: C_13  and  N_14 
REMARK       I    between atoms: C_15  and  N_17 
REMARK   12  A    between atoms: C_20  and  C_23 
REMARK   13  A    between atoms: C_20  and  N_26 
REMARK   14  A    between atoms: C_23  and  O_25 
REMARK       I    between atoms: N_27  and  C_28 
REMARK   15  A    between atoms: C_28  and  C_30 
REMARK   16  A    between atoms: C_30  and  C_31 
REMARK   17  A    between atoms: C_30  and  N_38 
REMARK   18  A    between atoms: C_31  and  C_32 
REMARK       I    between atoms: N_38  and  C_39 
REMARK   19  A    between atoms: C_39  and  C_41 
REMARK   20  A    between atoms: C_41  and  C_42 
REMARK   21  A    between atoms: C_41  and  N_49 
REMARK   22  A    between atoms: C_42  and  C_43 
ROOT
HETATM    1  C   UNK N   1      22.468  18.017   5.162  0.00  0.00     0.177 C 
ENDROOT
BRANCH   1   2
HETATM    2  C   UNK N   1      21.733  18.008   3.817  0.00  0.00     0.038 C 
BRANCH   2   3
HETATM    3  C   UNK N   1      20.960  19.280   3.458  0.00  0.00    -0.020 C 
HETATM    4  C   UNK N   1      21.773  20.232   2.602  0.00  0.00     0.009 C 
HETATM    5  C   UNK N   1      19.614  18.987   2.821  0.00  0.00     0.009 C 
ENDBRANCH   2   3
ENDBRANCH   1   2
BRANCH   1   6
HETATM    6  C   UNK N   1      21.607  17.798   6.389  0.00  0.00     0.241 C 
HETATM    7  O   UNK N   1      21.020  18.738   6.899  0.00  0.00    -0.271 OA
HETATM    8  N   UNK N   1      21.452  16.556   6.908  0.00  0.00    -0.346 N 
HETATM    9  H   UNK N   1      20.941  16.442   7.743  0.00  0.00     0.163 HD
BRANCH   8  10
HETATM   10  C   UNK N   1      22.018  15.393   6.263  0.00  0.00     0.176 C 
BRANCH  10  11
HETATM   11  C   UNK N   1      23.253  14.814   6.968  0.00  0.00     0.035 C 
BRANCH  11  12
HETATM   12  C   UNK N   1      22.998  13.558   7.781  0.00  0.00     0.004 C 
BRANCH  12  13
HETATM   13  C   UNK N   1      24.282  13.108   8.454  0.00  0.00     0.019 C 
BRANCH  13  14
HETATM   14  C   UNK N   1      24.054  12.889   9.939  0.00  0.00     0.111 C 
BRANCH  14  15
HETATM   15  N   UNK N   1      25.305  13.040  10.661  0.00  0.00    -0.430 N 
HETATM   16  H   UNK N   1      26.118  13.442  10.194  0.00  0.00     0.149 HD
HETATM   17  H   UNK N   1      25.371  12.744  11.635  0.00  0.00     0.149 HD
ENDBRANCH  14  15
ENDBRANCH  13  14
ENDBRANCH  12  13
ENDBRANCH  11  12
ENDBRANCH  10  11
BRANCH  10  18
HETATM   18  C   UNK N   1      20.950  14.414   5.849  0.00  0.00     0.242 C 
HETATM   19  O   UNK N   1      19.988  14.273   6.596  0.00  0.00    -0.271 OA
HETATM   20  N   UNK N   1      21.010  13.693   4.690  0.00  0.00    -0.350 N 
HETATM   21  C   UNK N   1      19.924  12.851   4.290  0.00  0.00     0.129 C 
HETATM   22  C   UNK N   1      22.082  13.831   3.742  0.00  0.00     0.129 C 
HETATM   23  C   UNK N   1      19.177  13.602   3.204  0.00  0.00     0.061 C 
HETATM   24  C   UNK N   1      20.067  14.226   2.097  0.00  0.00     0.113 C 
HETATM   25  C   UNK N   1      21.534  14.523   2.494  0.00  0.00     0.061 C 
BRANCH  24  26
HETATM   26  C   UNK N   1      20.066  13.389   0.846  0.00  0.00     0.169 C 
HETATM   27  O   UNK N   1      21.076  12.814   0.472  0.00  0.00    -0.648 OA
BRANCH  26  28
HETATM   28  O   UNK N   1      18.921  13.241   0.148  0.00  0.00    -0.775 OA
HETATM   29  H   UNK N   1      18.888  13.081  -0.774  0.00  0.00     0.167 HD
ENDBRANCH  26  28
ENDBRANCH  24  26
BRANCH  24  30
HETATM   30  N   UNK N   1      19.462  15.505   1.768  0.00  0.00    -0.413 N 
HETATM   31  H   UNK N   1      19.094  16.376   2.149  0.00  0.00     0.151 HD
HETATM   32  H   UNK N   1      19.368  15.549   0.754  0.00  0.00     0.151 HD
ENDBRANCH  24  30
ENDBRANCH  10  18
ENDBRANCH   8  10
ENDBRANCH   1   6
BRANCH   1  33
HETATM   33  N   UNK N   1      23.530  19.012   5.216  0.00  0.00    -0.346 N 
HETATM   34  C   UNK N   1      24.835  18.845   4.868  0.00  0.00     0.241 C 
HETATM   35  O   UNK N   1      25.559  19.822   4.831  0.00  0.00    -0.271 OA
HETATM   36  H   UNK N   1      23.276  19.906   5.542  0.00  0.00     0.163 HD
BRANCH  34  37
HETATM   37  C   UNK N   1      25.386  17.493   4.511  0.00  0.00     0.180 C 
BRANCH  37  38
HETATM   38  C   UNK N   1      26.317  17.389   3.309  0.00  0.00     0.073 C 
BRANCH  38  39
HETATM   39  C   UNK N   1      26.376  15.951   2.882  0.00  0.00    -0.056 A 
HETATM   40  C   UNK N   1      27.593  15.263   2.921  0.00  0.00     0.007 A 
HETATM   41  C   UNK N   1      27.665  13.945   2.461  0.00  0.00     0.001 A 
HETATM   42  C   UNK N   1      26.528  13.312   1.951  0.00  0.00     0.000 A 
HETATM   43  C   UNK N   1      25.309  13.991   1.919  0.00  0.00     0.001 A 
HETATM   44  C   UNK N   1      25.234  15.306   2.383  0.00  0.00     0.007 A 
ENDBRANCH  38  39
ENDBRANCH  37  38
BRANCH  37  45
HETATM   45  N   UNK N   1      25.779  16.631   5.616  0.00  0.00    -0.346 N 
HETATM   46  C   UNK N   1      26.907  16.636   6.378  0.00  0.00     0.240 C 
HETATM   47  O   UNK N   1      27.089  15.703   7.141  0.00  0.00    -0.271 OA
HETATM   48  H   UNK N   1      25.125  15.934   5.850  0.00  0.00     0.163 HD
BRANCH  46  49
HETATM   49  C   UNK N   1      27.933  17.729   6.387  0.00  0.00     0.171 C 
BRANCH  49  50
HETATM   50  C   UNK N   1      28.756  17.972   5.128  0.00  0.00     0.072 C 
BRANCH  50  51
HETATM   51  C   UNK N   1      30.163  17.601   5.456  0.00  0.00    -0.056 A 
HETATM   52  C   UNK N   1      31.134  17.599   4.445  0.00  0.00     0.007 A 
HETATM   53  C   UNK N   1      32.426  17.144   4.715  0.00  0.00     0.001 A 
HETATM   54  C   UNK N   1      32.749  16.674   5.992  0.00  0.00     0.000 A 
HETATM   55  C   UNK N   1      31.781  16.673   7.002  0.00  0.00     0.001 A 
HETATM   56  C   UNK N   1      30.488  17.135   6.735  0.00  0.00     0.007 A 
ENDBRANCH  50  51
ENDBRANCH  49  50
BRANCH  49  57
HETATM   57  N   UNK N   1      27.406  18.959   6.954  0.00  0.00    -0.418 N 
HETATM   58  H   UNK N   1      27.686  19.860   6.567  0.00  0.00     0.150 HD
HETATM   59  H   UNK N   1      26.755  18.922   7.738  0.00  0.00     0.150 HD
ENDBRANCH  49  57
ENDBRANCH  46  49
ENDBRANCH  37  45
ENDBRANCH  34  37
ENDBRANCH   1  33
TORSDOF 22
ENDMDL
MODEL 8
REMARK VINA RESULT:      -6.8      2.701      7.912
REMARK  22 active torsions:
REMARK  status: ('A' for Active; 'I' for Inactive)
REMARK    1  A    between atoms: C_2  and  C_4 
REMARK    2  A    between atoms: C_4  and  C_5 
REMARK    3  A    between atoms: C_5  and  C_6 
REMARK    4  A    between atoms: C_5  and  N_27 
REMARK       I    between atoms: C_6  and  N_8 
REMARK    5  A    between atoms: C_9  and  N_8 
REMARK    6  A    between atoms: C_9  and  C_10 
REMARK    7  A    between atoms: C_9  and  C_15 
REMARK    8  A    between atoms: C_10  and  C_11 
REMARK    9  A    between atoms: C_11  and  C_12 
REMARK   10  A    between atoms: C_12  and  C_13 
REMARK   11  A    between atoms: C_13  and  N_14 
REMARK       I    between atoms: C_15  and  N_17 
REMARK   12  A    between atoms: C_20  and  C_23 
REMARK   13  A    between atoms: C_20  and  N_26 
REMARK   14  A    between atoms: C_23  and  O_25 
REMARK       I    between atoms: N_27  and  C_28 
REMARK   15  A    between atoms: C_28  and  C_30 
REMARK   16  A    between atoms: C_30  and  C_31 
REMARK   17  A    between atoms: C_30  and  N_38 
REMARK   18  A    between atoms: C_31  and  C_32 
REMARK       I    between atoms: N_38  and  C_39 
REMARK   19  A    between atoms: C_39  and  C_41 
REMARK   20  A    between atoms: C_41  and  C_42 
REMARK   21  A    between atoms: C_41  and  N_49 
REMARK   22  A    between atoms: C_42  and  C_43 
ROOT
HETATM    1  C   UNK N   1      23.077  13.990   5.844  0.00  0.00     0.177 C 
ENDROOT
BRANCH   1   2
HETATM    2  C   UNK N   1      22.104  15.155   5.626  0.00  0.00     0.038 C 
BRANCH   2   3
HETATM    3  C   UNK N   1      21.892  16.092   6.818  0.00  0.00    -0.020 C 
HETATM    4  C   UNK N   1      21.547  17.506   6.390  0.00  0.00     0.009 C 
HETATM    5  C   UNK N   1      20.874  15.558   7.808  0.00  0.00     0.009 C 
ENDBRANCH   2   3
ENDBRANCH   1   2
BRANCH   1   6
HETATM    6  C   UNK N   1      22.458  12.609   5.890  0.00  0.00     0.241 C 
HETATM    7  O   UNK N   1      21.893  12.226   6.902  0.00  0.00    -0.271 OA
HETATM    8  N   UNK N   1      22.492  11.802   4.801  0.00  0.00    -0.346 N 
HETATM    9  H   UNK N   1      22.140  10.885   4.870  0.00  0.00     0.163 HD
BRANCH   8  10
HETATM   10  C   UNK N   1      23.031  12.260   3.541  0.00  0.00     0.176 C 
BRANCH  10  11
HETATM   11  C   UNK N   1      24.360  11.603   3.142  0.00  0.00     0.035 C 
BRANCH  11  12
HETATM   12  C   UNK N   1      24.680  11.650   1.659  0.00  0.00     0.004 C 
BRANCH  12  13
HETATM   13  C   UNK N   1      26.181  11.757   1.458  0.00  0.00     0.019 C 
BRANCH  13  14
HETATM   14  C   UNK N   1      26.918  11.004   2.550  0.00  0.00     0.111 C 
BRANCH  14  15
HETATM   15  N   UNK N   1      28.351  11.125   2.356  0.00  0.00    -0.430 N 
HETATM   16  H   UNK N   1      28.724  11.853   1.746  0.00  0.00     0.149 HD
HETATM   17  H   UNK N   1      28.986  10.482   2.829  0.00  0.00     0.149 HD
ENDBRANCH  14  15
ENDBRANCH  13  14
ENDBRANCH  12  13
ENDBRANCH  11  12
ENDBRANCH  10  11
BRANCH  10  18
HETATM   18  C   UNK N   1      21.965  12.338   2.479  0.00  0.00     0.242 C 
HETATM   19  O   UNK N   1      21.238  11.363   2.330  0.00  0.00    -0.271 OA
HETATM   20  N   UNK N   1      21.780  13.439   1.690  0.00  0.00    -0.350 N 
HETATM   21  C   UNK N   1      20.691  13.505   0.764  0.00  0.00     0.129 C 
HETATM   22  C   UNK N   1      22.562  14.637   1.829  0.00  0.00     0.129 C 
HETATM   23  C   UNK N   1      19.640  14.396   1.401  0.00  0.00     0.061 C 
HETATM   24  C   UNK N   1      20.172  15.722   2.004  0.00  0.00     0.113 C 
HETATM   25  C   UNK N   1      21.667  15.732   2.409  0.00  0.00     0.061 C 
BRANCH  24  26
HETATM   26  C   UNK N   1      19.911  16.891   1.090  0.00  0.00     0.169 C 
HETATM   27  O   UNK N   1      20.336  16.901  -0.054  0.00  0.00    -0.648 OA
BRANCH  26  28
HETATM   28  O   UNK N   1      19.165  17.923   1.531  0.00  0.00    -0.775 OA
HETATM   29  H   UNK N   1      18.607  17.882   2.283  0.00  0.00     0.167 HD
ENDBRANCH  26  28
ENDBRANCH  24  26
BRANCH  24  30
HETATM   30  N   UNK N   1      19.413  15.943   3.222  0.00  0.00    -0.413 N 
HETATM   31  H   UNK N   1      18.563  15.702   3.730  0.00  0.00     0.151 HD
HETATM   32  H   UNK N   1      19.940  16.599   3.798  0.00  0.00     0.151 HD
ENDBRANCH  24  30
ENDBRANCH  10  18
ENDBRANCH   8  10
ENDBRANCH   1   6
BRANCH   1  33
HETATM   33  N   UNK N   1      24.143  14.315   6.783  0.00  0.00    -0.346 N 
HETATM   34  C   UNK N   1      25.240  15.084   6.550  0.00  0.00     0.241 C 
HETATM   35  O   UNK N   1      25.956  15.379   7.489  0.00  0.00    -0.271 OA
HETATM   36  H   UNK N   1      24.060  13.934   7.688  0.00  0.00     0.163 HD
BRANCH  34  37
HETATM   37  C   UNK N   1      25.568  15.589   5.173  0.00  0.00     0.180 C 
BRANCH  37  38
HETATM   38  C   UNK N   1      25.778  14.567   4.062  0.00  0.00     0.073 C 
BRANCH  38  39
HETATM   39  C   UNK N   1      27.252  14.440   3.809  0.00  0.00    -0.056 A 
HETATM   40  C   UNK N   1      28.080  13.878   4.786  0.00  0.00     0.007 A 
HETATM   41  C   UNK N   1      29.462  13.819   4.581  0.00  0.00     0.001 A 
HETATM   42  C   UNK N   1      30.023  14.330   3.407  0.00  0.00     0.000 A 
HETATM   43  C   UNK N   1      29.199  14.883   2.425  0.00  0.00     0.001 A 
HETATM   44  C   UNK N   1      27.818  14.938   2.626  0.00  0.00     0.007 A 
ENDBRANCH  38  39
ENDBRANCH  37  38
BRANCH  37  45
HETATM   45  N   UNK N   1      24.869  16.784   4.726  0.00  0.00    -0.346 N 
HETATM   46  C   UNK N   1      25.205  18.097   4.845  0.00  0.00     0.240 C 
HETATM   47  O   UNK N   1      24.372  18.933   4.541  0.00  0.00    -0.271 OA
HETATM   48  H   UNK N   1      24.016  16.615   4.263  0.00  0.00     0.163 HD
BRANCH  46  49
HETATM   49  C   UNK N   1      26.545  18.605   5.285  0.00  0.00     0.171 C 
BRANCH  49  50
HETATM   50  C   UNK N   1      27.711  18.536   4.307  0.00  0.00     0.072 C 
BRANCH  50  51
HETATM   51  C   UNK N   1      28.820  17.825   5.008  0.00  0.00    -0.056 A 
HETATM   52  C   UNK N   1      28.598  17.272   6.276  0.00  0.00     0.007 A 
HETATM   53  C   UNK N   1      29.656  16.706   6.990  0.00  0.00     0.001 A 
HETATM   54  C   UNK N   1      30.944  16.704   6.445  0.00  0.00     0.000 A 
HETATM   55  C   UNK N   1      31.169  17.257   5.179  0.00  0.00     0.001 A 
HETATM   56  C   UNK N   1      30.108  17.818   4.462  0.00  0.00     0.007 A 
ENDBRANCH  50  51
ENDBRANCH  49  50
BRANCH  49  57
HETATM   57  N   UNK N   1      26.444  19.897   5.940  0.00  0.00    -0.418 N 
HETATM   58  H   UNK N   1      25.953  20.665   5.481  0.00  0.00     0.150 HD
HETATM   59  H   UNK N   1      26.862  20.037   6.860  0.00  0.00     0.150 HD
ENDBRANCH  49  57
ENDBRANCH  46  49
ENDBRANCH  37  45
ENDBRANCH  34  37
ENDBRANCH   1  33
TORSDOF 22
ENDMDL
MODEL 9
REMARK VINA RESULT:      -6.7      3.276      8.044
REMARK  22 active torsions:
REMARK  status: ('A' for Active; 'I' for Inactive)
REMARK    1  A    between atoms: C_2  and  C_4 
REMARK    2  A    between atoms: C_4  and  C_5 
REMARK    3  A    between atoms: C_5  and  C_6 
REMARK    4  A    between atoms: C_5  and  N_27 
REMARK       I    between atoms: C_6  and  N_8 
REMARK    5  A    between atoms: C_9  and  N_8 
REMARK    6  A    between atoms: C_9  and  C_10 
REMARK    7  A    between atoms: C_9  and  C_15 
REMARK    8  A    between atoms: C_10  and  C_11 
REMARK    9  A    between atoms: C_11  and  C_12 
REMARK   10  A    between atoms: C_12  and  C_13 
REMARK   11  A    between atoms: C_13  and  N_14 
REMARK       I    between atoms: C_15  and  N_17 
REMARK   12  A    between atoms: C_20  and  C_23 
REMARK   13  A    between atoms: C_20  and  N_26 
REMARK   14  A    between atoms: C_23  and  O_25 
REMARK       I    between atoms: N_27  and  C_28 
REMARK   15  A    between atoms: C_28  and  C_30 
REMARK   16  A    between atoms: C_30  and  C_31 
REMARK   17  A    between atoms: C_30  and  N_38 
REMARK   18  A    between atoms: C_31  and  C_32 
REMARK       I    between atoms: N_38  and  C_39 
REMARK   19  A    between atoms: C_39  and  C_41 
REMARK   20  A    between atoms: C_41  and  C_42 
REMARK   21  A    between atoms: C_41  and  N_49 
REMARK   22  A    between atoms: C_42  and  C_43 
ROOT
HETATM    1  C   UNK N   1      25.467  16.820   3.834  0.00  0.00     0.177 C 
ENDROOT
BRANCH   1   2
HETATM    2  C   UNK N   1      24.756  18.177   3.774  0.00  0.00     0.038 C 
BRANCH   2   3
HETATM    3  C   UNK N   1      25.641  19.393   3.486  0.00  0.00    -0.020 C 
HETATM    4  C   UNK N   1      24.919  20.462   2.688  0.00  0.00     0.009 C 
HETATM    5  C   UNK N   1      26.260  19.976   4.743  0.00  0.00     0.009 C 
ENDBRANCH   2   3
ENDBRANCH   1   2
BRANCH   1   6
HETATM    6  C   UNK N   1      25.216  15.889   2.666  0.00  0.00     0.241 C 
HETATM    7  O   UNK N   1      26.097  15.685   1.847  0.00  0.00    -0.271 OA
HETATM    8  N   UNK N   1      24.029  15.247   2.540  0.00  0.00    -0.346 N 
HETATM    9  H   UNK N   1      23.862  14.696   1.741  0.00  0.00     0.163 HD
BRANCH   8  10
HETATM   10  C   UNK N   1      23.004  15.352   3.553  0.00  0.00     0.176 C 
BRANCH  10  11
HETATM   11  C   UNK N   1      21.850  16.299   3.194  0.00  0.00     0.035 C 
BRANCH  11  12
HETATM   12  C   UNK N   1      21.581  17.396   4.208  0.00  0.00     0.004 C 
BRANCH  12  13
HETATM   13  C   UNK N   1      20.995  18.611   3.512  0.00  0.00     0.019 C 
BRANCH  13  14
HETATM   14  C   UNK N   1      20.266  18.196   2.246  0.00  0.00     0.111 C 
BRANCH  14  15
HETATM   15  N   UNK N   1      18.848  18.480   2.375  0.00  0.00    -0.430 N 
HETATM   16  H   UNK N   1      18.511  19.052   3.150  0.00  0.00     0.149 HD
HETATM   17  H   UNK N   1      18.189  18.109   1.691  0.00  0.00     0.149 HD
ENDBRANCH  14  15
ENDBRANCH  13  14
ENDBRANCH  12  13
ENDBRANCH  11  12
ENDBRANCH  10  11
BRANCH  10  18
HETATM   18  C   UNK N   1      22.628  13.999   4.101  0.00  0.00     0.242 C 
HETATM   19  O   UNK N   1      22.734  13.033   3.355  0.00  0.00    -0.271 OA
HETATM   20  N   UNK N   1      22.183  13.813   5.380  0.00  0.00    -0.350 N 
HETATM   21  C   UNK N   1      21.934  12.498   5.887  0.00  0.00     0.129 C 
HETATM   22  C   UNK N   1      22.070  14.886   6.329  0.00  0.00     0.129 C 
HETATM   23  C   UNK N   1      23.115  12.150   6.774  0.00  0.00     0.061 C 
HETATM   24  C   UNK N   1      23.541  13.254   7.776  0.00  0.00     0.113 C 
HETATM   25  C   UNK N   1      23.151  14.703   7.394  0.00  0.00     0.061 C 
BRANCH  24  26
HETATM   26  C   UNK N   1      23.034  12.968   9.165  0.00  0.00     0.169 C 
HETATM   27  O   UNK N   1      21.934  12.471   9.344  0.00  0.00    -0.648 OA
BRANCH  26  28
HETATM   28  O   UNK N   1      23.825  13.230  10.226  0.00  0.00    -0.775 OA
HETATM   29  H   UNK N   1      24.393  12.599  10.622  0.00  0.00     0.167 HD
ENDBRANCH  26  28
ENDBRANCH  24  26
BRANCH  24  30
HETATM   30  N   UNK N   1      24.992  13.216   7.824  0.00  0.00    -0.413 N 
HETATM   31  H   UNK N   1      25.804  12.642   8.047  0.00  0.00     0.151 HD
HETATM   32  H   UNK N   1      25.334  14.124   7.510  0.00  0.00     0.151 HD
ENDBRANCH  24  30
ENDBRANCH  10  18
ENDBRANCH   8  10
ENDBRANCH   1   6
BRANCH   1  33
HETATM   33  N   UNK N   1      25.508  16.265   5.180  0.00  0.00    -0.346 N 
HETATM   34  C   UNK N   1      26.611  15.896   5.886  0.00  0.00     0.241 C 
HETATM   35  O   UNK N   1      26.480  15.591   7.057  0.00  0.00    -0.271 OA
HETATM   36  H   UNK N   1      24.640  16.143   5.630  0.00  0.00     0.163 HD
BRANCH  34  37
HETATM   37  C   UNK N   1      27.976  15.879   5.258  0.00  0.00     0.180 C 
BRANCH  37  38
HETATM   38  C   UNK N   1      28.767  17.181   5.218  0.00  0.00     0.073 C 
BRANCH  38  39
HETATM   39  C   UNK N   1      29.205  17.511   6.615  0.00  0.00    -0.056 A 
HETATM   40  C   UNK N   1      28.454  18.401   7.388  0.00  0.00     0.007 A 
HETATM   41  C   UNK N   1      28.895  18.762   8.666  0.00  0.00     0.001 A 
HETATM   42  C   UNK N   1      30.091  18.244   9.171  0.00  0.00     0.000 A 
HETATM   43  C   UNK N   1      30.839  17.347   8.407  0.00  0.00     0.001 A 
HETATM   44  C   UNK N   1      30.397  16.982   7.133  0.00  0.00     0.007 A 
ENDBRANCH  38  39
ENDBRANCH  37  38
BRANCH  37  45
HETATM   45  N   UNK N   1      28.807  14.714   5.523  0.00  0.00    -0.346 N 
HETATM   46  C   UNK N   1      29.653  14.032   4.703  0.00  0.00     0.240 C 
HETATM   47  O   UNK N   1      30.115  12.977   5.104  0.00  0.00    -0.271 OA
HETATM   48  H   UNK N   1      28.748  14.364   6.441  0.00  0.00     0.163 HD
BRANCH  46  49
HETATM   49  C   UNK N   1      30.101  14.497   3.351  0.00  0.00     0.171 C 
BRANCH  49  50
HETATM   50  C   UNK N   1      31.591  14.494   3.031  0.00  0.00     0.072 C 
BRANCH  50  51
HETATM   51  C   UNK N   1      32.226  15.503   3.928  0.00  0.00    -0.056 A 
HETATM   52  C   UNK N   1      32.044  16.869   3.674  0.00  0.00     0.007 A 
HETATM   53  C   UNK N   1      32.725  17.820   4.437  0.00  0.00     0.001 A 
HETATM   54  C   UNK N   1      33.603  17.410   5.444  0.00  0.00     0.000 A 
HETATM   55  C   UNK N   1      33.788  16.046   5.698  0.00  0.00     0.001 A 
HETATM   56  C   UNK N   1      33.101  15.093   4.940  0.00  0.00     0.007 A 
ENDBRANCH  50  51
ENDBRANCH  49  50
BRANCH  49  57
HETATM   57  N   UNK N   1      29.302  13.913   2.287  0.00  0.00    -0.418 N 
HETATM   58  H   UNK N   1      29.753  13.372   1.549  0.00  0.00     0.150 HD
HETATM   59  H   UNK N   1      28.291  14.043   2.279  0.00  0.00     0.150 HD
ENDBRANCH  49  57
ENDBRANCH  46  49
ENDBRANCH  37  45
ENDBRANCH  34  37
ENDBRANCH   1  33
TORSDOF 22
ENDMDL
