MODEL 1
REMARK VINA RESULT:      -5.9      0.000      0.000
REMARK  4 active torsions:
REMARK  status: ('A' for Active; 'I' for Inactive)
REMARK    1  A    between atoms: C_2  and  C_3 
REMARK    2  A    between atoms: C_3  and  N_4 
REMARK    3  A    between atoms: C_7  and  C_10 
REMARK    4  A    between atoms: C_14  and  S_16 
ROOT
HETATM    1  C   UNK N   1      27.738  23.753  -5.085  0.00  0.00    -0.052 A 
HETATM    2  C   UNK N   1      27.791  23.055  -6.297  0.00  0.00     0.007 A 
HETATM    3  C   UNK N   1      28.810  22.131  -6.543  0.00  0.00     0.002 A 
HETATM    4  C   UNK N   1      29.775  21.877  -5.565  0.00  0.00     0.023 A 
HETATM    5  C   UNK N   1      29.751  22.577  -4.349  0.00  0.00     0.059 A 
HETATM    6  C   UNK N   1      28.715  23.499  -4.103  0.00  0.00     0.030 A 
ENDROOT
BRANCH   1   7
HETATM    7  C   UNK N   1      26.580  24.692  -4.818  0.00  0.00     0.022 C 
HETATM    8  C   UNK N   1      26.151  25.507  -6.042  0.00  0.00     0.039 C 
HETATM    9  C   UNK N   1      27.098  26.683  -6.300  0.00  0.00     0.273 C 
HETATM   10  N   UNK N   1      27.238  27.550  -5.123  0.00  0.00     0.088 N 
HETATM   11  C   UNK N   1      27.724  26.773  -3.972  0.00  0.00     0.273 C 
HETATM   12  C   UNK N   1      26.778  25.619  -3.614  0.00  0.00     0.039 C 
BRANCH  10  13
HETATM   13  C   UNK N   1      25.966  28.207  -4.817  0.00  0.00     0.272 C 
BRANCH  13  14
HETATM   14  C   UNK N   1      26.181  29.351  -3.840  0.00  0.00     0.026 C 
HETATM   15  C   UNK N   1      27.067  30.399  -4.478  0.00  0.00     0.007 C 
ENDBRANCH  13  14
ENDBRANCH  10  13
ENDBRANCH   1   7
BRANCH   5  16
HETATM   16  S   UNK N   1      30.898  22.122  -3.019  0.00  0.00     0.171 S 
HETATM   17  O   UNK N   1      32.383  22.287  -3.377  0.00  0.00    -0.223 OA
HETATM   18  O   UNK N   1      30.732  22.926  -1.722  0.00  0.00    -0.223 OA
HETATM   19  C   UNK N   1      31.136  23.879  -3.456  0.00  0.00     0.167 C 
ENDBRANCH   5  16
TORSDOF 4
ENDMDL
MODEL 2
REMARK VINA RESULT:      -5.6     26.314     28.569
REMARK  4 active torsions:
REMARK  status: ('A' for Active; 'I' for Inactive)
REMARK    1  A    between atoms: C_2  and  C_3 
REMARK    2  A    between atoms: C_3  and  N_4 
REMARK    3  A    between atoms: C_7  and  C_10 
REMARK    4  A    between atoms: C_14  and  S_16 
ROOT
HETATM    1  C   UNK N   1      35.383  11.051  18.778  0.00  0.00    -0.052 A 
HETATM    2  C   UNK N   1      35.305  12.293  19.416  0.00  0.00     0.007 A 
HETATM    3  C   UNK N   1      35.158  13.468  18.673  0.00  0.00     0.002 A 
HETATM    4  C   UNK N   1      35.061  13.407  17.281  0.00  0.00     0.023 A 
HETATM    5  C   UNK N   1      35.152  12.173  16.619  0.00  0.00     0.059 A 
HETATM    6  C   UNK N   1      35.290  10.993  17.374  0.00  0.00     0.030 A 
ENDROOT
BRANCH   1   7
HETATM    7  C   UNK N   1      35.467   9.790  19.613  0.00  0.00     0.022 C 
HETATM    8  C   UNK N   1      34.615   8.636  19.074  0.00  0.00     0.039 C 
HETATM    9  C   UNK N   1      33.134   8.814  19.421  0.00  0.00     0.273 C 
HETATM   10  N   UNK N   1      32.919   8.989  20.863  0.00  0.00     0.088 N 
HETATM   11  C   UNK N   1      33.681  10.146  21.356  0.00  0.00     0.273 C 
HETATM   12  C   UNK N   1      35.187   9.995  21.106  0.00  0.00     0.039 C 
BRANCH  10  13
HETATM   13  C   UNK N   1      33.286   7.769  21.586  0.00  0.00     0.272 C 
BRANCH  13  14
HETATM   14  C   UNK N   1      32.066   7.165  22.261  0.00  0.00     0.026 C 
HETATM   15  C   UNK N   1      31.951   7.704  23.671  0.00  0.00     0.007 C 
ENDBRANCH  13  14
ENDBRANCH  10  13
ENDBRANCH   1   7
BRANCH   5  16
HETATM   16  S   UNK N   1      34.854  12.079  14.832  0.00  0.00     0.171 S 
HETATM   17  O   UNK N   1      34.824  13.441  14.120  0.00  0.00    -0.223 OA
HETATM   18  O   UNK N   1      35.892  11.267  14.047  0.00  0.00    -0.223 OA
HETATM   19  C   UNK N   1      36.475  12.862  15.139  0.00  0.00     0.167 C 
ENDBRANCH   5  16
TORSDOF 4
ENDMDL
MODEL 3
REMARK VINA RESULT:      -5.6     14.861     16.236
REMARK  4 active torsions:
REMARK  status: ('A' for Active; 'I' for Inactive)
REMARK    1  A    between atoms: C_2  and  C_3 
REMARK    2  A    between atoms: C_3  and  N_4 
REMARK    3  A    between atoms: C_7  and  C_10 
REMARK    4  A    between atoms: C_14  and  S_16 
ROOT
HETATM    1  C   UNK N   1      21.534  16.493   5.127  0.00  0.00    -0.052 A 
HETATM    2  C   UNK N   1      21.733  15.469   4.195  0.00  0.00     0.007 A 
HETATM    3  C   UNK N   1      21.375  15.647   2.856  0.00  0.00     0.002 A 
HETATM    4  C   UNK N   1      20.837  16.864   2.430  0.00  0.00     0.023 A 
HETATM    5  C   UNK N   1      20.615  17.899   3.351  0.00  0.00     0.059 A 
HETATM    6  C   UNK N   1      20.987  17.717   4.697  0.00  0.00     0.030 A 
ENDROOT
BRANCH   1   7
HETATM    7  C   UNK N   1      21.999  16.298   6.556  0.00  0.00     0.022 C 
HETATM    8  C   UNK N   1      22.402  14.857   6.882  0.00  0.00     0.039 C 
HETATM    9  C   UNK N   1      21.179  13.965   7.117  0.00  0.00     0.273 C 
HETATM   10  N   UNK N   1      20.293  14.505   8.156  0.00  0.00     0.088 N 
HETATM   11  C   UNK N   1      19.849  15.860   7.797  0.00  0.00     0.273 C 
HETATM   12  C   UNK N   1      21.030  16.825   7.619  0.00  0.00     0.039 C 
BRANCH  10  13
HETATM   13  C   UNK N   1      20.965  14.498   9.457  0.00  0.00     0.272 C 
BRANCH  13  14
HETATM   14  C   UNK N   1      21.077  13.079   9.990  0.00  0.00     0.026 C 
HETATM   15  C   UNK N   1      22.483  12.841  10.499  0.00  0.00     0.007 C 
ENDBRANCH  13  14
ENDBRANCH  10  13
ENDBRANCH   1   7
BRANCH   5  16
HETATM   16  S   UNK N   1      20.080  19.531   2.768  0.00  0.00     0.171 S 
HETATM   17  O   UNK N   1      20.275  20.665   3.788  0.00  0.00    -0.223 OA
HETATM   18  O   UNK N   1      20.796  20.032   1.507  0.00  0.00    -0.223 OA
HETATM   19  C   UNK N   1      21.863  19.578   3.161  0.00  0.00     0.167 C 
ENDBRANCH   5  16
TORSDOF 4
ENDMDL
MODEL 4
REMARK VINA RESULT:      -5.5      3.434      6.160
REMARK  4 active torsions:
REMARK  status: ('A' for Active; 'I' for Inactive)
REMARK    1  A    between atoms: C_2  and  C_3 
REMARK    2  A    between atoms: C_3  and  N_4 
REMARK    3  A    between atoms: C_7  and  C_10 
REMARK    4  A    between atoms: C_14  and  S_16 
ROOT
HETATM    1  C   UNK N   1      26.180  25.518  -4.570  0.00  0.00    -0.052 A 
HETATM    2  C   UNK N   1      25.217  25.882  -5.517  0.00  0.00     0.007 A 
HETATM    3  C   UNK N   1      24.791  27.209  -5.626  0.00  0.00     0.002 A 
HETATM    4  C   UNK N   1      25.346  28.192  -4.802  0.00  0.00     0.023 A 
HETATM    5  C   UNK N   1      26.302  27.847  -3.835  0.00  0.00     0.059 A 
HETATM    6  C   UNK N   1      26.734  26.510  -3.738  0.00  0.00     0.030 A 
ENDROOT
BRANCH   1   7
HETATM    7  C   UNK N   1      26.676  24.088  -4.527  0.00  0.00     0.022 C 
HETATM    8  C   UNK N   1      27.968  23.908  -3.723  0.00  0.00     0.039 C 
HETATM    9  C   UNK N   1      29.198  24.352  -4.521  0.00  0.00     0.273 C 
HETATM   10  N   UNK N   1      29.293  23.670  -5.818  0.00  0.00     0.088 N 
HETATM   11  C   UNK N   1      28.080  23.912  -6.613  0.00  0.00     0.273 C 
HETATM   12  C   UNK N   1      26.814  23.419  -5.898  0.00  0.00     0.039 C 
BRANCH  10  13
HETATM   13  C   UNK N   1      29.521  22.236  -5.626  0.00  0.00     0.272 C 
BRANCH  13  14
HETATM   14  C   UNK N   1      30.842  21.997  -4.915  0.00  0.00     0.026 C 
HETATM   15  C   UNK N   1      30.633  21.023  -3.775  0.00  0.00     0.007 C 
ENDBRANCH  13  14
ENDBRANCH  10  13
ENDBRANCH   1   7
BRANCH   5  16
HETATM   16  S   UNK N   1      27.144  29.145  -2.889  0.00  0.00     0.171 S 
HETATM   17  O   UNK N   1      28.670  29.175  -3.069  0.00  0.00    -0.223 OA
HETATM   18  O   UNK N   1      26.698  30.576  -3.219  0.00  0.00    -0.223 OA
HETATM   19  C   UNK N   1      27.452  29.393  -4.671  0.00  0.00     0.167 C 
ENDBRANCH   5  16
TORSDOF 4
ENDMDL
MODEL 5
REMARK VINA RESULT:      -5.5     11.397     13.022
REMARK  4 active torsions:
REMARK  status: ('A' for Active; 'I' for Inactive)
REMARK    1  A    between atoms: C_2  and  C_3 
REMARK    2  A    between atoms: C_3  and  N_4 
REMARK    3  A    between atoms: C_7  and  C_10 
REMARK    4  A    between atoms: C_14  and  S_16 
ROOT
HETATM    1  C   UNK N   1      30.718  17.099   5.668  0.00  0.00    -0.052 A 
HETATM    2  C   UNK N   1      31.163  17.219   4.347  0.00  0.00     0.007 A 
HETATM    3  C   UNK N   1      32.512  17.459   4.069  0.00  0.00     0.002 A 
HETATM    4  C   UNK N   1      33.435  17.556   5.113  0.00  0.00     0.023 A 
HETATM    5  C   UNK N   1      33.009  17.454   6.446  0.00  0.00     0.059 A 
HETATM    6  C   UNK N   1      31.650  17.202   6.719  0.00  0.00     0.030 A 
ENDROOT
BRANCH   1   7
HETATM    7  C   UNK N   1      29.265  16.765   5.935  0.00  0.00     0.022 C 
HETATM    8  C   UNK N   1      28.500  16.303   4.691  0.00  0.00     0.039 C 
HETATM    9  C   UNK N   1      28.106  17.482   3.797  0.00  0.00     0.273 C 
HETATM   10  N   UNK N   1      27.341  18.500   4.528  0.00  0.00     0.088 N 
HETATM   11  C   UNK N   1      28.116  18.994   5.676  0.00  0.00     0.273 C 
HETATM   12  C   UNK N   1      28.480  17.868   6.653  0.00  0.00     0.039 C 
BRANCH  10  13
HETATM   13  C   UNK N   1      26.049  17.961   4.956  0.00  0.00     0.272 C 
BRANCH  13  14
HETATM   14  C   UNK N   1      24.964  18.323   3.957  0.00  0.00     0.026 C 
HETATM   15  C   UNK N   1      25.147  19.759   3.512  0.00  0.00     0.007 C 
ENDBRANCH  13  14
ENDBRANCH  10  13
ENDBRANCH   1   7
BRANCH   5  16
HETATM   16  S   UNK N   1      34.229  17.407   7.788  0.00  0.00     0.171 S 
HETATM   17  O   UNK N   1      34.703  18.789   8.263  0.00  0.00    -0.223 OA
HETATM   18  O   UNK N   1      33.751  16.711   9.070  0.00  0.00    -0.223 OA
HETATM   19  C   UNK N   1      32.740  18.304   8.349  0.00  0.00     0.167 C 
ENDBRANCH   5  16
TORSDOF 4
ENDMDL
MODEL 6
REMARK VINA RESULT:      -5.5     11.427     12.933
REMARK  4 active torsions:
REMARK  status: ('A' for Active; 'I' for Inactive)
REMARK    1  A    between atoms: C_2  and  C_3 
REMARK    2  A    between atoms: C_3  and  N_4 
REMARK    3  A    between atoms: C_7  and  C_10 
REMARK    4  A    between atoms: C_14  and  S_16 
ROOT
HETATM    1  C   UNK N   1      29.855  17.420   6.821  0.00  0.00    -0.052 A 
HETATM    2  C   UNK N   1      30.071  17.817   8.145  0.00  0.00     0.007 A 
HETATM    3  C   UNK N   1      31.367  17.881   8.666  0.00  0.00     0.002 A 
HETATM    4  C   UNK N   1      32.463  17.574   7.856  0.00  0.00     0.023 A 
HETATM    5  C   UNK N   1      32.268  17.159   6.530  0.00  0.00     0.059 A 
HETATM    6  C   UNK N   1      30.961  17.105   6.008  0.00  0.00     0.030 A 
ENDROOT
BRANCH   1   7
HETATM    7  C   UNK N   1      28.447  17.431   6.263  0.00  0.00     0.022 C 
HETATM    8  C   UNK N   1      28.381  17.745   4.765  0.00  0.00     0.039 C 
HETATM    9  C   UNK N   1      28.544  19.244   4.491  0.00  0.00     0.273 C 
HETATM   10  N   UNK N   1      27.569  20.052   5.235  0.00  0.00     0.088 N 
HETATM   11  C   UNK N   1      27.692  19.801   6.679  0.00  0.00     0.273 C 
HETATM   12  C   UNK N   1      27.465  18.324   7.029  0.00  0.00     0.039 C 
BRANCH  10  13
HETATM   13  C   UNK N   1      26.210  19.773   4.766  0.00  0.00     0.272 C 
BRANCH  13  14
HETATM   14  C   UNK N   1      26.010  20.319   3.362  0.00  0.00     0.026 C 
HETATM   15  C   UNK N   1      24.529  20.397   3.057  0.00  0.00     0.007 C 
ENDBRANCH  13  14
ENDBRANCH  10  13
ENDBRANCH   1   7
BRANCH   5  16
HETATM   16  S   UNK N   1      33.694  16.928   5.434  0.00  0.00     0.171 S 
HETATM   17  O   UNK N   1      34.943  16.360   6.127  0.00  0.00    -0.223 OA
HETATM   18  O   UNK N   1      33.454  15.976   4.254  0.00  0.00    -0.223 OA
HETATM   19  C   UNK N   1      33.207  15.319   6.147  0.00  0.00     0.167 C 
ENDBRANCH   5  16
TORSDOF 4
ENDMDL
MODEL 7
REMARK VINA RESULT:      -5.3     21.391     23.915
REMARK  4 active torsions:
REMARK  status: ('A' for Active; 'I' for Inactive)
REMARK    1  A    between atoms: C_2  and  C_3 
REMARK    2  A    between atoms: C_3  and  N_4 
REMARK    3  A    between atoms: C_7  and  C_10 
REMARK    4  A    between atoms: C_14  and  S_16 
ROOT
HETATM    1  C   UNK N   1      36.690  12.945  13.431  0.00  0.00    -0.052 A 
HETATM    2  C   UNK N   1      37.112  11.990  12.500  0.00  0.00     0.007 A 
HETATM    3  C   UNK N   1      36.880  12.176  11.134  0.00  0.00     0.002 A 
HETATM    4  C   UNK N   1      36.243  13.334  10.684  0.00  0.00     0.023 A 
HETATM    5  C   UNK N   1      35.797  14.298  11.601  0.00  0.00     0.059 A 
HETATM    6  C   UNK N   1      36.043  14.110  12.975  0.00  0.00     0.030 A 
ENDROOT
BRANCH   1   7
HETATM    7  C   UNK N   1      37.022  12.753  14.896  0.00  0.00     0.022 C 
HETATM    8  C   UNK N   1      37.019  11.287  15.342  0.00  0.00     0.039 C 
HETATM    9  C   UNK N   1      35.596  10.761  15.554  0.00  0.00     0.273 C 
HETATM   10  N   UNK N   1      34.833  11.592  16.495  0.00  0.00     0.088 N 
HETATM   11  C   UNK N   1      34.776  12.982  16.019  0.00  0.00     0.273 C 
HETATM   12  C   UNK N   1      36.174  13.594  15.856  0.00  0.00     0.039 C 
BRANCH  10  13
HETATM   13  C   UNK N   1      35.419  11.517  17.835  0.00  0.00     0.272 C 
BRANCH  13  14
HETATM   14  C   UNK N   1      35.344  10.096  18.369  0.00  0.00     0.026 C 
HETATM   15  C   UNK N   1      36.637   9.755  19.078  0.00  0.00     0.007 C 
ENDBRANCH  13  14
ENDBRANCH  10  13
ENDBRANCH   1   7
BRANCH   5  16
HETATM   16  S   UNK N   1      35.128  15.875  11.005  0.00  0.00     0.171 S 
HETATM   17  O   UNK N   1      36.194  16.888  10.557  0.00  0.00    -0.223 OA
HETATM   18  O   UNK N   1      34.187  15.762   9.798  0.00  0.00    -0.223 OA
HETATM   19  C   UNK N   1      36.081  15.073   9.669  0.00  0.00     0.167 C 
ENDBRANCH   5  16
TORSDOF 4
ENDMDL
MODEL 8
REMARK VINA RESULT:      -5.3     23.995     26.290
REMARK  4 active torsions:
REMARK  status: ('A' for Active; 'I' for Inactive)
REMARK    1  A    between atoms: C_2  and  C_3 
REMARK    2  A    between atoms: C_3  and  N_4 
REMARK    3  A    between atoms: C_7  and  C_10 
REMARK    4  A    between atoms: C_14  and  S_16 
ROOT
HETATM    1  C   UNK N   1      34.929  12.117  16.806  0.00  0.00    -0.052 A 
HETATM    2  C   UNK N   1      34.975  13.357  17.452  0.00  0.00     0.007 A 
HETATM    3  C   UNK N   1      35.195  13.434  18.830  0.00  0.00     0.002 A 
HETATM    4  C   UNK N   1      35.399  12.269  19.573  0.00  0.00     0.023 A 
HETATM    5  C   UNK N   1      35.342  11.014  18.949  0.00  0.00     0.059 A 
HETATM    6  C   UNK N   1      35.130  10.943  17.558  0.00  0.00     0.030 A 
ENDROOT
BRANCH   1   7
HETATM    7  C   UNK N   1      34.763  12.067  15.302  0.00  0.00     0.022 C 
HETATM    8  C   UNK N   1      35.189  10.734  14.678  0.00  0.00     0.039 C 
HETATM    9  C   UNK N   1      36.712  10.627  14.553  0.00  0.00     0.273 C 
HETATM   10  N   UNK N   1      37.287  11.755  13.810  0.00  0.00     0.088 N 
HETATM   11  C   UNK N   1      36.937  13.027  14.461  0.00  0.00     0.273 C 
HETATM   12  C   UNK N   1      35.418  13.230  14.550  0.00  0.00     0.039 C 
BRANCH  10  13
HETATM   13  C   UNK N   1      36.837  11.734  12.417  0.00  0.00     0.272 C 
BRANCH  13  14
HETATM   14  C   UNK N   1      37.770  12.556  11.544  0.00  0.00     0.026 C 
HETATM   15  C   UNK N   1      36.977  13.627  10.827  0.00  0.00     0.007 C 
ENDBRANCH  13  14
ENDBRANCH  10  13
ENDBRANCH   1   7
BRANCH   5  16
HETATM   16  S   UNK N   1      35.777   9.518  19.879  0.00  0.00     0.171 S 
HETATM   17  O   UNK N   1      34.817   9.186  21.032  0.00  0.00    -0.223 OA
HETATM   18  O   UNK N   1      35.823   8.231  19.045  0.00  0.00    -0.223 OA
HETATM   19  C   UNK N   1      34.122   9.314  19.136  0.00  0.00     0.167 C 
ENDBRANCH   5  16
TORSDOF 4
ENDMDL
MODEL 9
REMARK VINA RESULT:      -5.2     14.248     16.222
REMARK  4 active torsions:
REMARK  status: ('A' for Active; 'I' for Inactive)
REMARK    1  A    between atoms: C_2  and  C_3 
REMARK    2  A    between atoms: C_3  and  N_4 
REMARK    3  A    between atoms: C_7  and  C_10 
REMARK    4  A    between atoms: C_14  and  S_16 
ROOT
HETATM    1  C   UNK N   1      34.078  16.405   7.466  0.00  0.00    -0.052 A 
HETATM    2  C   UNK N   1      34.764  15.799   6.408  0.00  0.00     0.007 A 
HETATM    3  C   UNK N   1      35.656  14.750   6.645  0.00  0.00     0.002 A 
HETATM    4  C   UNK N   1      35.852  14.279   7.945  0.00  0.00     0.023 A 
HETATM    5  C   UNK N   1      35.187  14.881   9.024  0.00  0.00     0.059 A 
HETATM    6  C   UNK N   1      34.281  15.931   8.777  0.00  0.00     0.030 A 
ENDROOT
BRANCH   1   7
HETATM    7  C   UNK N   1      33.062  17.489   7.171  0.00  0.00     0.022 C 
HETATM    8  C   UNK N   1      32.133  17.800   8.349  0.00  0.00     0.039 C 
HETATM    9  C   UNK N   1      31.029  16.749   8.493  0.00  0.00     0.273 C 
HETATM   10  N   UNK N   1      30.259  16.581   7.254  0.00  0.00     0.088 N 
HETATM   11  C   UNK N   1      31.150  16.206   6.145  0.00  0.00     0.273 C 
HETATM   12  C   UNK N   1      32.238  17.260   5.900  0.00  0.00     0.039 C 
BRANCH  10  13
HETATM   13  C   UNK N   1      29.516  17.804   6.944  0.00  0.00     0.272 C 
BRANCH  13  14
HETATM   14  C   UNK N   1      28.482  17.538   5.862  0.00  0.00     0.026 C 
HETATM   15  C   UNK N   1      28.508  18.664   4.851  0.00  0.00     0.007 C 
ENDBRANCH  13  14
ENDBRANCH  10  13
ENDBRANCH   1   7
BRANCH   5  16
HETATM   16  S   UNK N   1      35.310  14.158  10.683  0.00  0.00     0.171 S 
HETATM   17  O   UNK N   1      36.675  14.352  11.361  0.00  0.00    -0.223 OA
HETATM   18  O   UNK N   1      34.303  14.708  11.702  0.00  0.00    -0.223 OA
HETATM   19  C   UNK N   1      35.592  15.960  10.781  0.00  0.00     0.167 C 
ENDBRANCH   5  16
TORSDOF 4
ENDMDL
