MODEL 1
REMARK VINA RESULT:      -7.5      0.000      0.000
REMARK  5 active torsions:
REMARK  status: ('A' for Active; 'I' for Inactive)
REMARK    1  A    between atoms: C_2  and  C_4 
REMARK    2  A    between atoms: C_2  and  S_7 
REMARK    3  A    between atoms: C_4  and  O_6 
REMARK    4  A    between atoms: S_7  and  C_8 
REMARK    5  A    between atoms: C_14  and  C_15 
ROOT
HETATM    1  C   UNK N   1      26.152  26.610  -6.033  0.00  0.00    -0.012 A 
HETATM    2  C   UNK N   1      25.350  26.905  -4.920  0.00  0.00     0.015 A 
HETATM    3  C   UNK N   1      25.485  28.079  -4.170  0.00  0.00     0.024 A 
HETATM    4  C   UNK N   1      26.437  29.027  -4.523  0.00  0.00     0.055 A 
HETATM    5  C   UNK N   1      27.217  28.819  -5.671  0.00  0.00    -0.004 A 
HETATM    6  C   UNK N   1      27.083  27.614  -6.428  0.00  0.00    -0.013 A 
HETATM    7  C   UNK N   1      27.909  27.438  -7.545  0.00  0.00     0.013 A 
HETATM    8  C   UNK N   1      28.841  28.399  -7.916  0.00  0.00     0.001 A 
HETATM    9  C   UNK N   1      28.977  29.564  -7.169  0.00  0.00     0.001 A 
HETATM   10  C   UNK N   1      28.171  29.774  -6.052  0.00  0.00     0.014 A 
HETATM   11  C   UNK N   1      26.652  30.166  -3.651  0.00  0.00     0.100 C 
HETATM   12  N   UNK N   1      26.794  31.062  -2.931  0.00  0.00    -0.191 NA
ENDROOT
BRANCH   1  13
HETATM   13  C   UNK N   1      26.092  25.215  -6.680  0.00  0.00     0.007 A 
HETATM   14  C   UNK N   1      25.559  25.075  -7.987  0.00  0.00     0.101 A 
HETATM   15  N   UNK N   1      25.554  23.888  -8.650  0.00  0.00    -0.374 N 
HETATM   16  C   UNK N   1      26.078  22.771  -8.092  0.00  0.00     0.089 A 
ATOM     17  HN  UNK N   1      25.150  23.838  -9.585  1.00  0.00     0.164 HD
HETATM   18  C   UNK N   1      26.574  22.816  -6.786  0.00  0.00     0.036 A 
HETATM   19  C   UNK N   1      26.601  24.030  -6.068  0.00  0.00     0.015 A 
BRANCH  19  20
HETATM   20  S   UNK N   1      26.981  23.948  -4.292  0.00  0.00    -0.109 SA
BRANCH  20  21
HETATM   21  C   UNK N   1      28.804  23.900  -3.924  0.00  0.00     0.091 C 
HETATM   22  C   UNK N   1      29.730  23.115  -4.874  0.00  0.00     0.038 C 
HETATM   23  C   UNK N   1      29.143  25.397  -4.032  0.00  0.00     0.038 C 
BRANCH  21  24
HETATM   24  C   UNK N   1      29.067  23.404  -2.518  0.00  0.00     0.158 C 
HETATM   25  O   UNK N   1      28.139  23.080  -1.790  0.00  0.00    -0.649 OA
BRANCH  24  26
HETATM   26  O   UNK N   1      30.314  23.445  -2.009  0.00  0.00    -0.775 OA
HETATM   27  H   UNK N   1      30.960  24.059  -2.298  0.00  0.00     0.167 HD
ENDBRANCH  24  26
ENDBRANCH  21  24
ENDBRANCH  20  21
ENDBRANCH  19  20
ENDBRANCH   1  13
TORSDOF 5
ENDMDL
MODEL 2
REMARK VINA RESULT:      -7.0     11.091     14.476
REMARK  5 active torsions:
REMARK  status: ('A' for Active; 'I' for Inactive)
REMARK    1  A    between atoms: C_2  and  C_4 
REMARK    2  A    between atoms: C_2  and  S_7 
REMARK    3  A    between atoms: C_4  and  O_6 
REMARK    4  A    between atoms: S_7  and  C_8 
REMARK    5  A    between atoms: C_14  and  C_15 
ROOT
HETATM    1  C   UNK N   1      27.796  18.637   6.083  0.00  0.00    -0.012 A 
HETATM    2  C   UNK N   1      27.812  19.999   5.746  0.00  0.00     0.015 A 
HETATM    3  C   UNK N   1      27.010  20.547   4.739  0.00  0.00     0.024 A 
HETATM    4  C   UNK N   1      26.131  19.738   4.028  0.00  0.00     0.055 A 
HETATM    5  C   UNK N   1      26.020  18.382   4.373  0.00  0.00    -0.004 A 
HETATM    6  C   UNK N   1      26.849  17.825   5.395  0.00  0.00    -0.013 A 
HETATM    7  C   UNK N   1      26.724  16.459   5.678  0.00  0.00     0.013 A 
HETATM    8  C   UNK N   1      25.826  15.655   4.987  0.00  0.00     0.001 A 
HETATM    9  C   UNK N   1      25.030  16.199   3.985  0.00  0.00     0.001 A 
HETATM   10  C   UNK N   1      25.126  17.554   3.678  0.00  0.00     0.014 A 
HETATM   11  C   UNK N   1      25.415  20.300   2.900  0.00  0.00     0.100 C 
HETATM   12  N   UNK N   1      24.859  20.784   2.006  0.00  0.00    -0.191 NA
ENDROOT
BRANCH   1  13
HETATM   13  C   UNK N   1      28.850  18.068   7.049  0.00  0.00     0.007 A 
HETATM   14  C   UNK N   1      28.642  18.171   8.448  0.00  0.00     0.101 A 
HETATM   15  N   UNK N   1      29.489  17.615   9.356  0.00  0.00    -0.374 N 
HETATM   16  C   UNK N   1      30.579  16.916   8.960  0.00  0.00     0.089 A 
ATOM     17  HN  UNK N   1      29.299  17.727  10.351  1.00  0.00     0.164 HD
HETATM   18  C   UNK N   1      30.882  16.815   7.599  0.00  0.00     0.036 A 
HETATM   19  C   UNK N   1      30.025  17.373   6.628  0.00  0.00     0.015 A 
BRANCH  19  20
HETATM   20  S   UNK N   1      30.634  17.457   4.918  0.00  0.00    -0.109 SA
BRANCH  20  21
HETATM   21  C   UNK N   1      30.331  15.900   3.944  0.00  0.00     0.091 C 
HETATM   22  C   UNK N   1      29.807  14.655   4.686  0.00  0.00     0.038 C 
HETATM   23  C   UNK N   1      29.242  16.392   2.976  0.00  0.00     0.038 C 
BRANCH  21  24
HETATM   24  C   UNK N   1      31.568  15.486   3.174  0.00  0.00     0.158 C 
HETATM   25  O   UNK N   1      31.909  14.312   3.134  0.00  0.00    -0.649 OA
BRANCH  24  26
HETATM   26  O   UNK N   1      32.378  16.423   2.643  0.00  0.00    -0.775 OA
HETATM   27  H   UNK N   1      32.057  17.222   2.275  0.00  0.00     0.167 HD
ENDBRANCH  24  26
ENDBRANCH  21  24
ENDBRANCH  20  21
ENDBRANCH  19  20
ENDBRANCH   1  13
TORSDOF 5
ENDMDL
MODEL 3
REMARK VINA RESULT:      -7.0      3.461      5.885
REMARK  5 active torsions:
REMARK  status: ('A' for Active; 'I' for Inactive)
REMARK    1  A    between atoms: C_2  and  C_4 
REMARK    2  A    between atoms: C_2  and  S_7 
REMARK    3  A    between atoms: C_4  and  O_6 
REMARK    4  A    between atoms: S_7  and  C_8 
REMARK    5  A    between atoms: C_14  and  C_15 
ROOT
HETATM    1  C   UNK N   1      28.207  24.961  -3.754  0.00  0.00    -0.012 A 
HETATM    2  C   UNK N   1      28.057  23.914  -2.832  0.00  0.00     0.015 A 
HETATM    3  C   UNK N   1      29.109  23.076  -2.449  0.00  0.00     0.024 A 
HETATM    4  C   UNK N   1      30.382  23.269  -2.972  0.00  0.00     0.055 A 
HETATM    5  C   UNK N   1      30.607  24.347  -3.842  0.00  0.00    -0.004 A 
HETATM    6  C   UNK N   1      29.526  25.194  -4.239  0.00  0.00    -0.013 A 
HETATM    7  C   UNK N   1      29.795  26.235  -5.136  0.00  0.00     0.013 A 
HETATM    8  C   UNK N   1      31.073  26.447  -5.639  0.00  0.00     0.001 A 
HETATM    9  C   UNK N   1      32.120  25.612  -5.259  0.00  0.00     0.001 A 
HETATM   10  C   UNK N   1      31.889  24.568  -4.367  0.00  0.00     0.014 A 
HETATM   11  C   UNK N   1      31.421  22.304  -2.668  0.00  0.00     0.100 C 
HETATM   12  N   UNK N   1      32.226  21.515  -2.401  0.00  0.00    -0.191 NA
ENDROOT
BRANCH   1  13
HETATM   13  C   UNK N   1      26.969  25.705  -4.287  0.00  0.00     0.007 A 
HETATM   14  C   UNK N   1      26.570  26.921  -3.678  0.00  0.00     0.101 A 
HETATM   15  N   UNK N   1      25.540  27.672  -4.152  0.00  0.00    -0.374 N 
HETATM   16  C   UNK N   1      24.845  27.295  -5.251  0.00  0.00     0.089 A 
ATOM     17  HN  UNK N   1      25.287  28.535  -3.671  1.00  0.00     0.164 HD
HETATM   18  C   UNK N   1      25.143  26.080  -5.876  0.00  0.00     0.036 A 
HETATM   19  C   UNK N   1      26.208  25.277  -5.418  0.00  0.00     0.015 A 
BRANCH  19  20
HETATM   20  S   UNK N   1      26.341  23.593  -6.089  0.00  0.00    -0.109 SA
BRANCH  20  21
HETATM   21  C   UNK N   1      26.546  23.545  -7.937  0.00  0.00     0.091 C 
HETATM   22  C   UNK N   1      27.382  24.647  -8.617  0.00  0.00     0.038 C 
HETATM   23  C   UNK N   1      27.279  22.202  -8.095  0.00  0.00     0.038 C 
BRANCH  21  24
HETATM   24  C   UNK N   1      25.204  23.493  -8.637  0.00  0.00     0.158 C 
HETATM   25  O   UNK N   1      24.385  22.633  -8.346  0.00  0.00    -0.649 OA
BRANCH  24  26
HETATM   26  O   UNK N   1      24.955  24.308  -9.681  0.00  0.00    -0.775 OA
HETATM   27  H   UNK N   1      24.155  24.279 -10.169  0.00  0.00     0.167 HD
ENDBRANCH  24  26
ENDBRANCH  21  24
ENDBRANCH  20  21
ENDBRANCH  19  20
ENDBRANCH   1  13
TORSDOF 5
ENDMDL
MODEL 4
REMARK VINA RESULT:      -6.8     13.295     15.719
REMARK  5 active torsions:
REMARK  status: ('A' for Active; 'I' for Inactive)
REMARK    1  A    between atoms: C_2  and  C_4 
REMARK    2  A    between atoms: C_2  and  S_7 
REMARK    3  A    between atoms: C_4  and  O_6 
REMARK    4  A    between atoms: S_7  and  C_8 
REMARK    5  A    between atoms: C_14  and  C_15 
ROOT
HETATM    1  C   UNK N   1      29.441  16.870   5.521  0.00  0.00    -0.012 A 
HETATM    2  C   UNK N   1      28.861  17.601   4.473  0.00  0.00     0.015 A 
HETATM    3  C   UNK N   1      28.116  18.767   4.675  0.00  0.00     0.024 A 
HETATM    4  C   UNK N   1      27.933  19.265   5.960  0.00  0.00     0.055 A 
HETATM    5  C   UNK N   1      28.552  18.616   7.039  0.00  0.00    -0.004 A 
HETATM    6  C   UNK N   1      29.304  17.419   6.829  0.00  0.00    -0.013 A 
HETATM    7  C   UNK N   1      29.873  16.789   7.942  0.00  0.00     0.013 A 
HETATM    8  C   UNK N   1      29.715  17.302   9.224  0.00  0.00     0.001 A 
HETATM    9  C   UNK N   1      28.972  18.461   9.426  0.00  0.00     0.001 A 
HETATM   10  C   UNK N   1      28.393  19.114   8.341  0.00  0.00     0.014 A 
HETATM   11  C   UNK N   1      27.042  20.393   6.156  0.00  0.00     0.100 C 
HETATM   12  N   UNK N   1      26.326  21.296   6.274  0.00  0.00    -0.191 NA
ENDROOT
BRANCH   1  13
HETATM   13  C   UNK N   1      30.065  15.489   5.248  0.00  0.00     0.007 A 
HETATM   14  C   UNK N   1      29.227  14.348   5.170  0.00  0.00     0.101 A 
HETATM   15  N   UNK N   1      29.700  13.115   4.848  0.00  0.00    -0.374 N 
HETATM   16  C   UNK N   1      31.011  12.918   4.570  0.00  0.00     0.089 A 
ATOM     17  HN  UNK N   1      29.057  12.324   4.814  1.00  0.00     0.164 HD
HETATM   18  C   UNK N   1      31.910  13.983   4.679  0.00  0.00     0.036 A 
HETATM   19  C   UNK N   1      31.456  15.278   5.004  0.00  0.00     0.015 A 
BRANCH  19  20
HETATM   20  S   UNK N   1      32.708  16.530   5.413  0.00  0.00    -0.109 SA
BRANCH  20  21
HETATM   21  C   UNK N   1      33.636  16.168   6.984  0.00  0.00     0.091 C 
HETATM   22  C   UNK N   1      33.066  15.112   7.952  0.00  0.00     0.038 C 
HETATM   23  C   UNK N   1      34.959  15.641   6.404  0.00  0.00     0.038 C 
BRANCH  21  24
HETATM   24  C   UNK N   1      33.880  17.432   7.781  0.00  0.00     0.158 C 
HETATM   25  O   UNK N   1      34.636  18.296   7.360  0.00  0.00    -0.649 OA
BRANCH  24  26
HETATM   26  O   UNK N   1      33.373  17.555   9.024  0.00  0.00    -0.775 OA
HETATM   27  H   UNK N   1      33.758  18.106   9.677  0.00  0.00     0.167 HD
ENDBRANCH  24  26
ENDBRANCH  21  24
ENDBRANCH  20  21
ENDBRANCH  19  20
ENDBRANCH   1  13
TORSDOF 5
ENDMDL
MODEL 5
REMARK VINA RESULT:      -6.7     14.119     17.356
REMARK  5 active torsions:
REMARK  status: ('A' for Active; 'I' for Inactive)
REMARK    1  A    between atoms: C_2  and  C_4 
REMARK    2  A    between atoms: C_2  and  S_7 
REMARK    3  A    between atoms: C_4  and  O_6 
REMARK    4  A    between atoms: S_7  and  C_8 
REMARK    5  A    between atoms: C_14  and  C_15 
ROOT
HETATM    1  C   UNK N   1      32.011  17.234   7.264  0.00  0.00    -0.012 A 
HETATM    2  C   UNK N   1      32.214  17.180   5.877  0.00  0.00     0.015 A 
HETATM    3  C   UNK N   1      31.170  17.247   4.948  0.00  0.00     0.024 A 
HETATM    4  C   UNK N   1      29.857  17.390   5.382  0.00  0.00     0.055 A 
HETATM    5  C   UNK N   1      29.602  17.523   6.756  0.00  0.00    -0.004 A 
HETATM    6  C   UNK N   1      30.671  17.443   7.701  0.00  0.00    -0.013 A 
HETATM    7  C   UNK N   1      30.361  17.547   9.062  0.00  0.00     0.013 A 
HETATM    8  C   UNK N   1      29.052  17.718   9.497  0.00  0.00     0.001 A 
HETATM    9  C   UNK N   1      28.013  17.783   8.573  0.00  0.00     0.001 A 
HETATM   10  C   UNK N   1      28.286  17.685   7.211  0.00  0.00     0.014 A 
HETATM   11  C   UNK N   1      28.784  17.317   4.410  0.00  0.00     0.100 C 
HETATM   12  N   UNK N   1      27.953  17.255   3.605  0.00  0.00    -0.191 NA
ENDROOT
BRANCH   1  13
HETATM   13  C   UNK N   1      33.176  16.943   8.227  0.00  0.00     0.007 A 
HETATM   14  C   UNK N   1      34.071  17.987   8.573  0.00  0.00     0.101 A 
HETATM   15  N   UNK N   1      35.069  17.822   9.482  0.00  0.00    -0.374 N 
HETATM   16  C   UNK N   1      35.248  16.641  10.119  0.00  0.00     0.089 A 
ATOM     17  HN  UNK N   1      35.693  18.602   9.689  1.00  0.00     0.164 HD
HETATM   18  C   UNK N   1      34.440  15.548   9.794  0.00  0.00     0.036 A 
HETATM   19  C   UNK N   1      33.391  15.681   8.860  0.00  0.00     0.015 A 
BRANCH  19  20
HETATM   20  S   UNK N   1      32.586  14.160   8.277  0.00  0.00    -0.109 SA
BRANCH  20  21
HETATM   21  C   UNK N   1      33.245  13.549   6.648  0.00  0.00     0.091 C 
HETATM   22  C   UNK N   1      34.505  14.217   6.062  0.00  0.00     0.038 C 
HETATM   23  C   UNK N   1      33.585  12.096   7.020  0.00  0.00     0.038 C 
BRANCH  21  24
HETATM   24  C   UNK N   1      32.174  13.578   5.577  0.00  0.00     0.158 C 
HETATM   25  O   UNK N   1      32.473  13.467   4.396  0.00  0.00    -0.649 OA
BRANCH  24  26
HETATM   26  O   UNK N   1      30.899  13.866   5.905  0.00  0.00    -0.775 OA
HETATM   27  H   UNK N   1      30.589  14.742   6.017  0.00  0.00     0.167 HD
ENDBRANCH  24  26
ENDBRANCH  21  24
ENDBRANCH  20  21
ENDBRANCH  19  20
ENDBRANCH   1  13
TORSDOF 5
ENDMDL
MODEL 6
REMARK VINA RESULT:      -6.7     11.689     15.000
REMARK  5 active torsions:
REMARK  status: ('A' for Active; 'I' for Inactive)
REMARK    1  A    between atoms: C_2  and  C_4 
REMARK    2  A    between atoms: C_2  and  S_7 
REMARK    3  A    between atoms: C_4  and  O_6 
REMARK    4  A    between atoms: S_7  and  C_8 
REMARK    5  A    between atoms: C_14  and  C_15 
ROOT
HETATM    1  C   UNK N   1      29.015  17.909   5.404  0.00  0.00    -0.012 A 
HETATM    2  C   UNK N   1      30.133  17.529   4.647  0.00  0.00     0.015 A 
HETATM    3  C   UNK N   1      31.356  17.163   5.219  0.00  0.00     0.024 A 
HETATM    4  C   UNK N   1      31.504  17.147   6.601  0.00  0.00     0.055 A 
HETATM    5  C   UNK N   1      30.396  17.446   7.410  0.00  0.00    -0.004 A 
HETATM    6  C   UNK N   1      29.152  17.831   6.821  0.00  0.00    -0.013 A 
HETATM    7  C   UNK N   1      28.088  18.153   7.671  0.00  0.00     0.013 A 
HETATM    8  C   UNK N   1      28.225  18.110   9.053  0.00  0.00     0.001 A 
HETATM    9  C   UNK N   1      29.442  17.748   9.623  0.00  0.00     0.001 A 
HETATM   10  C   UNK N   1      30.522  17.419   8.807  0.00  0.00     0.014 A 
HETATM   11  C   UNK N   1      32.817  16.900   7.165  0.00  0.00     0.100 C 
HETATM   12  N   UNK N   1      33.879  16.698   7.579  0.00  0.00    -0.191 NA
ENDROOT
BRANCH   1  13
HETATM   13  C   UNK N   1      27.775  18.500   4.710  0.00  0.00     0.007 A 
HETATM   14  C   UNK N   1      27.741  19.883   4.402  0.00  0.00     0.101 A 
HETATM   15  N   UNK N   1      26.715  20.453   3.714  0.00  0.00    -0.374 N 
HETATM   16  C   UNK N   1      25.670  19.713   3.274  0.00  0.00     0.089 A 
ATOM     17  HN  UNK N   1      26.734  21.455   3.526  1.00  0.00     0.164 HD
HETATM   18  C   UNK N   1      25.605  18.352   3.585  0.00  0.00     0.036 A 
HETATM   19  C   UNK N   1      26.652  17.724   4.291  0.00  0.00     0.015 A 
BRANCH  19  20
HETATM   20  S   UNK N   1      26.358  16.039   4.907  0.00  0.00    -0.109 SA
BRANCH  20  21
HETATM   21  C   UNK N   1      27.338  14.738   4.008  0.00  0.00     0.091 C 
HETATM   22  C   UNK N   1      28.634  14.210   4.654  0.00  0.00     0.038 C 
HETATM   23  C   UNK N   1      26.306  13.598   3.970  0.00  0.00     0.038 C 
BRANCH  21  24
HETATM   24  C   UNK N   1      27.678  15.183   2.601  0.00  0.00     0.158 C 
HETATM   25  O   UNK N   1      26.801  15.296   1.756  0.00  0.00    -0.649 OA
BRANCH  24  26
HETATM   26  O   UNK N   1      28.966  15.324   2.230  0.00  0.00    -0.775 OA
HETATM   27  H   UNK N   1      29.677  15.288   2.840  0.00  0.00     0.167 HD
ENDBRANCH  24  26
ENDBRANCH  21  24
ENDBRANCH  20  21
ENDBRANCH  19  20
ENDBRANCH   1  13
TORSDOF 5
ENDMDL
MODEL 7
REMARK VINA RESULT:      -6.7     11.842     14.257
REMARK  5 active torsions:
REMARK  status: ('A' for Active; 'I' for Inactive)
REMARK    1  A    between atoms: C_2  and  C_4 
REMARK    2  A    between atoms: C_2  and  S_7 
REMARK    3  A    between atoms: C_4  and  O_6 
REMARK    4  A    between atoms: S_7  and  C_8 
REMARK    5  A    between atoms: C_14  and  C_15 
ROOT
HETATM    1  C   UNK N   1      26.706  17.567   4.042  0.00  0.00    -0.012 A 
HETATM    2  C   UNK N   1      27.028  18.906   3.778  0.00  0.00     0.015 A 
HETATM    3  C   UNK N   1      26.065  19.888   3.523  0.00  0.00     0.024 A 
HETATM    4  C   UNK N   1      24.714  19.562   3.540  0.00  0.00     0.055 A 
HETATM    5  C   UNK N   1      24.331  18.253   3.872  0.00  0.00    -0.004 A 
HETATM    6  C   UNK N   1      25.319  17.251   4.121  0.00  0.00    -0.013 A 
HETATM    7  C   UNK N   1      24.886  15.953   4.414  0.00  0.00     0.013 A 
HETATM    8  C   UNK N   1      23.534  15.632   4.460  0.00  0.00     0.001 A 
HETATM    9  C   UNK N   1      22.576  16.608   4.205  0.00  0.00     0.001 A 
HETATM   10  C   UNK N   1      22.971  17.911   3.912  0.00  0.00     0.014 A 
HETATM   11  C   UNK N   1      23.745  20.563   3.137  0.00  0.00     0.100 C 
HETATM   12  N   UNK N   1      23.000  21.388   2.810  0.00  0.00    -0.191 NA
ENDROOT
BRANCH   1  13
HETATM   13  C   UNK N   1      27.817  16.502   4.105  0.00  0.00     0.007 A 
HETATM   14  C   UNK N   1      28.262  15.888   2.907  0.00  0.00     0.101 A 
HETATM   15  N   UNK N   1      29.295  15.004   2.879  0.00  0.00    -0.374 N 
HETATM   16  C   UNK N   1      29.965  14.674   4.008  0.00  0.00     0.089 A 
ATOM     17  HN  UNK N   1      29.570  14.582   1.992  1.00  0.00     0.164 HD
HETATM   18  C   UNK N   1      29.551  15.196   5.238  0.00  0.00     0.036 A 
HETATM   19  C   UNK N   1      28.488  16.121   5.306  0.00  0.00     0.015 A 
BRANCH  19  20
HETATM   20  S   UNK N   1      27.825  16.520   6.950  0.00  0.00    -0.109 SA
BRANCH  20  21
HETATM   21  C   UNK N   1      28.899  17.689   7.920  0.00  0.00     0.091 C 
HETATM   22  C   UNK N   1      30.417  17.692   7.654  0.00  0.00     0.038 C 
HETATM   23  C   UNK N   1      28.316  19.037   7.462  0.00  0.00     0.038 C 
BRANCH  21  24
HETATM   24  C   UNK N   1      28.698  17.511   9.410  0.00  0.00     0.158 C 
HETATM   25  O   UNK N   1      27.688  16.971   9.840  0.00  0.00    -0.649 OA
BRANCH  24  26
HETATM   26  O   UNK N   1      29.563  18.069  10.280  0.00  0.00    -0.775 OA
HETATM   27  H   UNK N   1      29.804  18.974  10.247  0.00  0.00     0.167 HD
ENDBRANCH  24  26
ENDBRANCH  21  24
ENDBRANCH  20  21
ENDBRANCH  19  20
ENDBRANCH   1  13
TORSDOF 5
ENDMDL
MODEL 8
REMARK VINA RESULT:      -6.6      3.239      6.321
REMARK  5 active torsions:
REMARK  status: ('A' for Active; 'I' for Inactive)
REMARK    1  A    between atoms: C_2  and  C_4 
REMARK    2  A    between atoms: C_2  and  S_7 
REMARK    3  A    between atoms: C_4  and  O_6 
REMARK    4  A    between atoms: S_7  and  C_8 
REMARK    5  A    between atoms: C_14  and  C_15 
ROOT
HETATM    1  C   UNK N   1      28.776  25.068  -5.363  0.00  0.00    -0.012 A 
HETATM    2  C   UNK N   1      29.625  25.253  -6.464  0.00  0.00     0.015 A 
HETATM    3  C   UNK N   1      30.920  24.728  -6.529  0.00  0.00     0.024 A 
HETATM    4  C   UNK N   1      31.418  23.967  -5.478  0.00  0.00     0.055 A 
HETATM    5  C   UNK N   1      30.587  23.687  -4.382  0.00  0.00    -0.004 A 
HETATM    6  C   UNK N   1      29.268  24.235  -4.316  0.00  0.00    -0.013 A 
HETATM    7  C   UNK N   1      28.491  23.955  -3.186  0.00  0.00     0.013 A 
HETATM    8  C   UNK N   1      28.977  23.171  -2.147  0.00  0.00     0.001 A 
HETATM    9  C   UNK N   1      30.266  22.651  -2.210  0.00  0.00     0.001 A 
HETATM   10  C   UNK N   1      31.067  22.907  -3.320  0.00  0.00     0.014 A 
HETATM   11  C   UNK N   1      32.808  23.553  -5.507  0.00  0.00     0.100 C 
HETATM   12  N   UNK N   1      33.921  23.239  -5.566  0.00  0.00    -0.191 NA
ENDROOT
BRANCH   1  13
HETATM   13  C   UNK N   1      27.451  25.845  -5.268  0.00  0.00     0.007 A 
HETATM   14  C   UNK N   1      27.463  27.192  -4.823  0.00  0.00     0.101 A 
HETATM   15  N   UNK N   1      26.343  27.962  -4.796  0.00  0.00    -0.374 N 
HETATM   16  C   UNK N   1      25.149  27.477  -5.212  0.00  0.00     0.089 A 
ATOM     17  HN  UNK N   1      26.403  28.922  -4.458  1.00  0.00     0.164 HD
HETATM   18  C   UNK N   1      25.045  26.142  -5.614  0.00  0.00     0.036 A 
HETATM   19  C   UNK N   1      26.186  25.314  -5.661  0.00  0.00     0.015 A 
BRANCH  19  20
HETATM   20  S   UNK N   1      25.921  23.532  -5.905  0.00  0.00    -0.109 SA
BRANCH  20  21
HETATM   21  C   UNK N   1      25.848  23.032  -7.696  0.00  0.00     0.091 C 
HETATM   22  C   UNK N   1      25.476  24.096  -8.746  0.00  0.00     0.038 C 
HETATM   23  C   UNK N   1      27.309  22.607  -7.920  0.00  0.00     0.038 C 
BRANCH  21  24
HETATM   24  C   UNK N   1      24.923  21.850  -7.897  0.00  0.00     0.158 C 
HETATM   25  O   UNK N   1      25.374  20.716  -7.988  0.00  0.00    -0.649 OA
BRANCH  24  26
HETATM   26  O   UNK N   1      23.608  22.051  -8.117  0.00  0.00    -0.775 OA
HETATM   27  H   UNK N   1      22.940  21.556  -7.686  0.00  0.00     0.167 HD
ENDBRANCH  24  26
ENDBRANCH  21  24
ENDBRANCH  20  21
ENDBRANCH  19  20
ENDBRANCH   1  13
TORSDOF 5
ENDMDL
MODEL 9
REMARK VINA RESULT:      -6.6      2.951      5.194
REMARK  5 active torsions:
REMARK  status: ('A' for Active; 'I' for Inactive)
REMARK    1  A    between atoms: C_2  and  C_4 
REMARK    2  A    between atoms: C_2  and  S_7 
REMARK    3  A    between atoms: C_4  and  O_6 
REMARK    4  A    between atoms: S_7  and  C_8 
REMARK    5  A    between atoms: C_14  and  C_15 
ROOT
HETATM    1  C   UNK N   1      27.301  24.053  -7.178  0.00  0.00    -0.012 A 
HETATM    2  C   UNK N   1      26.092  23.418  -7.497  0.00  0.00     0.015 A 
HETATM    3  C   UNK N   1      25.293  23.794  -8.583  0.00  0.00     0.024 A 
HETATM    4  C   UNK N   1      25.693  24.832  -9.416  0.00  0.00     0.055 A 
HETATM    5  C   UNK N   1      26.930  25.455  -9.188  0.00  0.00    -0.004 A 
HETATM    6  C   UNK N   1      27.736  25.074  -8.071  0.00  0.00    -0.013 A 
HETATM    7  C   UNK N   1      28.946  25.749  -7.867  0.00  0.00     0.013 A 
HETATM    8  C   UNK N   1      29.360  26.768  -8.716  0.00  0.00     0.001 A 
HETATM    9  C   UNK N   1      28.565  27.144  -9.794  0.00  0.00     0.001 A 
HETATM   10  C   UNK N   1      27.357  26.493 -10.029  0.00  0.00     0.014 A 
HETATM   11  C   UNK N   1      24.784  25.295 -10.448  0.00  0.00     0.100 C 
HETATM   12  N   UNK N   1      24.033  25.636 -11.261  0.00  0.00    -0.191 NA
ENDROOT
BRANCH   1  13
HETATM   13  C   UNK N   1      28.019  23.729  -5.855  0.00  0.00     0.007 A 
HETATM   14  C   UNK N   1      29.049  22.754  -5.841  0.00  0.00     0.101 A 
HETATM   15  N   UNK N   1      29.780  22.481  -4.728  0.00  0.00    -0.374 N 
HETATM   16  C   UNK N   1      29.566  23.145  -3.568  0.00  0.00     0.089 A 
ATOM     17  HN  UNK N   1      30.504  21.763  -4.768  1.00  0.00     0.164 HD
HETATM   18  C   UNK N   1      28.532  24.082  -3.487  0.00  0.00     0.036 A 
HETATM   19  C   UNK N   1      27.755  24.397  -4.621  0.00  0.00     0.015 A 
BRANCH  19  20
HETATM   20  S   UNK N   1      26.257  25.394  -4.364  0.00  0.00    -0.109 SA
BRANCH  20  21
HETATM   21  C   UNK N   1      26.443  27.166  -4.899  0.00  0.00     0.091 C 
HETATM   22  C   UNK N   1      27.834  27.663  -5.338  0.00  0.00     0.038 C 
HETATM   23  C   UNK N   1      25.507  27.181  -6.120  0.00  0.00     0.038 C 
BRANCH  21  24
HETATM   24  C   UNK N   1      25.933  28.116  -3.836  0.00  0.00     0.158 C 
HETATM   25  O   UNK N   1      26.032  29.326  -3.986  0.00  0.00    -0.649 OA
BRANCH  24  26
HETATM   26  O   UNK N   1      25.492  27.636  -2.657  0.00  0.00    -0.775 OA
HETATM   27  H   UNK N   1      24.862  28.085  -2.129  0.00  0.00     0.167 HD
ENDBRANCH  24  26
ENDBRANCH  21  24
ENDBRANCH  20  21
ENDBRANCH  19  20
ENDBRANCH   1  13
TORSDOF 5
ENDMDL
