MODEL 1
REMARK VINA RESULT:      -4.8      0.000      0.000
REMARK  19 active torsions:
REMARK  status: ('A' for Active; 'I' for Inactive)
REMARK    1  A    between atoms: C_2  and  C_3 
REMARK    2  A    between atoms: C_3  and  C_4 
REMARK    3  A    between atoms: C_4  and  C_5 
REMARK    4  A    between atoms: C_5  and  C_6 
REMARK    5  A    between atoms: C_6  and  C_7 
REMARK    6  A    between atoms: C_7  and  C_8 
REMARK    7  A    between atoms: C_8  and  C_9 
REMARK    8  A    between atoms: C_9  and  C_10 
REMARK    9  A    between atoms: C_10  and  C_11 
REMARK   10  A    between atoms: C_11  and  C_12 
REMARK   11  A    between atoms: C_12  and  C_13 
REMARK   12  A    between atoms: C_13  and  C_14 
REMARK   13  A    between atoms: C_14  and  C_15 
REMARK   14  A    between atoms: C_15  and  C_16 
REMARK   15  A    between atoms: C_16  and  C_17 
REMARK   16  A    between atoms: C_16  and  O_21 
REMARK   17  A    between atoms: C_17  and  C_18 
REMARK   18  A    between atoms: C_17  and  N_20 
REMARK   19  A    between atoms: C_18  and  O_19 
ROOT
HETATM    1  C   UNK N   1      36.443  13.072  14.562  0.00  0.00     0.000 C 
ENDROOT
BRANCH   1   2
HETATM    2  C   UNK N   1      36.265  13.843  15.859  0.00  0.00     0.000 C 
BRANCH   2   3
HETATM    3  C   UNK N   1      35.203  13.223  16.759  0.00  0.00     0.000 C 
BRANCH   3   4
HETATM    4  C   UNK N   1      35.290  13.805  18.163  0.00  0.00     0.000 C 
BRANCH   4   5
HETATM    5  C   UNK N   1      35.386  12.712  19.219  0.00  0.00     0.000 C 
BRANCH   5   6
HETATM    6  C   UNK N   1      35.075  11.346  18.621  0.00  0.00     0.000 C 
BRANCH   6   7
HETATM    7  C   UNK N   1      36.323  10.486  18.583  0.00  0.00     0.000 C 
BRANCH   7   8
HETATM    8  C   UNK N   1      36.152   9.389  17.548  0.00  0.00     0.000 C 
BRANCH   8   9
HETATM    9  C   UNK N   1      36.794   9.816  16.244  0.00  0.00     0.000 C 
BRANCH   9  10
HETATM   10  C   UNK N   1      35.829   9.622  15.093  0.00  0.00     0.000 C 
BRANCH  10  11
HETATM   11  C   UNK N   1      34.429   9.925  15.576  0.00  0.00    -0.000 C 
BRANCH  11  12
HETATM   12  C   UNK N   1      33.670  10.682  14.508  0.00  0.00    -0.005 C 
HETATM   13  C   UNK N   1      34.207  10.295  13.147  0.00  0.00     0.005 C 
ENDBRANCH  11  12
ENDBRANCH  10  11
ENDBRANCH   9  10
ENDBRANCH   8   9
ENDBRANCH   7   8
ENDBRANCH   6   7
ENDBRANCH   5   6
ENDBRANCH   4   5
ENDBRANCH   3   4
ENDBRANCH   2   3
ENDBRANCH   1   2
BRANCH   1  14
HETATM   14  C   UNK N   1      35.692  13.712  13.403  0.00  0.00     0.002 C 
BRANCH  14  15
HETATM   15  C   UNK N   1      36.297  15.075  13.113  0.00  0.00     0.034 C 
BRANCH  15  16
HETATM   16  C   UNK N   1      35.806  15.587  11.764  0.00  0.00     0.142 C 
BRANCH  16  17
HETATM   17  C   UNK N   1      34.952  14.532  11.055  0.00  0.00     0.126 C 
BRANCH  17  18
HETATM   18  C   UNK N   1      35.543  14.168   9.698  0.00  0.00     0.191 C 
BRANCH  18  19
HETATM   19  O   UNK N   1      35.341  15.197   8.779  0.00  0.00    -0.399 OA
HETATM   20  H   UNK N   1      35.248  15.036   7.827  0.00  0.00     0.209 HD
ENDBRANCH  18  19
ENDBRANCH  17  18
BRANCH  17  21
HETATM   21  N   UNK N   1      33.614  15.055  10.839  0.00  0.00    -0.422 N 
HETATM   22  H   UNK N   1      32.963  15.166  11.617  0.00  0.00     0.150 HD
HETATM   23  H   UNK N   1      33.321  15.316   9.897  0.00  0.00     0.150 HD
ENDBRANCH  17  21
ENDBRANCH  16  17
BRANCH  16  24
HETATM   24  O   UNK N   1      36.905  15.951  10.986  0.00  0.00    -0.393 OA
HETATM   25  H   UNK N   1      37.368  15.298  10.439  0.00  0.00     0.210 HD
ENDBRANCH  16  24
ENDBRANCH  15  16
ENDBRANCH  14  15
ENDBRANCH   1  14
TORSDOF 19
ENDMDL
MODEL 2
REMARK VINA RESULT:      -4.5      1.613      3.462
REMARK  19 active torsions:
REMARK  status: ('A' for Active; 'I' for Inactive)
REMARK    1  A    between atoms: C_2  and  C_3 
REMARK    2  A    between atoms: C_3  and  C_4 
REMARK    3  A    between atoms: C_4  and  C_5 
REMARK    4  A    between atoms: C_5  and  C_6 
REMARK    5  A    between atoms: C_6  and  C_7 
REMARK    6  A    between atoms: C_7  and  C_8 
REMARK    7  A    between atoms: C_8  and  C_9 
REMARK    8  A    between atoms: C_9  and  C_10 
REMARK    9  A    between atoms: C_10  and  C_11 
REMARK   10  A    between atoms: C_11  and  C_12 
REMARK   11  A    between atoms: C_12  and  C_13 
REMARK   12  A    between atoms: C_13  and  C_14 
REMARK   13  A    between atoms: C_14  and  C_15 
REMARK   14  A    between atoms: C_15  and  C_16 
REMARK   15  A    between atoms: C_16  and  C_17 
REMARK   16  A    between atoms: C_16  and  O_21 
REMARK   17  A    between atoms: C_17  and  C_18 
REMARK   18  A    between atoms: C_17  and  N_20 
REMARK   19  A    between atoms: C_18  and  O_19 
ROOT
HETATM    1  C   UNK N   1      37.266  12.052  11.964  0.00  0.00     0.000 C 
ENDROOT
BRANCH   1   2
HETATM    2  C   UNK N   1      36.487  11.174  12.929  0.00  0.00     0.000 C 
BRANCH   2   3
HETATM    3  C   UNK N   1      37.379  10.159  13.633  0.00  0.00     0.000 C 
BRANCH   3   4
HETATM    4  C   UNK N   1      37.038  10.090  15.116  0.00  0.00     0.000 C 
BRANCH   4   5
HETATM    5  C   UNK N   1      35.638   9.537  15.345  0.00  0.00     0.000 C 
BRANCH   5   6
HETATM    6  C   UNK N   1      35.394   9.257  16.821  0.00  0.00     0.000 C 
BRANCH   6   7
HETATM    7  C   UNK N   1      36.606   9.648  17.645  0.00  0.00     0.000 C 
BRANCH   7   8
HETATM    8  C   UNK N   1      36.154  10.347  18.913  0.00  0.00     0.000 C 
BRANCH   8   9
HETATM    9  C   UNK N   1      35.043  11.324  18.589  0.00  0.00     0.000 C 
BRANCH   9  10
HETATM   10  C   UNK N   1      35.368  12.696  19.142  0.00  0.00     0.000 C 
BRANCH  10  11
HETATM   11  C   UNK N   1      35.242  13.712  18.029  0.00  0.00    -0.000 C 
BRANCH  11  12
HETATM   12  C   UNK N   1      35.204  13.006  16.691  0.00  0.00    -0.005 C 
HETATM   13  C   UNK N   1      36.198  13.659  15.755  0.00  0.00     0.005 C 
ENDBRANCH  11  12
ENDBRANCH  10  11
ENDBRANCH   9  10
ENDBRANCH   8   9
ENDBRANCH   7   8
ENDBRANCH   6   7
ENDBRANCH   5   6
ENDBRANCH   4   5
ENDBRANCH   3   4
ENDBRANCH   2   3
ENDBRANCH   1   2
BRANCH   1  14
HETATM   14  C   UNK N   1      36.770  13.492  11.966  0.00  0.00     0.002 C 
BRANCH  14  15
HETATM   15  C   UNK N   1      35.256  13.496  12.095  0.00  0.00     0.034 C 
BRANCH  15  16
HETATM   16  C   UNK N   1      34.635  14.221  10.908  0.00  0.00     0.142 C 
BRANCH  16  17
HETATM   17  C   UNK N   1      35.626  15.210  10.288  0.00  0.00     0.126 C 
BRANCH  17  18
HETATM   18  C   UNK N   1      35.339  16.635  10.746  0.00  0.00     0.191 C 
BRANCH  18  19
HETATM   19  O   UNK N   1      34.379  17.232   9.931  0.00  0.00    -0.399 OA
HETATM   20  H   UNK N   1      33.753  16.716   9.398  0.00  0.00     0.209 HD
ENDBRANCH  18  19
ENDBRANCH  17  18
BRANCH  17  21
HETATM   21  N   UNK N   1      35.512  15.170   8.841  0.00  0.00    -0.422 N 
HETATM   22  H   UNK N   1      35.124  15.958   8.324  0.00  0.00     0.150 HD
HETATM   23  H   UNK N   1      35.826  14.342   8.334  0.00  0.00     0.150 HD
ENDBRANCH  17  21
ENDBRANCH  16  17
BRANCH  16  24
HETATM   24  O   UNK N   1      33.472  14.868  11.327  0.00  0.00    -0.393 OA
HETATM   25  H   UNK N   1      32.935  14.510  12.050  0.00  0.00     0.210 HD
ENDBRANCH  16  24
ENDBRANCH  15  16
ENDBRANCH  14  15
ENDBRANCH   1  14
TORSDOF 19
ENDMDL
MODEL 3
REMARK VINA RESULT:      -4.5     20.253     23.682
REMARK  19 active torsions:
REMARK  status: ('A' for Active; 'I' for Inactive)
REMARK    1  A    between atoms: C_2  and  C_3 
REMARK    2  A    between atoms: C_3  and  C_4 
REMARK    3  A    between atoms: C_4  and  C_5 
REMARK    4  A    between atoms: C_5  and  C_6 
REMARK    5  A    between atoms: C_6  and  C_7 
REMARK    6  A    between atoms: C_7  and  C_8 
REMARK    7  A    between atoms: C_8  and  C_9 
REMARK    8  A    between atoms: C_9  and  C_10 
REMARK    9  A    between atoms: C_10  and  C_11 
REMARK   10  A    between atoms: C_11  and  C_12 
REMARK   11  A    between atoms: C_12  and  C_13 
REMARK   12  A    between atoms: C_13  and  C_14 
REMARK   13  A    between atoms: C_14  and  C_15 
REMARK   14  A    between atoms: C_15  and  C_16 
REMARK   15  A    between atoms: C_16  and  C_17 
REMARK   16  A    between atoms: C_16  and  O_21 
REMARK   17  A    between atoms: C_17  and  C_18 
REMARK   18  A    between atoms: C_17  and  N_20 
REMARK   19  A    between atoms: C_18  and  O_19 
ROOT
HETATM    1  C   UNK N   1      30.975  23.479  -3.802  0.00  0.00     0.000 C 
ENDROOT
BRANCH   1   2
HETATM    2  C   UNK N   1      29.845  24.340  -3.263  0.00  0.00     0.000 C 
BRANCH   2   3
HETATM    3  C   UNK N   1      28.535  23.570  -3.153  0.00  0.00     0.000 C 
BRANCH   3   4
HETATM    4  C   UNK N   1      27.349  24.519  -3.266  0.00  0.00     0.000 C 
BRANCH   4   5
HETATM    5  C   UNK N   1      26.414  24.116  -4.398  0.00  0.00     0.000 C 
BRANCH   5   6
HETATM    6  C   UNK N   1      27.198  23.610  -5.601  0.00  0.00     0.000 C 
BRANCH   6   7
HETATM    7  C   UNK N   1      27.171  24.631  -6.722  0.00  0.00     0.000 C 
BRANCH   7   8
HETATM    8  C   UNK N   1      25.760  25.164  -6.890  0.00  0.00     0.000 C 
BRANCH   8   9
HETATM    9  C   UNK N   1      25.810  26.639  -7.230  0.00  0.00     0.000 C 
BRANCH   9  10
HETATM   10  C   UNK N   1      26.395  27.427  -6.076  0.00  0.00     0.000 C 
BRANCH  10  11
HETATM   11  C   UNK N   1      25.350  27.545  -4.989  0.00  0.00    -0.000 C 
BRANCH  11  12
HETATM   12  C   UNK N   1      25.814  28.527  -3.936  0.00  0.00    -0.005 C 
HETATM   13  C   UNK N   1      27.210  28.153  -3.486  0.00  0.00     0.005 C 
ENDBRANCH  11  12
ENDBRANCH  10  11
ENDBRANCH   9  10
ENDBRANCH   8   9
ENDBRANCH   7   8
ENDBRANCH   6   7
ENDBRANCH   5   6
ENDBRANCH   4   5
ENDBRANCH   3   4
ENDBRANCH   2   3
ENDBRANCH   1   2
BRANCH   1  14
HETATM   14  C   UNK N   1      30.475  22.155  -4.363  0.00  0.00     0.002 C 
BRANCH  14  15
HETATM   15  C   UNK N   1      31.174  21.015  -3.640  0.00  0.00     0.034 C 
BRANCH  15  16
HETATM   16  C   UNK N   1      32.607  21.413  -3.305  0.00  0.00     0.142 C 
BRANCH  16  17
HETATM   17  C   UNK N   1      33.597  20.778  -4.285  0.00  0.00     0.126 C 
BRANCH  17  18
HETATM   18  C   UNK N   1      33.172  19.362  -4.655  0.00  0.00     0.191 C 
BRANCH  18  19
HETATM   19  O   UNK N   1      33.486  18.469  -3.631  0.00  0.00    -0.399 OA
HETATM   20  H   UNK N   1      34.350  18.464  -3.189  0.00  0.00     0.209 HD
ENDBRANCH  18  19
ENDBRANCH  17  18
BRANCH  17  21
HETATM   21  N   UNK N   1      34.912  20.710  -3.672  0.00  0.00    -0.422 N 
HETATM   22  H   UNK N   1      35.208  19.880  -3.158  0.00  0.00     0.150 HD
HETATM   23  H   UNK N   1      35.549  21.502  -3.758  0.00  0.00     0.150 HD
ENDBRANCH  17  21
ENDBRANCH  16  17
BRANCH  16  24
HETATM   24  O   UNK N   1      32.888  21.038  -1.991  0.00  0.00    -0.393 OA
HETATM   25  H   UNK N   1      33.802  20.910  -1.693  0.00  0.00     0.210 HD
ENDBRANCH  16  24
ENDBRANCH  15  16
ENDBRANCH  14  15
ENDBRANCH   1  14
TORSDOF 19
ENDMDL
MODEL 4
REMARK VINA RESULT:      -4.5      1.615      3.960
REMARK  19 active torsions:
REMARK  status: ('A' for Active; 'I' for Inactive)
REMARK    1  A    between atoms: C_2  and  C_3 
REMARK    2  A    between atoms: C_3  and  C_4 
REMARK    3  A    between atoms: C_4  and  C_5 
REMARK    4  A    between atoms: C_5  and  C_6 
REMARK    5  A    between atoms: C_6  and  C_7 
REMARK    6  A    between atoms: C_7  and  C_8 
REMARK    7  A    between atoms: C_8  and  C_9 
REMARK    8  A    between atoms: C_9  and  C_10 
REMARK    9  A    between atoms: C_10  and  C_11 
REMARK   10  A    between atoms: C_11  and  C_12 
REMARK   11  A    between atoms: C_12  and  C_13 
REMARK   12  A    between atoms: C_13  and  C_14 
REMARK   13  A    between atoms: C_14  and  C_15 
REMARK   14  A    between atoms: C_15  and  C_16 
REMARK   15  A    between atoms: C_16  and  C_17 
REMARK   16  A    between atoms: C_16  and  O_21 
REMARK   17  A    between atoms: C_17  and  C_18 
REMARK   18  A    between atoms: C_17  and  N_20 
REMARK   19  A    between atoms: C_18  and  O_19 
ROOT
HETATM    1  C   UNK N   1      36.033  11.986  11.239  0.00  0.00     0.000 C 
ENDROOT
BRANCH   1   2
HETATM    2  C   UNK N   1      34.888  11.804  12.221  0.00  0.00     0.000 C 
BRANCH   2   3
HETATM    3  C   UNK N   1      34.108  10.521  11.968  0.00  0.00     0.000 C 
BRANCH   3   4
HETATM    4  C   UNK N   1      34.933   9.308  12.378  0.00  0.00     0.000 C 
BRANCH   4   5
HETATM    5  C   UNK N   1      35.398   9.409  13.824  0.00  0.00     0.000 C 
BRANCH   5   6
HETATM    6  C   UNK N   1      36.894   9.154  13.937  0.00  0.00     0.000 C 
BRANCH   6   7
HETATM    7  C   UNK N   1      37.629  10.434  14.284  0.00  0.00     0.000 C 
BRANCH   7   8
HETATM    8  C   UNK N   1      36.942  11.112  15.455  0.00  0.00     0.000 C 
BRANCH   8   9
HETATM    9  C   UNK N   1      36.947  12.613  15.249  0.00  0.00     0.000 C 
BRANCH   9  10
HETATM   10  C   UNK N   1      35.610  13.204  15.644  0.00  0.00     0.000 C 
BRANCH  10  11
HETATM   11  C   UNK N   1      34.932  12.265  16.618  0.00  0.00    -0.000 C 
BRANCH  11  12
HETATM   12  C   UNK N   1      35.291  12.650  18.036  0.00  0.00    -0.005 C 
HETATM   13  C   UNK N   1      35.180  14.152  18.189  0.00  0.00     0.005 C 
ENDBRANCH  11  12
ENDBRANCH  10  11
ENDBRANCH   9  10
ENDBRANCH   8   9
ENDBRANCH   7   8
ENDBRANCH   6   7
ENDBRANCH   5   6
ENDBRANCH   4   5
ENDBRANCH   3   4
ENDBRANCH   2   3
ENDBRANCH   1   2
BRANCH   1  14
HETATM   14  C   UNK N   1      36.780  13.294  11.459  0.00  0.00     0.002 C 
BRANCH  14  15
HETATM   15  C   UNK N   1      35.863  14.276  12.167  0.00  0.00     0.034 C 
BRANCH  15  16
HETATM   16  C   UNK N   1      35.798  15.583  11.387  0.00  0.00     0.142 C 
BRANCH  16  17
HETATM   17  C   UNK N   1      34.791  15.488  10.238  0.00  0.00     0.126 C 
BRANCH  17  18
HETATM   18  C   UNK N   1      34.591  16.842   9.568  0.00  0.00     0.191 C 
BRANCH  18  19
HETATM   19  O   UNK N   1      33.237  17.084   9.337  0.00  0.00    -0.399 OA
HETATM   20  H   UNK N   1      32.536  16.670   9.865  0.00  0.00     0.209 HD
ENDBRANCH  18  19
ENDBRANCH  17  18
BRANCH  17  21
HETATM   21  N   UNK N   1      33.506  15.046  10.753  0.00  0.00    -0.422 N 
HETATM   22  H   UNK N   1      33.345  14.963  11.757  0.00  0.00     0.150 HD
HETATM   23  H   UNK N   1      32.755  14.815  10.102  0.00  0.00     0.150 HD
ENDBRANCH  17  21
ENDBRANCH  16  17
BRANCH  16  24
HETATM   24  O   UNK N   1      37.073  15.897  10.914  0.00  0.00    -0.393 OA
HETATM   25  H   UNK N   1      37.702  16.387  11.465  0.00  0.00     0.210 HD
ENDBRANCH  16  24
ENDBRANCH  15  16
ENDBRANCH  14  15
ENDBRANCH   1  14
TORSDOF 19
ENDMDL
MODEL 5
REMARK VINA RESULT:      -4.4      1.546      2.608
REMARK  19 active torsions:
REMARK  status: ('A' for Active; 'I' for Inactive)
REMARK    1  A    between atoms: C_2  and  C_3 
REMARK    2  A    between atoms: C_3  and  C_4 
REMARK    3  A    between atoms: C_4  and  C_5 
REMARK    4  A    between atoms: C_5  and  C_6 
REMARK    5  A    between atoms: C_6  and  C_7 
REMARK    6  A    between atoms: C_7  and  C_8 
REMARK    7  A    between atoms: C_8  and  C_9 
REMARK    8  A    between atoms: C_9  and  C_10 
REMARK    9  A    between atoms: C_10  and  C_11 
REMARK   10  A    between atoms: C_11  and  C_12 
REMARK   11  A    between atoms: C_12  and  C_13 
REMARK   12  A    between atoms: C_13  and  C_14 
REMARK   13  A    between atoms: C_14  and  C_15 
REMARK   14  A    between atoms: C_15  and  C_16 
REMARK   15  A    between atoms: C_16  and  C_17 
REMARK   16  A    between atoms: C_16  and  O_21 
REMARK   17  A    between atoms: C_17  and  C_18 
REMARK   18  A    between atoms: C_17  and  N_20 
REMARK   19  A    between atoms: C_18  and  O_19 
ROOT
HETATM    1  C   UNK N   1      36.887  13.184  12.041  0.00  0.00     0.000 C 
ENDROOT
BRANCH   1   2
HETATM    2  C   UNK N   1      35.883  13.604  13.101  0.00  0.00     0.000 C 
BRANCH   2   3
HETATM    3  C   UNK N   1      36.504  14.505  14.160  0.00  0.00     0.000 C 
BRANCH   3   4
HETATM    4  C   UNK N   1      36.747  13.724  15.446  0.00  0.00     0.000 C 
BRANCH   4   5
HETATM    5  C   UNK N   1      35.439  13.285  16.090  0.00  0.00     0.000 C 
BRANCH   5   6
HETATM    6  C   UNK N   1      35.479  13.479  17.599  0.00  0.00     0.000 C 
BRANCH   6   7
HETATM    7  C   UNK N   1      35.081  12.202  18.312  0.00  0.00     0.000 C 
BRANCH   7   8
HETATM    8  C   UNK N   1      35.848  11.032  17.726  0.00  0.00     0.000 C 
BRANCH   8   9
HETATM    9  C   UNK N   1      34.899   9.881  17.461  0.00  0.00     0.000 C 
BRANCH   9  10
HETATM   10  C   UNK N   1      35.188   9.259  16.111  0.00  0.00     0.000 C 
BRANCH  10  11
HETATM   11  C   UNK N   1      34.579  10.130  15.034  0.00  0.00    -0.000 C 
BRANCH  11  12
HETATM   12  C   UNK N   1      35.432  10.072  13.785  0.00  0.00    -0.005 C 
HETATM   13  C   UNK N   1      36.893  10.122  14.177  0.00  0.00     0.005 C 
ENDBRANCH  11  12
ENDBRANCH  10  11
ENDBRANCH   9  10
ENDBRANCH   8   9
ENDBRANCH   7   8
ENDBRANCH   6   7
ENDBRANCH   5   6
ENDBRANCH   4   5
ENDBRANCH   3   4
ENDBRANCH   2   3
ENDBRANCH   1   2
BRANCH   1  14
HETATM   14  C   UNK N   1      36.304  13.248  10.635  0.00  0.00     0.002 C 
BRANCH  14  15
HETATM   15  C   UNK N   1      34.790  13.156  10.722  0.00  0.00     0.034 C 
BRANCH  15  16
HETATM   16  C   UNK N   1      34.159  14.434  10.182  0.00  0.00     0.142 C 
BRANCH  16  17
HETATM   17  C   UNK N   1      35.232  15.429   9.734  0.00  0.00     0.126 C 
BRANCH  17  18
HETATM   18  C   UNK N   1      35.357  16.585  10.719  0.00  0.00     0.191 C 
BRANCH  18  19
HETATM   19  O   UNK N   1      35.522  17.794  10.043  0.00  0.00    -0.399 OA
HETATM   20  H   UNK N   1      35.228  17.924   9.128  0.00  0.00     0.209 HD
ENDBRANCH  18  19
ENDBRANCH  17  18
BRANCH  17  21
HETATM   21  N   UNK N   1      34.875  15.978   8.437  0.00  0.00    -0.422 N 
HETATM   22  H   UNK N   1      35.592  16.199   7.746  0.00  0.00     0.150 HD
HETATM   23  H   UNK N   1      33.894  16.143   8.213  0.00  0.00     0.150 HD
ENDBRANCH  17  21
ENDBRANCH  16  17
BRANCH  16  24
HETATM   24  O   UNK N   1      33.338  14.988  11.165  0.00  0.00    -0.393 OA
HETATM   25  H   UNK N   1      32.421  15.234  10.969  0.00  0.00     0.210 HD
ENDBRANCH  16  24
ENDBRANCH  15  16
ENDBRANCH  14  15
ENDBRANCH   1  14
TORSDOF 19
ENDMDL
MODEL 6
REMARK VINA RESULT:      -4.4      2.226      3.785
REMARK  19 active torsions:
REMARK  status: ('A' for Active; 'I' for Inactive)
REMARK    1  A    between atoms: C_2  and  C_3 
REMARK    2  A    between atoms: C_3  and  C_4 
REMARK    3  A    between atoms: C_4  and  C_5 
REMARK    4  A    between atoms: C_5  and  C_6 
REMARK    5  A    between atoms: C_6  and  C_7 
REMARK    6  A    between atoms: C_7  and  C_8 
REMARK    7  A    between atoms: C_8  and  C_9 
REMARK    8  A    between atoms: C_9  and  C_10 
REMARK    9  A    between atoms: C_10  and  C_11 
REMARK   10  A    between atoms: C_11  and  C_12 
REMARK   11  A    between atoms: C_12  and  C_13 
REMARK   12  A    between atoms: C_13  and  C_14 
REMARK   13  A    between atoms: C_14  and  C_15 
REMARK   14  A    between atoms: C_15  and  C_16 
REMARK   15  A    between atoms: C_16  and  C_17 
REMARK   16  A    between atoms: C_16  and  O_21 
REMARK   17  A    between atoms: C_17  and  C_18 
REMARK   18  A    between atoms: C_17  and  N_20 
REMARK   19  A    between atoms: C_18  and  O_19 
ROOT
HETATM    1  C   UNK N   1      35.890  10.515  12.083  0.00  0.00     0.000 C 
ENDROOT
BRANCH   1   2
HETATM    2  C   UNK N   1      35.322   9.966  13.381  0.00  0.00     0.000 C 
BRANCH   2   3
HETATM    3  C   UNK N   1      33.893  10.434  13.629  0.00  0.00     0.000 C 
BRANCH   3   4
HETATM    4  C   UNK N   1      33.737  10.929  15.061  0.00  0.00     0.000 C 
BRANCH   4   5
HETATM    5  C   UNK N   1      34.453  12.256  15.276  0.00  0.00     0.000 C 
BRANCH   5   6
HETATM    6  C   UNK N   1      35.487  12.145  16.389  0.00  0.00     0.000 C 
BRANCH   6   7
HETATM    7  C   UNK N   1      35.040  12.924  17.610  0.00  0.00     0.000 C 
BRANCH   7   8
HETATM    8  C   UNK N   1      35.344  12.124  18.863  0.00  0.00     0.000 C 
BRANCH   8   9
HETATM    9  C   UNK N   1      35.535  10.665  18.502  0.00  0.00     0.000 C 
BRANCH   9  10
HETATM   10  C   UNK N   1      34.969   9.774  19.588  0.00  0.00     0.000 C 
BRANCH  10  11
HETATM   11  C   UNK N   1      33.761   9.047  19.040  0.00  0.00    -0.000 C 
BRANCH  11  12
HETATM   12  C   UNK N   1      32.750   8.826  20.144  0.00  0.00    -0.005 C 
HETATM   13  C   UNK N   1      31.880   7.638  19.793  0.00  0.00     0.005 C 
ENDBRANCH  11  12
ENDBRANCH  10  11
ENDBRANCH   9  10
ENDBRANCH   8   9
ENDBRANCH   7   8
ENDBRANCH   6   7
ENDBRANCH   5   6
ENDBRANCH   4   5
ENDBRANCH   3   4
ENDBRANCH   2   3
ENDBRANCH   1   2
BRANCH   1  14
HETATM   14  C   UNK N   1      35.139  11.749  11.600  0.00  0.00     0.002 C 
BRANCH  14  15
HETATM   15  C   UNK N   1      36.124  12.890  11.417  0.00  0.00     0.034 C 
BRANCH  15  16
HETATM   16  C   UNK N   1      35.786  14.029  12.371  0.00  0.00     0.142 C 
BRANCH  16  17
HETATM   17  C   UNK N   1      35.535  15.330  11.606  0.00  0.00     0.126 C 
BRANCH  17  18
HETATM   18  C   UNK N   1      34.444  15.151  10.558  0.00  0.00     0.191 C 
BRANCH  18  19
HETATM   19  O   UNK N   1      33.191  15.045  11.162  0.00  0.00    -0.399 OA
HETATM   20  H   UNK N   1      32.363  15.098  10.660  0.00  0.00     0.209 HD
ENDBRANCH  18  19
ENDBRANCH  17  18
BRANCH  17  21
HETATM   21  N   UNK N   1      36.752  15.737  10.925  0.00  0.00    -0.422 N 
HETATM   22  H   UNK N   1      37.338  16.482  11.300  0.00  0.00     0.150 HD
HETATM   23  H   UNK N   1      37.025  15.269  10.060  0.00  0.00     0.150 HD
ENDBRANCH  17  21
ENDBRANCH  16  17
BRANCH  16  24
HETATM   24  O   UNK N   1      36.824  14.177  13.291  0.00  0.00    -0.393 OA
HETATM   25  H   UNK N   1      37.477  13.473  13.424  0.00  0.00     0.210 HD
ENDBRANCH  16  24
ENDBRANCH  15  16
ENDBRANCH  14  15
ENDBRANCH   1  14
TORSDOF 19
ENDMDL
MODEL 7
REMARK VINA RESULT:      -4.4      1.604      2.878
REMARK  19 active torsions:
REMARK  status: ('A' for Active; 'I' for Inactive)
REMARK    1  A    between atoms: C_2  and  C_3 
REMARK    2  A    between atoms: C_3  and  C_4 
REMARK    3  A    between atoms: C_4  and  C_5 
REMARK    4  A    between atoms: C_5  and  C_6 
REMARK    5  A    between atoms: C_6  and  C_7 
REMARK    6  A    between atoms: C_7  and  C_8 
REMARK    7  A    between atoms: C_8  and  C_9 
REMARK    8  A    between atoms: C_9  and  C_10 
REMARK    9  A    between atoms: C_10  and  C_11 
REMARK   10  A    between atoms: C_11  and  C_12 
REMARK   11  A    between atoms: C_12  and  C_13 
REMARK   12  A    between atoms: C_13  and  C_14 
REMARK   13  A    between atoms: C_14  and  C_15 
REMARK   14  A    between atoms: C_15  and  C_16 
REMARK   15  A    between atoms: C_16  and  C_17 
REMARK   16  A    between atoms: C_16  and  O_21 
REMARK   17  A    between atoms: C_17  and  C_18 
REMARK   18  A    between atoms: C_17  and  N_20 
REMARK   19  A    between atoms: C_18  and  O_19 
ROOT
HETATM    1  C   UNK N   1      36.663  12.416  11.101  0.00  0.00     0.000 C 
ENDROOT
BRANCH   1   2
HETATM    2  C   UNK N   1      37.552  11.498  11.922  0.00  0.00     0.000 C 
BRANCH   2   3
HETATM    3  C   UNK N   1      37.473  11.799  13.413  0.00  0.00     0.000 C 
BRANCH   3   4
HETATM    4  C   UNK N   1      36.612  13.031  13.661  0.00  0.00     0.000 C 
BRANCH   4   5
HETATM    5  C   UNK N   1      36.745  13.528  15.094  0.00  0.00     0.000 C 
BRANCH   5   6
HETATM    6  C   UNK N   1      35.435  13.365  15.853  0.00  0.00     0.000 C 
BRANCH   6   7
HETATM    7  C   UNK N   1      35.623  12.458  17.053  0.00  0.00     0.000 C 
BRANCH   7   8
HETATM    8  C   UNK N   1      34.850  11.169  16.841  0.00  0.00     0.000 C 
BRANCH   8   9
HETATM    9  C   UNK N   1      35.757  10.128  16.218  0.00  0.00     0.000 C 
BRANCH   9  10
HETATM   10  C   UNK N   1      35.087   9.499  15.013  0.00  0.00     0.000 C 
BRANCH  10  11
HETATM   11  C   UNK N   1      33.992  10.423  14.528  0.00  0.00    -0.000 C 
BRANCH  11  12
HETATM   12  C   UNK N   1      33.958  10.429  13.016  0.00  0.00    -0.005 C 
HETATM   13  C   UNK N   1      34.693   9.212  12.496  0.00  0.00     0.005 C 
ENDBRANCH  11  12
ENDBRANCH  10  11
ENDBRANCH   9  10
ENDBRANCH   8   9
ENDBRANCH   7   8
ENDBRANCH   6   7
ENDBRANCH   5   6
ENDBRANCH   4   5
ENDBRANCH   3   4
ENDBRANCH   2   3
ENDBRANCH   1   2
BRANCH   1  14
HETATM   14  C   UNK N   1      37.394  13.012   9.906  0.00  0.00     0.002 C 
BRANCH  14  15
HETATM   15  C   UNK N   1      36.634  14.234   9.417  0.00  0.00     0.034 C 
BRANCH  15  16
HETATM   16  C   UNK N   1      36.163  15.062  10.606  0.00  0.00     0.142 C 
BRANCH  16  17
HETATM   17  C   UNK N   1      34.795  15.690  10.329  0.00  0.00     0.126 C 
BRANCH  17  18
HETATM   18  C   UNK N   1      34.314  15.362   8.921  0.00  0.00     0.191 C 
BRANCH  18  19
HETATM   19  O   UNK N   1      34.189  16.523   8.159  0.00  0.00    -0.399 OA
HETATM   20  H   UNK N   1      33.367  17.036   8.121  0.00  0.00     0.209 HD
ENDBRANCH  18  19
ENDBRANCH  17  18
BRANCH  17  21
HETATM   21  N   UNK N   1      34.889  17.135  10.449  0.00  0.00    -0.422 N 
HETATM   22  H   UNK N   1      34.642  17.606  11.319  0.00  0.00     0.150 HD
HETATM   23  H   UNK N   1      35.207  17.686   9.652  0.00  0.00     0.150 HD
ENDBRANCH  17  21
ENDBRANCH  16  17
BRANCH  16  24
HETATM   24  O   UNK N   1      37.118  16.039  10.888  0.00  0.00    -0.393 OA
HETATM   25  H   UNK N   1      38.051  15.905  10.661  0.00  0.00     0.210 HD
ENDBRANCH  16  24
ENDBRANCH  15  16
ENDBRANCH  14  15
ENDBRANCH   1  14
TORSDOF 19
ENDMDL
MODEL 8
REMARK VINA RESULT:      -4.4     13.031     15.671
REMARK  19 active torsions:
REMARK  status: ('A' for Active; 'I' for Inactive)
REMARK    1  A    between atoms: C_2  and  C_3 
REMARK    2  A    between atoms: C_3  and  C_4 
REMARK    3  A    between atoms: C_4  and  C_5 
REMARK    4  A    between atoms: C_5  and  C_6 
REMARK    5  A    between atoms: C_6  and  C_7 
REMARK    6  A    between atoms: C_7  and  C_8 
REMARK    7  A    between atoms: C_8  and  C_9 
REMARK    8  A    between atoms: C_9  and  C_10 
REMARK    9  A    between atoms: C_10  and  C_11 
REMARK   10  A    between atoms: C_11  and  C_12 
REMARK   11  A    between atoms: C_12  and  C_13 
REMARK   12  A    between atoms: C_13  and  C_14 
REMARK   13  A    between atoms: C_14  and  C_15 
REMARK   14  A    between atoms: C_15  and  C_16 
REMARK   15  A    between atoms: C_16  and  C_17 
REMARK   16  A    between atoms: C_16  and  O_21 
REMARK   17  A    between atoms: C_17  and  C_18 
REMARK   18  A    between atoms: C_17  and  N_20 
REMARK   19  A    between atoms: C_18  and  O_19 
ROOT
HETATM    1  C   UNK N   1      25.019  13.414   7.440  0.00  0.00     0.000 C 
ENDROOT
BRANCH   1   2
HETATM    2  C   UNK N   1      24.855  14.815   6.876  0.00  0.00     0.000 C 
BRANCH   2   3
HETATM    3  C   UNK N   1      23.656  14.925   5.942  0.00  0.00     0.000 C 
BRANCH   3   4
HETATM    4  C   UNK N   1      22.970  16.275   6.115  0.00  0.00     0.000 C 
BRANCH   4   5
HETATM    5  C   UNK N   1      21.618  16.132   6.799  0.00  0.00     0.000 C 
BRANCH   5   6
HETATM    6  C   UNK N   1      21.680  15.113   7.928  0.00  0.00     0.000 C 
BRANCH   6   7
HETATM    7  C   UNK N   1      20.608  14.056   7.751  0.00  0.00     0.000 C 
BRANCH   7   8
HETATM    8  C   UNK N   1      21.252  12.684   7.686  0.00  0.00     0.000 C 
BRANCH   8   9
HETATM    9  C   UNK N   1      21.037  12.084   6.311  0.00  0.00     0.000 C 
BRANCH   9  10
HETATM   10  C   UNK N   1      20.211  13.018   5.452  0.00  0.00     0.000 C 
BRANCH  10  11
HETATM   11  C   UNK N   1      20.983  13.330   4.189  0.00  0.00    -0.000 C 
BRANCH  11  12
HETATM   12  C   UNK N   1      20.446  14.595   3.558  0.00  0.00    -0.005 C 
HETATM   13  C   UNK N   1      21.491  15.169   2.626  0.00  0.00     0.005 C 
ENDBRANCH  11  12
ENDBRANCH  10  11
ENDBRANCH   9  10
ENDBRANCH   8   9
ENDBRANCH   7   8
ENDBRANCH   6   7
ENDBRANCH   5   6
ENDBRANCH   4   5
ENDBRANCH   3   4
ENDBRANCH   2   3
ENDBRANCH   1   2
BRANCH   1  14
HETATM   14  C   UNK N   1      25.012  13.401   8.963  0.00  0.00     0.002 C 
BRANCH  14  15
HETATM   15  C   UNK N   1      24.335  12.129   9.445  0.00  0.00     0.034 C 
BRANCH  15  16
HETATM   16  C   UNK N   1      24.469  12.010  10.958  0.00  0.00     0.142 C 
BRANCH  16  17
HETATM   17  C   UNK N   1      23.128  12.268  11.650  0.00  0.00     0.126 C 
BRANCH  17  18
HETATM   18  C   UNK N   1      23.140  11.747  13.082  0.00  0.00     0.191 C 
BRANCH  18  19
HETATM   19  O   UNK N   1      23.871  12.598  13.911  0.00  0.00    -0.399 OA
HETATM   20  H   UNK N   1      23.964  12.444  14.864  0.00  0.00     0.209 HD
ENDBRANCH  18  19
ENDBRANCH  17  18
BRANCH  17  21
HETATM   21  N   UNK N   1      22.069  11.584  10.929  0.00  0.00    -0.422 N 
HETATM   22  H   UNK N   1      22.111  11.474   9.916  0.00  0.00     0.150 HD
HETATM   23  H   UNK N   1      21.273  11.207  11.443  0.00  0.00     0.150 HD
ENDBRANCH  17  21
ENDBRANCH  16  17
BRANCH  16  24
HETATM   24  O   UNK N   1      25.445  12.902  11.401  0.00  0.00    -0.393 OA
HETATM   25  H   UNK N   1      25.236  13.585  12.057  0.00  0.00     0.210 HD
ENDBRANCH  16  24
ENDBRANCH  15  16
ENDBRANCH  14  15
ENDBRANCH   1  14
TORSDOF 19
ENDMDL
MODEL 9
REMARK VINA RESULT:      -4.4     20.162     24.274
REMARK  19 active torsions:
REMARK  status: ('A' for Active; 'I' for Inactive)
REMARK    1  A    between atoms: C_2  and  C_3 
REMARK    2  A    between atoms: C_3  and  C_4 
REMARK    3  A    between atoms: C_4  and  C_5 
REMARK    4  A    between atoms: C_5  and  C_6 
REMARK    5  A    between atoms: C_6  and  C_7 
REMARK    6  A    between atoms: C_7  and  C_8 
REMARK    7  A    between atoms: C_8  and  C_9 
REMARK    8  A    between atoms: C_9  and  C_10 
REMARK    9  A    between atoms: C_10  and  C_11 
REMARK   10  A    between atoms: C_11  and  C_12 
REMARK   11  A    between atoms: C_12  and  C_13 
REMARK   12  A    between atoms: C_13  and  C_14 
REMARK   13  A    between atoms: C_14  and  C_15 
REMARK   14  A    between atoms: C_15  and  C_16 
REMARK   15  A    between atoms: C_16  and  C_17 
REMARK   16  A    between atoms: C_16  and  O_21 
REMARK   17  A    between atoms: C_17  and  C_18 
REMARK   18  A    between atoms: C_17  and  N_20 
REMARK   19  A    between atoms: C_18  and  O_19 
ROOT
HETATM    1  C   UNK N   1      30.951  26.154  -3.939  0.00  0.00     0.000 C 
ENDROOT
BRANCH   1   2
HETATM    2  C   UNK N   1      31.006  27.422  -3.103  0.00  0.00     0.000 C 
BRANCH   2   3
HETATM    3  C   UNK N   1      30.663  28.664  -3.915  0.00  0.00     0.000 C 
BRANCH   3   4
HETATM    4  C   UNK N   1      29.165  28.723  -4.188  0.00  0.00     0.000 C 
BRANCH   4   5
HETATM    5  C   UNK N   1      28.869  28.761  -5.681  0.00  0.00     0.000 C 
BRANCH   5   6
HETATM    6  C   UNK N   1      27.369  28.768  -5.942  0.00  0.00     0.000 C 
BRANCH   6   7
HETATM    7  C   UNK N   1      26.607  29.052  -4.662  0.00  0.00     0.000 C 
BRANCH   7   8
HETATM    8  C   UNK N   1      25.656  27.906  -4.371  0.00  0.00     0.000 C 
BRANCH   8   9
HETATM    9  C   UNK N   1      25.198  27.281  -5.673  0.00  0.00     0.000 C 
BRANCH   9  10
HETATM   10  C   UNK N   1      25.184  25.771  -5.557  0.00  0.00     0.000 C 
BRANCH  10  11
HETATM   11  C   UNK N   1      26.381  25.335  -4.741  0.00  0.00    -0.000 C 
BRANCH  11  12
HETATM   12  C   UNK N   1      26.826  23.957  -5.179  0.00  0.00    -0.005 C 
HETATM   13  C   UNK N   1      25.757  23.344  -6.059  0.00  0.00     0.005 C 
ENDBRANCH  11  12
ENDBRANCH  10  11
ENDBRANCH   9  10
ENDBRANCH   8   9
ENDBRANCH   7   8
ENDBRANCH   6   7
ENDBRANCH   5   6
ENDBRANCH   4   5
ENDBRANCH   3   4
ENDBRANCH   2   3
ENDBRANCH   1   2
BRANCH   1  14
HETATM   14  C   UNK N   1      29.922  25.162  -3.415  0.00  0.00     0.002 C 
BRANCH  14  15
HETATM   15  C   UNK N   1      30.216  23.789  -3.995  0.00  0.00     0.034 C 
BRANCH  15  16
HETATM   16  C   UNK N   1      31.182  23.036  -3.088  0.00  0.00     0.142 C 
BRANCH  16  17
HETATM   17  C   UNK N   1      31.388  21.600  -3.576  0.00  0.00     0.126 C 
BRANCH  17  18
HETATM   18  C   UNK N   1      32.804  21.119  -3.287  0.00  0.00     0.191 C 
BRANCH  18  19
HETATM   19  O   UNK N   1      33.034  21.056  -1.913  0.00  0.00    -0.399 OA
HETATM   20  H   UNK N   1      33.869  20.736  -1.538  0.00  0.00     0.209 HD
ENDBRANCH  18  19
ENDBRANCH  17  18
BRANCH  17  21
HETATM   21  N   UNK N   1      31.174  21.539  -5.012  0.00  0.00    -0.422 N 
HETATM   22  H   UNK N   1      31.650  22.186  -5.640  0.00  0.00     0.150 HD
HETATM   23  H   UNK N   1      30.540  20.838  -5.397  0.00  0.00     0.150 HD
ENDBRANCH  17  21
ENDBRANCH  16  17
BRANCH  16  24
HETATM   24  O   UNK N   1      30.692  23.059  -1.782  0.00  0.00    -0.393 OA
HETATM   25  H   UNK N   1      29.796  22.749  -1.579  0.00  0.00     0.210 HD
ENDBRANCH  16  24
ENDBRANCH  15  16
ENDBRANCH  14  15
ENDBRANCH   1  14
TORSDOF 19
ENDMDL
