MODEL 1
REMARK VINA RESULT:      -7.1      0.000      0.000
REMARK  7 active torsions:
REMARK  status: ('A' for Active; 'I' for Inactive)
REMARK    1  A    between atoms: C_3  and  C_25 
REMARK    2  A    between atoms: C_6  and  C_7 
REMARK    3  A    between atoms: C_7  and  O_8 
REMARK    4  A    between atoms: O_8  and  C_9 
REMARK    5  A    between atoms: C_9  and  C_10 
REMARK    6  A    between atoms: C_9  and  C_17 
REMARK    7  A    between atoms: C_10  and  N_11 
ROOT
HETATM    1  C   UNK N   1      32.749  16.626   8.584  0.00  0.00     0.174 C 
ENDROOT
BRANCH   1   2
HETATM    2  O   UNK N   1      31.703  17.574   8.736  0.00  0.00    -0.375 OA
BRANCH   2   3
HETATM    3  C   UNK N   1      30.423  17.008   8.699  0.00  0.00     0.207 C 
BRANCH   3   4
HETATM    4  C   UNK N   1      29.562  17.788   7.751  0.00  0.00    -0.035 A 
HETATM    5  C   UNK N   1      29.544  17.478   6.382  0.00  0.00     0.010 A 
HETATM    6  C   UNK N   1      28.721  18.185   5.507  0.00  0.00     0.017 A 
HETATM    7  C   UNK N   1      27.900  19.212   5.988  0.00  0.00     0.047 A 
HETATM    8  C   UNK N   1      27.922  19.529   7.355  0.00  0.00     0.017 A 
HETATM    9  C   UNK N   1      28.752  18.820   8.233  0.00  0.00     0.010 A 
BRANCH   7  10
HETATM   10  C   UNK N   1      26.994  19.960   5.056  0.00  0.00     0.417 C 
HETATM   11  F   UNK N   1      27.300  19.624   3.750  0.00  0.00    -0.166 F 
HETATM   12  F   UNK N   1      27.142  21.329   5.209  0.00  0.00    -0.166 F 
HETATM   13  F   UNK N   1      25.679  19.623   5.317  0.00  0.00    -0.166 F 
ENDBRANCH   7  10
ENDBRANCH   3   4
ENDBRANCH   2   3
ENDBRANCH   1   2
BRANCH   1  14
HETATM   14  C   UNK N   1      34.150  17.052   9.094  0.00  0.00     0.166 C 
BRANCH  14  15
HETATM   15  N   UNK N   1      34.698  16.214  10.156  0.00  0.00    -0.349 N 
HETATM   16  C   UNK N   1      34.196  15.067  10.636  0.00  0.00     0.108 A 
HETATM   17  C   UNK N   1      35.053  14.627  11.628  0.00  0.00     0.106 A 
HETATM   18  N   UNK N   1      36.073  15.503  11.738  0.00  0.00    -0.361 N 
HETATM   19  C   UNK N   1      35.835  16.464  10.824  0.00  0.00     0.182 A 
ATOM     20  HN  UNK N   1      36.863  15.450  12.381  1.00  0.00     0.166 HD
ENDBRANCH  14  15
ENDBRANCH   1  14
BRANCH   1  21
HETATM   21  C   UNK N   1      32.923  16.400   7.096  0.00  0.00    -0.006 A 
HETATM   22  C   UNK N   1      33.085  17.513   6.248  0.00  0.00     0.013 A 
HETATM   23  C   UNK N   1      33.301  17.350   4.882  0.00  0.00     0.024 A 
HETATM   24  C   UNK N   1      33.358  16.070   4.337  0.00  0.00     0.035 A 
HETATM   25  C   UNK N   1      33.190  14.950   5.158  0.00  0.00     0.048 A 
HETATM   26 Cl   UNK N   1      33.651  15.872   2.624  0.00  0.00    -0.084 Cl
HETATM   27  C   UNK N   1      32.974  15.105   6.535  0.00  0.00     0.044 A 
HETATM   28 Cl   UNK N   1      32.768  13.666   7.521  0.00  0.00    -0.084 Cl
ENDBRANCH   1  21
TORSDOF 7
ENDMDL
MODEL 2
REMARK VINA RESULT:      -6.9      8.216     11.576
REMARK  7 active torsions:
REMARK  status: ('A' for Active; 'I' for Inactive)
REMARK    1  A    between atoms: C_3  and  C_25 
REMARK    2  A    between atoms: C_6  and  C_7 
REMARK    3  A    between atoms: C_7  and  O_8 
REMARK    4  A    between atoms: O_8  and  C_9 
REMARK    5  A    between atoms: C_9  and  C_10 
REMARK    6  A    between atoms: C_9  and  C_17 
REMARK    7  A    between atoms: C_10  and  N_11 
ROOT
HETATM    1  C   UNK N   1      35.464  13.360  12.376  0.00  0.00     0.174 C 
ENDROOT
BRANCH   1   2
HETATM    2  O   UNK N   1      35.127  13.732  13.704  0.00  0.00    -0.375 OA
BRANCH   2   3
HETATM    3  C   UNK N   1      36.231  13.804  14.563  0.00  0.00     0.207 C 
BRANCH   3   4
HETATM    4  C   UNK N   1      35.936  13.036  15.817  0.00  0.00    -0.035 A 
HETATM    5  C   UNK N   1      36.247  11.670  15.909  0.00  0.00     0.010 A 
HETATM    6  C   UNK N   1      35.999  10.965  17.085  0.00  0.00     0.017 A 
HETATM    7  C   UNK N   1      35.438  11.615  18.190  0.00  0.00     0.047 A 
HETATM    8  C   UNK N   1      35.118  12.979  18.098  0.00  0.00     0.017 A 
HETATM    9  C   UNK N   1      35.366  13.686  16.915  0.00  0.00     0.010 A 
BRANCH   7  10
HETATM   10  C   UNK N   1      35.191  10.869  19.467  0.00  0.00     0.417 C 
HETATM   11  F   UNK N   1      34.664  11.732  20.409  0.00  0.00    -0.166 F 
HETATM   12  F   UNK N   1      36.368  10.332  19.965  0.00  0.00    -0.166 F 
HETATM   13  F   UNK N   1      34.296   9.841  19.239  0.00  0.00    -0.166 F 
ENDBRANCH   7  10
ENDBRANCH   3   4
ENDBRANCH   2   3
ENDBRANCH   1   2
BRANCH   1  14
HETATM   14  C   UNK N   1      34.457  13.763  11.267  0.00  0.00     0.166 C 
BRANCH  14  15
HETATM   15  N   UNK N   1      34.627  15.115  10.745  0.00  0.00    -0.349 N 
HETATM   16  C   UNK N   1      34.137  15.621   9.605  0.00  0.00     0.108 A 
HETATM   17  C   UNK N   1      34.550  16.939   9.528  0.00  0.00     0.106 A 
HETATM   18  N   UNK N   1      35.280  17.227  10.626  0.00  0.00    -0.361 N 
HETATM   19  C   UNK N   1      35.310  16.095  11.358  0.00  0.00     0.182 A 
ATOM     20  HN  UNK N   1      35.719  18.118  10.856  1.00  0.00     0.166 HD
ENDBRANCH  14  15
ENDBRANCH   1  14
BRANCH   1  21
HETATM   21  C   UNK N   1      35.504  11.846  12.341  0.00  0.00    -0.006 A 
HETATM   22  C   UNK N   1      34.404  11.119  12.834  0.00  0.00     0.013 A 
HETATM   23  C   UNK N   1      34.375   9.729  12.772  0.00  0.00     0.024 A 
HETATM   24  C   UNK N   1      35.449   9.038  12.218  0.00  0.00     0.035 A 
HETATM   25  C   UNK N   1      36.557   9.737  11.731  0.00  0.00     0.048 A 
HETATM   26 Cl   UNK N   1      35.397   7.291  12.124  0.00  0.00    -0.084 Cl
HETATM   27  C   UNK N   1      36.593  11.138  11.787  0.00  0.00     0.044 A 
HETATM   28 Cl   UNK N   1      38.010  11.968  11.163  0.00  0.00    -0.084 Cl
ENDBRANCH   1  21
TORSDOF 7
ENDMDL
MODEL 3
REMARK VINA RESULT:      -6.9     10.667     12.314
REMARK  7 active torsions:
REMARK  status: ('A' for Active; 'I' for Inactive)
REMARK    1  A    between atoms: C_3  and  C_25 
REMARK    2  A    between atoms: C_6  and  C_7 
REMARK    3  A    between atoms: C_7  and  O_8 
REMARK    4  A    between atoms: O_8  and  C_9 
REMARK    5  A    between atoms: C_9  and  C_10 
REMARK    6  A    between atoms: C_9  and  C_17 
REMARK    7  A    between atoms: C_10  and  N_11 
ROOT
HETATM    1  C   UNK N   1      21.121  16.759   4.325  0.00  0.00     0.174 C 
ENDROOT
BRANCH   1   2
HETATM    2  O   UNK N   1      20.762  15.925   5.417  0.00  0.00    -0.375 OA
BRANCH   2   3
HETATM    3  C   UNK N   1      21.061  16.480   6.667  0.00  0.00     0.207 C 
BRANCH   3   4
HETATM    4  C   UNK N   1      21.319  15.378   7.651  0.00  0.00    -0.035 A 
HETATM    5  C   UNK N   1      22.371  14.471   7.449  0.00  0.00     0.010 A 
HETATM    6  C   UNK N   1      22.627  13.465   8.379  0.00  0.00     0.017 A 
HETATM    7  C   UNK N   1      21.836  13.352   9.528  0.00  0.00     0.047 A 
HETATM    8  C   UNK N   1      20.779  14.253   9.729  0.00  0.00     0.017 A 
HETATM    9  C   UNK N   1      20.520  15.261   8.792  0.00  0.00     0.010 A 
BRANCH   7  10
HETATM   10  C   UNK N   1      22.122  12.288  10.545  0.00  0.00     0.417 C 
HETATM   11  F   UNK N   1      23.047  12.760  11.458  0.00  0.00    -0.166 F 
HETATM   12  F   UNK N   1      22.634  11.149   9.944  0.00  0.00    -0.166 F 
HETATM   13  F   UNK N   1      20.957  11.954  11.210  0.00  0.00    -0.166 F 
ENDBRANCH   7  10
ENDBRANCH   3   4
ENDBRANCH   2   3
ENDBRANCH   1   2
BRANCH   1  14
HETATM   14  C   UNK N   1      19.957  17.461   3.577  0.00  0.00     0.166 C 
BRANCH  14  15
HETATM   15  N   UNK N   1      20.309  18.728   2.947  0.00  0.00    -0.349 N 
HETATM   16  C   UNK N   1      20.709  19.859   3.546  0.00  0.00     0.108 A 
HETATM   17  C   UNK N   1      20.934  20.794   2.553  0.00  0.00     0.106 A 
HETATM   18  N   UNK N   1      20.679  20.223   1.357  0.00  0.00    -0.361 N 
HETATM   19  C   UNK N   1      20.301  18.958   1.624  0.00  0.00     0.182 A 
ATOM     20  HN  UNK N   1      20.756  20.660   0.439  1.00  0.00     0.166 HD
ENDBRANCH  14  15
ENDBRANCH   1  14
BRANCH   1  21
HETATM   21  C   UNK N   1      21.773  15.866   3.289  0.00  0.00    -0.006 A 
HETATM   22  C   UNK N   1      20.996  15.368   2.225  0.00  0.00     0.013 A 
HETATM   23  C   UNK N   1      21.567  14.589   1.222  0.00  0.00     0.024 A 
HETATM   24  C   UNK N   1      22.926  14.290   1.265  0.00  0.00     0.035 A 
HETATM   25  C   UNK N   1      23.715  14.765   2.317  0.00  0.00     0.048 A 
HETATM   26 Cl   UNK N   1      23.641  13.328  -0.009  0.00  0.00    -0.084 Cl
HETATM   27  C   UNK N   1      23.150  15.552   3.330  0.00  0.00     0.044 A 
HETATM   28 Cl   UNK N   1      24.185  16.121   4.630  0.00  0.00    -0.084 Cl
ENDBRANCH   1  21
TORSDOF 7
ENDMDL
MODEL 4
REMARK VINA RESULT:      -6.8      2.558      4.788
REMARK  7 active torsions:
REMARK  status: ('A' for Active; 'I' for Inactive)
REMARK    1  A    between atoms: C_3  and  C_25 
REMARK    2  A    between atoms: C_6  and  C_7 
REMARK    3  A    between atoms: C_7  and  O_8 
REMARK    4  A    between atoms: O_8  and  C_9 
REMARK    5  A    between atoms: C_9  and  C_10 
REMARK    6  A    between atoms: C_9  and  C_17 
REMARK    7  A    between atoms: C_10  and  N_11 
ROOT
HETATM    1  C   UNK N   1      32.441  16.680   7.510  0.00  0.00     0.174 C 
ENDROOT
BRANCH   1   2
HETATM    2  O   UNK N   1      31.146  16.163   7.774  0.00  0.00    -0.375 OA
BRANCH   2   3
HETATM    3  C   UNK N   1      30.336  17.030   8.517  0.00  0.00     0.207 C 
BRANCH   3   4
HETATM    4  C   UNK N   1      29.482  17.836   7.583  0.00  0.00    -0.035 A 
HETATM    5  C   UNK N   1      29.443  17.535   6.212  0.00  0.00     0.010 A 
HETATM    6  C   UNK N   1      28.627  18.266   5.350  0.00  0.00     0.017 A 
HETATM    7  C   UNK N   1      27.835  19.308   5.847  0.00  0.00     0.047 A 
HETATM    8  C   UNK N   1      27.878  19.615   7.215  0.00  0.00     0.017 A 
HETATM    9  C   UNK N   1      28.700  18.882   8.080  0.00  0.00     0.010 A 
BRANCH   7  10
HETATM   10  C   UNK N   1      26.936  20.082   4.929  0.00  0.00     0.417 C 
HETATM   11  F   UNK N   1      27.010  21.427   5.240  0.00  0.00    -0.166 F 
HETATM   12  F   UNK N   1      25.620  19.669   5.057  0.00  0.00    -0.166 F 
HETATM   13  F   UNK N   1      27.335  19.895   3.619  0.00  0.00    -0.166 F 
ENDBRANCH   7  10
ENDBRANCH   3   4
ENDBRANCH   2   3
ENDBRANCH   1   2
BRANCH   1  14
HETATM   14  C   UNK N   1      33.193  16.080   6.293  0.00  0.00     0.166 C 
BRANCH  14  15
HETATM   15  N   UNK N   1      32.578  16.352   4.998  0.00  0.00    -0.349 N 
HETATM   16  C   UNK N   1      31.851  15.516   4.244  0.00  0.00     0.108 A 
HETATM   17  C   UNK N   1      31.474  16.208   3.108  0.00  0.00     0.106 A 
HETATM   18  N   UNK N   1      31.966  17.462   3.184  0.00  0.00    -0.361 N 
HETATM   19  C   UNK N   1      32.636  17.527   4.352  0.00  0.00     0.182 A 
ATOM     20  HN  UNK N   1      31.855  18.209   2.498  1.00  0.00     0.166 HD
ENDBRANCH  14  15
ENDBRANCH   1  14
BRANCH   1  21
HETATM   21  C   UNK N   1      33.301  16.340   8.711  0.00  0.00    -0.006 A 
HETATM   22  C   UNK N   1      33.055  15.145   9.415  0.00  0.00     0.013 A 
HETATM   23  C   UNK N   1      33.854  14.768  10.490  0.00  0.00     0.024 A 
HETATM   24  C   UNK N   1      34.914  15.579  10.885  0.00  0.00     0.035 A 
HETATM   25  C   UNK N   1      35.171  16.776  10.208  0.00  0.00     0.048 A 
HETATM   26 Cl   UNK N   1      35.927  15.088  12.224  0.00  0.00    -0.084 Cl
HETATM   27  C   UNK N   1      34.373  17.162   9.122  0.00  0.00     0.044 A 
HETATM   28 Cl   UNK N   1      34.737  18.675   8.308  0.00  0.00    -0.084 Cl
ENDBRANCH   1  21
TORSDOF 7
ENDMDL
MODEL 5
REMARK VINA RESULT:      -6.8      9.568     11.551
REMARK  7 active torsions:
REMARK  status: ('A' for Active; 'I' for Inactive)
REMARK    1  A    between atoms: C_3  and  C_25 
REMARK    2  A    between atoms: C_6  and  C_7 
REMARK    3  A    between atoms: C_7  and  O_8 
REMARK    4  A    between atoms: O_8  and  C_9 
REMARK    5  A    between atoms: C_9  and  C_10 
REMARK    6  A    between atoms: C_9  and  C_17 
REMARK    7  A    between atoms: C_10  and  N_11 
ROOT
HETATM    1  C   UNK N   1      22.103  14.057   7.190  0.00  0.00     0.174 C 
ENDROOT
BRANCH   1   2
HETATM    2  O   UNK N   1      22.528  15.412   7.202  0.00  0.00    -0.375 OA
BRANCH   2   3
HETATM    3  C   UNK N   1      23.293  15.769   6.085  0.00  0.00     0.207 C 
BRANCH   3   4
HETATM    4  C   UNK N   1      22.540  16.776   5.268  0.00  0.00    -0.035 A 
HETATM    5  C   UNK N   1      22.474  16.657   3.871  0.00  0.00     0.010 A 
HETATM    6  C   UNK N   1      21.749  17.577   3.116  0.00  0.00     0.017 A 
HETATM    7  C   UNK N   1      21.076  18.630   3.747  0.00  0.00     0.047 A 
HETATM    8  C   UNK N   1      21.147  18.756   5.142  0.00  0.00     0.017 A 
HETATM    9  C   UNK N   1      21.878  17.832   5.900  0.00  0.00     0.010 A 
BRANCH   7  10
HETATM   10  C   UNK N   1      20.274  19.609   2.942  0.00  0.00     0.417 C 
HETATM   11  F   UNK N   1      20.266  20.834   3.584  0.00  0.00    -0.166 F 
HETATM   12  F   UNK N   1      18.966  19.178   2.794  0.00  0.00    -0.166 F 
HETATM   13  F   UNK N   1      20.839  19.755   1.689  0.00  0.00    -0.166 F 
ENDBRANCH   7  10
ENDBRANCH   3   4
ENDBRANCH   2   3
ENDBRANCH   1   2
BRANCH   1  14
HETATM   14  C   UNK N   1      20.596  13.807   6.924  0.00  0.00     0.166 C 
BRANCH  14  15
HETATM   15  N   UNK N   1      20.146  14.146   5.578  0.00  0.00    -0.349 N 
HETATM   16  C   UNK N   1      20.466  13.536   4.428  0.00  0.00     0.108 A 
HETATM   17  C   UNK N   1      19.802  14.198   3.412  0.00  0.00     0.106 A 
HETATM   18  N   UNK N   1      19.076  15.199   3.952  0.00  0.00    -0.361 N 
HETATM   19  C   UNK N   1      19.300  15.145   5.280  0.00  0.00     0.182 A 
ATOM     20  HN  UNK N   1      18.479  15.861   3.457  1.00  0.00     0.166 HD
ENDBRANCH  14  15
ENDBRANCH   1  14
BRANCH   1  21
HETATM   21  C   UNK N   1      22.356  13.506   8.579  0.00  0.00    -0.006 A 
HETATM   22  C   UNK N   1      21.270  13.347   9.461  0.00  0.00     0.013 A 
HETATM   23  C   UNK N   1      21.448  12.796  10.727  0.00  0.00     0.024 A 
HETATM   24  C   UNK N   1      22.716  12.394  11.136  0.00  0.00     0.035 A 
HETATM   25  C   UNK N   1      23.811  12.552  10.281  0.00  0.00     0.048 A 
HETATM   26 Cl   UNK N   1      22.929  11.682  12.720  0.00  0.00    -0.084 Cl
HETATM   27  C   UNK N   1      23.641  13.104   9.004  0.00  0.00     0.044 A 
HETATM   28 Cl   UNK N   1      25.050  13.283   7.970  0.00  0.00    -0.084 Cl
ENDBRANCH   1  21
TORSDOF 7
ENDMDL
MODEL 6
REMARK VINA RESULT:      -6.6     13.210     16.098
REMARK  7 active torsions:
REMARK  status: ('A' for Active; 'I' for Inactive)
REMARK    1  A    between atoms: C_3  and  C_25 
REMARK    2  A    between atoms: C_6  and  C_7 
REMARK    3  A    between atoms: C_7  and  O_8 
REMARK    4  A    between atoms: O_8  and  C_9 
REMARK    5  A    between atoms: C_9  and  C_10 
REMARK    6  A    between atoms: C_9  and  C_17 
REMARK    7  A    between atoms: C_10  and  N_11 
ROOT
HETATM    1  C   UNK N   1      27.545  25.652  -5.529  0.00  0.00     0.174 C 
ENDROOT
BRANCH   1   2
HETATM    2  O   UNK N   1      28.025  25.322  -4.234  0.00  0.00    -0.375 OA
BRANCH   2   3
HETATM    3  C   UNK N   1      29.310  25.810  -3.971  0.00  0.00     0.207 C 
BRANCH   3   4
HETATM    4  C   UNK N   1      30.257  24.657  -3.811  0.00  0.00    -0.035 A 
HETATM    5  C   UNK N   1      29.960  23.607  -2.927  0.00  0.00     0.010 A 
HETATM    6  C   UNK N   1      30.826  22.523  -2.801  0.00  0.00     0.017 A 
HETATM    7  C   UNK N   1      32.002  22.470  -3.558  0.00  0.00     0.047 A 
HETATM    8  C   UNK N   1      32.305  23.522  -4.436  0.00  0.00     0.017 A 
HETATM    9  C   UNK N   1      31.435  24.613  -4.561  0.00  0.00     0.010 A 
BRANCH   7  10
HETATM   10  C   UNK N   1      32.926  21.294  -3.445  0.00  0.00     0.417 C 
HETATM   11  F   UNK N   1      33.246  21.087  -2.116  0.00  0.00    -0.166 F 
HETATM   12  F   UNK N   1      34.096  21.510  -4.155  0.00  0.00    -0.166 F 
HETATM   13  F   UNK N   1      32.305  20.165  -3.945  0.00  0.00    -0.166 F 
ENDBRANCH   7  10
ENDBRANCH   3   4
ENDBRANCH   2   3
ENDBRANCH   1   2
BRANCH   1  14
HETATM   14  C   UNK N   1      26.274  26.539  -5.592  0.00  0.00     0.166 C 
BRANCH  14  15
HETATM   15  N   UNK N   1      26.379  27.812  -4.888  0.00  0.00    -0.349 N 
HETATM   16  C   UNK N   1      27.095  28.889  -5.243  0.00  0.00     0.108 A 
HETATM   17  C   UNK N   1      26.886  29.858  -4.279  0.00  0.00     0.106 A 
HETATM   18  N   UNK N   1      26.038  29.368  -3.351  0.00  0.00    -0.361 N 
HETATM   19  C   UNK N   1      25.739  28.115  -3.747  0.00  0.00     0.182 A 
ATOM     20  HN  UNK N   1      25.693  29.848  -2.519  1.00  0.00     0.166 HD
ENDBRANCH  14  15
ENDBRANCH   1  14
BRANCH   1  21
HETATM   21  C   UNK N   1      27.151  24.349  -6.195  0.00  0.00    -0.006 A 
HETATM   22  C   UNK N   1      25.897  23.781  -5.900  0.00  0.00     0.013 A 
HETATM   23  C   UNK N   1      25.472  22.614  -6.529  0.00  0.00     0.024 A 
HETATM   24  C   UNK N   1      26.294  21.991  -7.464  0.00  0.00     0.035 A 
HETATM   25  C   UNK N   1      27.548  22.532  -7.765  0.00  0.00     0.048 A 
HETATM   26 Cl   UNK N   1      25.745  20.536  -8.266  0.00  0.00    -0.084 Cl
HETATM   27  C   UNK N   1      27.982  23.708  -7.139  0.00  0.00     0.044 A 
HETATM   28 Cl   UNK N   1      29.567  24.344  -7.551  0.00  0.00    -0.084 Cl
ENDBRANCH   1  21
TORSDOF 7
ENDMDL
MODEL 7
REMARK VINA RESULT:      -6.5      9.013     12.529
REMARK  7 active torsions:
REMARK  status: ('A' for Active; 'I' for Inactive)
REMARK    1  A    between atoms: C_3  and  C_25 
REMARK    2  A    between atoms: C_6  and  C_7 
REMARK    3  A    between atoms: C_7  and  O_8 
REMARK    4  A    between atoms: O_8  and  C_9 
REMARK    5  A    between atoms: C_9  and  C_10 
REMARK    6  A    between atoms: C_9  and  C_17 
REMARK    7  A    between atoms: C_10  and  N_11 
ROOT
HETATM    1  C   UNK N   1      35.690  12.995  13.645  0.00  0.00     0.174 C 
ENDROOT
BRANCH   1   2
HETATM    2  O   UNK N   1      35.011  13.213  14.873  0.00  0.00    -0.375 OA
BRANCH   2   3
HETATM    3  C   UNK N   1      35.847  13.658  15.905  0.00  0.00     0.207 C 
BRANCH   3   4
HETATM    4  C   UNK N   1      35.593  12.841  17.137  0.00  0.00    -0.035 A 
HETATM    5  C   UNK N   1      35.236  13.462  18.344  0.00  0.00     0.010 A 
HETATM    6  C   UNK N   1      34.973  12.700  19.481  0.00  0.00     0.017 A 
HETATM    7  C   UNK N   1      35.059  11.304  19.427  0.00  0.00     0.047 A 
HETATM    8  C   UNK N   1      35.424  10.681  18.223  0.00  0.00     0.017 A 
HETATM    9  C   UNK N   1      35.691  11.448  17.082  0.00  0.00     0.010 A 
BRANCH   7  10
HETATM   10  C   UNK N   1      34.752  10.476  20.640  0.00  0.00     0.417 C 
HETATM   11  F   UNK N   1      33.812  11.129  21.415  0.00  0.00    -0.166 F 
HETATM   12  F   UNK N   1      35.890  10.270  21.403  0.00  0.00    -0.166 F 
HETATM   13  F   UNK N   1      34.249   9.249  20.250  0.00  0.00    -0.166 F 
ENDBRANCH   7  10
ENDBRANCH   3   4
ENDBRANCH   2   3
ENDBRANCH   1   2
BRANCH   1  14
HETATM   14  C   UNK N   1      34.842  13.122  12.353  0.00  0.00     0.166 C 
BRANCH  14  15
HETATM   15  N   UNK N   1      34.900  14.429  11.707  0.00  0.00    -0.349 N 
HETATM   16  C   UNK N   1      35.817  15.391  11.883  0.00  0.00     0.108 A 
HETATM   17  C   UNK N   1      35.469  16.447  11.061  0.00  0.00     0.106 A 
HETATM   18  N   UNK N   1      34.350  16.116  10.384  0.00  0.00    -0.361 N 
HETATM   19  C   UNK N   1      34.023  14.875  10.794  0.00  0.00     0.182 A 
ATOM     20  HN  UNK N   1      33.853  16.688   9.701  1.00  0.00     0.166 HD
ENDBRANCH  14  15
ENDBRANCH   1  14
BRANCH   1  21
HETATM   21  C   UNK N   1      36.173  11.559  13.661  0.00  0.00    -0.006 A 
HETATM   22  C   UNK N   1      37.551  11.297  13.533  0.00  0.00     0.013 A 
HETATM   23  C   UNK N   1      38.043   9.997  13.595  0.00  0.00     0.024 A 
HETATM   24  C   UNK N   1      37.167   8.932  13.785  0.00  0.00     0.035 A 
HETATM   25  C   UNK N   1      35.793   9.167  13.903  0.00  0.00     0.048 A 
HETATM   26 Cl   UNK N   1      37.795   7.302  13.883  0.00  0.00    -0.084 Cl
HETATM   27  C   UNK N   1      35.289  10.473  13.844  0.00  0.00     0.044 A 
HETATM   28 Cl   UNK N   1      33.556  10.713  13.997  0.00  0.00    -0.084 Cl
ENDBRANCH   1  21
TORSDOF 7
ENDMDL
MODEL 8
REMARK VINA RESULT:      -6.4      8.027     11.343
REMARK  7 active torsions:
REMARK  status: ('A' for Active; 'I' for Inactive)
REMARK    1  A    between atoms: C_3  and  C_25 
REMARK    2  A    between atoms: C_6  and  C_7 
REMARK    3  A    between atoms: C_7  and  O_8 
REMARK    4  A    between atoms: O_8  and  C_9 
REMARK    5  A    between atoms: C_9  and  C_10 
REMARK    6  A    between atoms: C_9  and  C_17 
REMARK    7  A    between atoms: C_10  and  N_11 
ROOT
HETATM    1  C   UNK N   1      36.631  13.559  12.326  0.00  0.00     0.174 C 
ENDROOT
BRANCH   1   2
HETATM    2  O   UNK N   1      36.959  13.144  13.644  0.00  0.00    -0.375 OA
BRANCH   2   3
HETATM    3  C   UNK N   1      36.345  13.911  14.642  0.00  0.00     0.207 C 
BRANCH   3   4
HETATM    4  C   UNK N   1      36.041  13.038  15.823  0.00  0.00    -0.035 A 
HETATM    5  C   UNK N   1      35.380  13.561  16.946  0.00  0.00     0.010 A 
HETATM    6  C   UNK N   1      35.073  12.742  18.031  0.00  0.00     0.017 A 
HETATM    7  C   UNK N   1      35.419  11.386  18.009  0.00  0.00     0.047 A 
HETATM    8  C   UNK N   1      36.087  10.863  16.891  0.00  0.00     0.017 A 
HETATM    9  C   UNK N   1      36.397  11.687  15.802  0.00  0.00     0.010 A 
BRANCH   7  10
HETATM   10  C   UNK N   1      35.069  10.494  19.162  0.00  0.00     0.417 C 
HETATM   11  F   UNK N   1      36.138   9.662  19.441  0.00  0.00    -0.166 F 
HETATM   12  F   UNK N   1      33.964   9.711  18.869  0.00  0.00    -0.166 F 
HETATM   13  F   UNK N   1      34.787  11.262  20.276  0.00  0.00    -0.166 F 
ENDBRANCH   7  10
ENDBRANCH   3   4
ENDBRANCH   2   3
ENDBRANCH   1   2
BRANCH   1  14
HETATM   14  C   UNK N   1      35.133  13.844  12.042  0.00  0.00     0.166 C 
BRANCH  14  15
HETATM   15  N   UNK N   1      34.882  14.967  11.145  0.00  0.00    -0.349 N 
HETATM   16  C   UNK N   1      34.156  14.971  10.019  0.00  0.00     0.108 A 
HETATM   17  C   UNK N   1      34.194  16.255   9.507  0.00  0.00     0.106 A 
HETATM   18  N   UNK N   1      34.935  17.025  10.331  0.00  0.00    -0.361 N 
HETATM   19  C   UNK N   1      35.343  16.215  11.328  0.00  0.00     0.182 A 
ATOM     20  HN  UNK N   1      35.144  18.017  10.222  1.00  0.00     0.166 HD
ENDBRANCH  14  15
ENDBRANCH   1  14
BRANCH   1  21
HETATM   21  C   UNK N   1      36.996  12.414  11.403  0.00  0.00    -0.006 A 
HETATM   22  C   UNK N   1      36.705  11.094  11.799  0.00  0.00     0.013 A 
HETATM   23  C   UNK N   1      36.975  10.017  10.959  0.00  0.00     0.024 A 
HETATM   24  C   UNK N   1      37.543  10.238   9.708  0.00  0.00     0.035 A 
HETATM   25  C   UNK N   1      37.850  11.539   9.298  0.00  0.00     0.048 A 
HETATM   26 Cl   UNK N   1      37.859   8.881   8.650  0.00  0.00    -0.084 Cl
HETATM   27  C   UNK N   1      37.580  12.630  10.135  0.00  0.00     0.044 A 
HETATM   28 Cl   UNK N   1      37.987  14.243   9.573  0.00  0.00    -0.084 Cl
ENDBRANCH   1  21
TORSDOF 7
ENDMDL
MODEL 9
REMARK VINA RESULT:      -6.4      7.853     10.780
REMARK  7 active torsions:
REMARK  status: ('A' for Active; 'I' for Inactive)
REMARK    1  A    between atoms: C_3  and  C_25 
REMARK    2  A    between atoms: C_6  and  C_7 
REMARK    3  A    between atoms: C_7  and  O_8 
REMARK    4  A    between atoms: O_8  and  C_9 
REMARK    5  A    between atoms: C_9  and  C_10 
REMARK    6  A    between atoms: C_9  and  C_17 
REMARK    7  A    between atoms: C_10  and  N_11 
ROOT
HETATM    1  C   UNK N   1      35.130  13.305  11.930  0.00  0.00     0.174 C 
ENDROOT
BRANCH   1   2
HETATM    2  O   UNK N   1      34.942  13.758  13.262  0.00  0.00    -0.375 OA
BRANCH   2   3
HETATM    3  C   UNK N   1      36.124  13.805  14.010  0.00  0.00     0.207 C 
BRANCH   3   4
HETATM    4  C   UNK N   1      35.923  13.072  15.304  0.00  0.00    -0.035 A 
HETATM    5  C   UNK N   1      35.353  13.721  16.411  0.00  0.00     0.010 A 
HETATM    6  C   UNK N   1      35.140  13.032  17.603  0.00  0.00     0.017 A 
HETATM    7  C   UNK N   1      35.491  11.680  17.706  0.00  0.00     0.047 A 
HETATM    8  C   UNK N   1      36.068  11.031  16.603  0.00  0.00     0.017 A 
HETATM    9  C   UNK N   1      36.284  11.726  15.407  0.00  0.00     0.010 A 
BRANCH   7  10
HETATM   10  C   UNK N   1      35.241  10.926  18.978  0.00  0.00     0.417 C 
HETATM   11  F   UNK N   1      36.377  10.215  19.321  0.00  0.00    -0.166 F 
HETATM   12  F   UNK N   1      34.189  10.037  18.831  0.00  0.00    -0.166 F 
HETATM   13  F   UNK N   1      34.936  11.813  19.993  0.00  0.00    -0.166 F 
ENDBRANCH   7  10
ENDBRANCH   3   4
ENDBRANCH   2   3
ENDBRANCH   1   2
BRANCH   1  14
HETATM   14  C   UNK N   1      36.546  12.784  11.569  0.00  0.00     0.166 C 
BRANCH  14  15
HETATM   15  N   UNK N   1      36.663  11.332  11.489  0.00  0.00    -0.349 N 
HETATM   16  C   UNK N   1      37.540  10.544  12.127  0.00  0.00     0.108 A 
HETATM   17  C   UNK N   1      37.273   9.240  11.749  0.00  0.00     0.106 A 
HETATM   18  N   UNK N   1      36.230   9.244  10.893  0.00  0.00    -0.361 N 
HETATM   19  C   UNK N   1      35.872  10.536  10.752  0.00  0.00     0.182 A 
ATOM     20  HN  UNK N   1      35.800   8.436  10.444  1.00  0.00     0.166 HD
ENDBRANCH  14  15
ENDBRANCH   1  14
BRANCH   1  21
HETATM   21  C   UNK N   1      34.907  14.499  11.025  0.00  0.00    -0.006 A 
HETATM   22  C   UNK N   1      35.448  15.747  11.390  0.00  0.00     0.013 A 
HETATM   23  C   UNK N   1      35.313  16.858  10.562  0.00  0.00     0.024 A 
HETATM   24  C   UNK N   1      34.632  16.744   9.354  0.00  0.00     0.035 A 
HETATM   25  C   UNK N   1      34.076  15.518   8.975  0.00  0.00     0.048 A 
HETATM   26 Cl   UNK N   1      34.484  18.140   8.309  0.00  0.00    -0.084 Cl
HETATM   27  C   UNK N   1      34.210  14.393   9.801  0.00  0.00     0.044 A 
HETATM   28 Cl   UNK N   1      33.492  12.877   9.279  0.00  0.00    -0.084 Cl
ENDBRANCH   1  21
TORSDOF 7
ENDMDL
