MODEL 1
REMARK VINA RESULT:      -7.6      0.000      0.000
REMARK  31 active torsions:
REMARK  status: ('A' for Active; 'I' for Inactive)
REMARK    1  A    between atoms: C_4  and  C_3 
REMARK    2  A    between atoms: C_7  and  C_3 
REMARK    3  A    between atoms: C_12  and  C_4 
REMARK    4  A    between atoms: C_6  and  C_5 
REMARK    5  A    between atoms: C_13  and  C_5 
REMARK    6  A    between atoms: C_19  and  C_6 
REMARK    7  A    between atoms: C_20  and  C_7 
REMARK    8  A    between atoms: N_31  and  C_12 
REMARK    9  A    between atoms: N_36  and  C_13 
REMARK   10  A    between atoms: C_17  and  C_14 
REMARK   11  A    between atoms: C_22  and  C_14 
REMARK   12  A    between atoms: C_21  and  C_15 
REMARK   13  A    between atoms: C_23  and  C_15 
REMARK   14  A    between atoms: C_24  and  C_16 
REMARK   15  A    between atoms: O_45  and  C_18 
REMARK   16  A    between atoms: C_25  and  C_19 
REMARK   17  A    between atoms: C_19  and  N_32 
REMARK   18  A    between atoms: C_26  and  C_20 
REMARK   19  A    between atoms: C_20  and  N_37 
REMARK   20  A    between atoms: C_27  and  C_21 
REMARK   21  A    between atoms: C_21  and  N_39 
REMARK   22  A    between atoms: C_29  and  C_22 
REMARK   23  A    between atoms: C_22  and  N_41 
REMARK   24  A    between atoms: O_47  and  C_23 
REMARK   25  A    between atoms: C_28  and  C_24 
REMARK   26  A    between atoms: C_24  and  N_43 
REMARK   27  A    between atoms: C_25  and  O_48 
REMARK   28  A    between atoms: C_26  and  O_49 
REMARK   29  A    between atoms: C_27  and  O_50 
REMARK   30  A    between atoms: C_28  and  O_51 
REMARK   31  A    between atoms: O_53  and  C_29 
REMARK       I    between atoms: N_35  and  C_30 
REMARK       I    between atoms: N_36  and  C_30 
ROOT
HETATM    1  C   UNK N   1      34.614  14.356   9.793  0.00  0.00     0.167 C 
ENDROOT
BRANCH   1   2
HETATM    2  C   UNK N   1      34.400  15.611  10.642  0.00  0.00     0.143 C 
BRANCH   2   3
HETATM    3  C   UNK N   1      35.612  16.511  10.553  0.00  0.00     0.141 C 
HETATM    4  O   UNK N   1      35.510  17.651  10.127  0.00  0.00    -0.650 OA
BRANCH   3   5
HETATM    5  O   UNK N   1      36.802  16.077  11.008  0.00  0.00    -0.776 OA
HETATM    6  H   UNK N   1      36.904  15.707  11.862  0.00  0.00     0.167 HD
ENDBRANCH   3   5
ENDBRANCH   2   3
ENDBRANCH   1   2
BRANCH   1   7
HETATM    7  C   UNK N   1      34.951  13.129  10.553  0.00  0.00     0.136 C 
HETATM    8  N   UNK N   1      36.128  13.073  11.070  0.00  0.00    -0.360 N 
ATOM      9  HN  UNK N   1      36.672  13.935  11.075  1.00  0.00     0.162 HD
BRANCH   8  10
HETATM   10  C   UNK N   1      36.747  11.907  11.641  0.00  0.00     0.161 C 
BRANCH  10  11
HETATM   11  C   UNK N   1      37.937  11.362  10.820  0.00  0.00     0.008 C 
HETATM   12  C   UNK N   1      38.620  12.360   9.906  0.00  0.00     0.012 C 
HETATM   13  C   UNK N   1      37.527  10.136  10.020  0.00  0.00     0.012 C 
ENDBRANCH  10  11
BRANCH  10  14
HETATM   14  C   UNK N   1      36.970  12.125  13.117  0.00  0.00     0.135 C 
HETATM   15  N   UNK N   1      36.087  12.730  13.838  0.00  0.00    -0.358 N 
ATOM     16  HN  UNK N   1      35.162  12.891  13.438  1.00  0.00     0.162 HD
BRANCH  15  17
HETATM   17  C   UNK N   1      36.345  13.193  15.194  0.00  0.00     0.185 C 
BRANCH  17  18
HETATM   18  C   UNK N   1      35.027  13.087  16.003  0.00  0.00     0.074 C 
BRANCH  18  19
HETATM   19  C   UNK N   1      35.346  12.497  17.347  0.00  0.00    -0.056 A 
HETATM   20  C   UNK N   1      35.172  13.278  18.499  0.00  0.00     0.010 A 
HETATM   21  C   UNK N   1      35.230  12.685  19.763  0.00  0.00     0.037 A 
HETATM   22  C   UNK N   1      35.455  11.310  19.878  0.00  0.00     0.065 A 
HETATM   23  C   UNK N   1      35.651  10.534  18.732  0.00  0.00     0.037 A 
HETATM   24  C   UNK N   1      35.582  11.124  17.468  0.00  0.00     0.010 A 
BRANCH  22  25
HETATM   25  O   UNK N   1      35.476  10.732  21.089  0.00  0.00    -0.361 OA
HETATM   26  H   UNK N   1      35.518  11.245  21.872  0.00  0.00     0.217 HD
ENDBRANCH  22  25
ENDBRANCH  18  19
ENDBRANCH  17  18
BRANCH  17  27
HETATM   27  C   UNK N   1      36.967  14.567  15.216  0.00  0.00     0.163 C 
HETATM   28  O   UNK N   1      37.518  14.991  16.221  0.00  0.00    -0.648 OA
BRANCH  27  29
HETATM   29  O   UNK N   1      36.931  15.326  14.107  0.00  0.00    -0.775 OA
HETATM   30  H   UNK N   1      37.404  15.397  13.301  0.00  0.00     0.167 HD
ENDBRANCH  27  29
ENDBRANCH  17  27
ENDBRANCH  15  17
BRANCH  14  31
HETATM   31  O   UNK N   1      38.154  11.751  13.650  0.00  0.00    -0.348 OA
HETATM   32  H   UNK N   1      38.949  12.070  14.029  0.00  0.00     0.219 HD
ENDBRANCH  14  31
ENDBRANCH  10  14
ENDBRANCH   8  10
BRANCH   7  33
HETATM   33  O   UNK N   1      34.146  12.045  10.498  0.00  0.00    -0.348 OA
HETATM   34  H   UNK N   1      33.368  11.607  10.779  0.00  0.00     0.219 HD
ENDBRANCH   7  33
ENDBRANCH   1   7
BRANCH   1  35
HETATM   35  N   UNK N   1      33.602  13.998   8.814  0.00  0.00    -0.360 N 
HETATM   36  C   UNK N   1      32.809  14.718   8.085  0.00  0.00     0.135 C 
ATOM     37  HN  UNK N   1      33.495  12.993   8.674  1.00  0.00     0.162 HD
BRANCH  36  38
HETATM   38  C   UNK N   1      32.908  16.215   7.928  0.00  0.00     0.158 C 
BRANCH  38  39
HETATM   39  C   UNK N   1      31.996  16.993   8.906  0.00  0.00     0.033 C 
BRANCH  39  40
HETATM   40  C   UNK N   1      30.595  17.292   8.375  0.00  0.00     0.004 C 
BRANCH  40  41
HETATM   41  C   UNK N   1      29.972  18.436   9.155  0.00  0.00     0.019 C 
BRANCH  41  42
HETATM   42  C   UNK N   1      28.759  18.954   8.406  0.00  0.00     0.111 C 
BRANCH  42  43
HETATM   43  N   UNK N   1      27.546  18.470   9.040  0.00  0.00    -0.430 N 
HETATM   44  H   UNK N   1      26.690  18.995   9.215  0.00  0.00     0.149 HD
HETATM   45  H   UNK N   1      27.551  17.496   9.345  0.00  0.00     0.149 HD
ENDBRANCH  42  43
ENDBRANCH  41  42
ENDBRANCH  40  41
ENDBRANCH  39  40
ENDBRANCH  38  39
BRANCH  38  46
HETATM   46  N   UNK N   1      32.601  16.392   6.524  0.00  0.00    -0.361 N 
HETATM   47  C   UNK N   1      33.107  17.150   5.617  0.00  0.00     0.134 C 
ATOM     48  HN  UNK N   1      31.837  15.802   6.191  1.00  0.00     0.162 HD
BRANCH  47  49
HETATM   49  C   UNK N   1      32.448  17.137   4.265  0.00  0.00     0.149 C 
BRANCH  49  50
HETATM   50  C   UNK N   1      30.982  17.602   4.323  0.00  0.00     0.034 C 
BRANCH  50  51
HETATM   51  C   UNK N   1      29.946  16.505   4.086  0.00  0.00     0.023 C 
BRANCH  51  52
HETATM   52  C   UNK N   1      28.586  17.105   3.740  0.00  0.00     0.138 C 
BRANCH  52  53
HETATM   53  N   UNK N   1      28.525  18.516   4.067  0.00  0.00    -0.227 N 
HETATM   54  C   UNK N   1      27.555  19.047   4.952  0.00  0.00     0.665 C 
HETATM   55  N   UNK N   1      27.519  20.329   5.139  0.00  0.00    -0.235 N 
HETATM   56  N   UNK N   1      26.605  18.231   5.585  0.00  0.00    -0.235 N 
HETATM   57  H   UNK N   1      28.024  20.734   5.881  0.00  0.00     0.174 HD
ATOM     58  HN  UNK N   1      26.966  20.919   4.518  1.00  0.00     0.174 HD
HETATM   59  H   UNK N   1      25.700  17.880   5.752  0.00  0.00     0.174 HD
HETATM   60  H   UNK N   1      27.153  17.721   6.224  0.00  0.00     0.174 HD
HETATM   61  H   UNK N   1      29.182  19.126   3.660  0.00  0.00     0.177 HD
ENDBRANCH  52  53
ENDBRANCH  51  52
ENDBRANCH  50  51
ENDBRANCH  49  50
BRANCH  49  62
HETATM   62  N   UNK N   1      32.545  15.830   3.640  0.00  0.00    -0.419 N 
HETATM   63  H   UNK N   1      32.174  14.961   4.025  0.00  0.00     0.150 HD
HETATM   64  H   UNK N   1      33.026  15.775   2.741  0.00  0.00     0.150 HD
ENDBRANCH  49  62
ENDBRANCH  47  49
BRANCH  47  65
HETATM   65  O   UNK N   1      34.188  17.924   5.854  0.00  0.00    -0.348 OA
HETATM   66  H   UNK N   1      34.273  18.854   5.929  0.00  0.00     0.219 HD
ENDBRANCH  47  65
ENDBRANCH  38  46
ENDBRANCH  36  38
BRANCH  36  67
HETATM   67  O   UNK N   1      31.913  14.073   7.313  0.00  0.00    -0.348 OA
HETATM   68  H   UNK N   1      31.378  14.166   6.549  0.00  0.00     0.219 HD
ENDBRANCH  36  67
ENDBRANCH   1  35
TORSDOF 31
ENDMDL
MODEL 2
REMARK VINA RESULT:      -7.5      6.489     13.411
REMARK  31 active torsions:
REMARK  status: ('A' for Active; 'I' for Inactive)
REMARK    1  A    between atoms: C_4  and  C_3 
REMARK    2  A    between atoms: C_7  and  C_3 
REMARK    3  A    between atoms: C_12  and  C_4 
REMARK    4  A    between atoms: C_6  and  C_5 
REMARK    5  A    between atoms: C_13  and  C_5 
REMARK    6  A    between atoms: C_19  and  C_6 
REMARK    7  A    between atoms: C_20  and  C_7 
REMARK    8  A    between atoms: N_31  and  C_12 
REMARK    9  A    between atoms: N_36  and  C_13 
REMARK   10  A    between atoms: C_17  and  C_14 
REMARK   11  A    between atoms: C_22  and  C_14 
REMARK   12  A    between atoms: C_21  and  C_15 
REMARK   13  A    between atoms: C_23  and  C_15 
REMARK   14  A    between atoms: C_24  and  C_16 
REMARK   15  A    between atoms: O_45  and  C_18 
REMARK   16  A    between atoms: C_25  and  C_19 
REMARK   17  A    between atoms: C_19  and  N_32 
REMARK   18  A    between atoms: C_26  and  C_20 
REMARK   19  A    between atoms: C_20  and  N_37 
REMARK   20  A    between atoms: C_27  and  C_21 
REMARK   21  A    between atoms: C_21  and  N_39 
REMARK   22  A    between atoms: C_29  and  C_22 
REMARK   23  A    between atoms: C_22  and  N_41 
REMARK   24  A    between atoms: O_47  and  C_23 
REMARK   25  A    between atoms: C_28  and  C_24 
REMARK   26  A    between atoms: C_24  and  N_43 
REMARK   27  A    between atoms: C_25  and  O_48 
REMARK   28  A    between atoms: C_26  and  O_49 
REMARK   29  A    between atoms: C_27  and  O_50 
REMARK   30  A    between atoms: C_28  and  O_51 
REMARK   31  A    between atoms: O_53  and  C_29 
REMARK       I    between atoms: N_35  and  C_30 
REMARK       I    between atoms: N_36  and  C_30 
ROOT
HETATM    1  C   UNK N   1      28.398  18.332   7.078  0.00  0.00     0.167 C 
ENDROOT
BRANCH   1   2
HETATM    2  C   UNK N   1      29.067  18.708   8.402  0.00  0.00     0.143 C 
BRANCH   2   3
HETATM    3  C   UNK N   1      28.718  17.692   9.466  0.00  0.00     0.141 C 
HETATM    4  O   UNK N   1      27.621  17.154   9.477  0.00  0.00    -0.650 OA
BRANCH   3   5
HETATM    5  O   UNK N   1      29.644  17.328  10.373  0.00  0.00    -0.776 OA
HETATM    6  H   UNK N   1      29.429  17.184  11.273  0.00  0.00     0.167 HD
ENDBRANCH   3   5
ENDBRANCH   2   3
ENDBRANCH   1   2
BRANCH   1   7
HETATM    7  C   UNK N   1      27.126  19.037   6.790  0.00  0.00     0.136 C 
HETATM    8  N   UNK N   1      26.464  18.636   5.762  0.00  0.00    -0.360 N 
ATOM      9  HN  UNK N   1      26.761  17.761   5.331  1.00  0.00     0.162 HD
BRANCH   8  10
HETATM   10  C   UNK N   1      25.342  19.309   5.163  0.00  0.00     0.161 C 
BRANCH  10  11
HETATM   11  C   UNK N   1      25.732  20.335   4.076  0.00  0.00     0.008 C 
HETATM   12  C   UNK N   1      24.736  20.512   2.948  0.00  0.00     0.012 C 
HETATM   13  C   UNK N   1      27.104  20.018   3.500  0.00  0.00     0.012 C 
ENDBRANCH  10  11
BRANCH  10  14
HETATM   14  C   UNK N   1      24.278  18.301   4.810  0.00  0.00     0.135 C 
HETATM   15  N   UNK N   1      23.132  18.311   5.405  0.00  0.00    -0.358 N 
ATOM     16  HN  UNK N   1      22.891  19.119   5.980  1.00  0.00     0.162 HD
BRANCH  15  17
HETATM   17  C   UNK N   1      22.167  17.225   5.296  0.00  0.00     0.185 C 
BRANCH  17  18
HETATM   18  C   UNK N   1      20.792  17.834   4.920  0.00  0.00     0.074 C 
BRANCH  18  19
HETATM   19  C   UNK N   1      20.931  18.528   3.596  0.00  0.00    -0.056 A 
HETATM   20  C   UNK N   1      20.688  17.812   2.415  0.00  0.00     0.010 A 
HETATM   21  C   UNK N   1      20.575  18.487   1.197  0.00  0.00     0.037 A 
HETATM   22  C   UNK N   1      20.699  19.879   1.157  0.00  0.00     0.065 A 
HETATM   23  C   UNK N   1      20.964  20.592   2.330  0.00  0.00     0.037 A 
HETATM   24  C   UNK N   1      21.065  19.920   3.549  0.00  0.00     0.010 A 
BRANCH  22  25
HETATM   25  O   UNK N   1      20.558  20.533  -0.006  0.00  0.00    -0.361 OA
HETATM   26  H   UNK N   1      20.192  21.395  -0.038  0.00  0.00     0.217 HD
ENDBRANCH  22  25
ENDBRANCH  18  19
ENDBRANCH  17  18
BRANCH  17  27
HETATM   27  C   UNK N   1      22.137  16.366   6.535  0.00  0.00     0.163 C 
HETATM   28  O   UNK N   1      22.808  15.347   6.609  0.00  0.00    -0.648 OA
BRANCH  27  29
HETATM   29  O   UNK N   1      21.377  16.738   7.580  0.00  0.00    -0.775 OA
HETATM   30  H   UNK N   1      21.499  17.149   8.413  0.00  0.00     0.167 HD
ENDBRANCH  27  29
ENDBRANCH  17  27
ENDBRANCH  15  17
BRANCH  14  31
HETATM   31  O   UNK N   1      24.581  17.332   3.918  0.00  0.00    -0.348 OA
HETATM   32  H   UNK N   1      25.202  16.662   3.709  0.00  0.00     0.219 HD
ENDBRANCH  14  31
ENDBRANCH  10  14
ENDBRANCH   8  10
BRANCH   7  33
HETATM   33  O   UNK N   1      26.814  20.181   7.436  0.00  0.00    -0.348 OA
HETATM   34  H   UNK N   1      26.749  20.658   8.239  0.00  0.00     0.219 HD
ENDBRANCH   7  33
ENDBRANCH   1   7
BRANCH   1  35
HETATM   35  N   UNK N   1      29.197  18.360   5.864  0.00  0.00    -0.360 N 
HETATM   36  C   UNK N   1      29.929  17.459   5.288  0.00  0.00     0.135 C 
ATOM     37  HN  UNK N   1      29.177  19.254   5.374  1.00  0.00     0.162 HD
BRANCH  36  38
HETATM   38  C   UNK N   1      29.957  16.001   5.671  0.00  0.00     0.158 C 
BRANCH  38  39
HETATM   39  C   UNK N   1      31.340  15.530   6.182  0.00  0.00     0.033 C 
BRANCH  39  40
HETATM   40  C   UNK N   1      32.246  16.647   6.698  0.00  0.00     0.004 C 
BRANCH  40  41
HETATM   41  C   UNK N   1      32.261  16.648   8.216  0.00  0.00     0.019 C 
BRANCH  41  42
HETATM   42  C   UNK N   1      32.151  15.222   8.722  0.00  0.00     0.111 C 
BRANCH  42  43
HETATM   43  N   UNK N   1      31.873  15.227  10.148  0.00  0.00    -0.430 N 
HETATM   44  H   UNK N   1      31.155  15.762  10.634  0.00  0.00     0.149 HD
HETATM   45  H   UNK N   1      32.462  14.627  10.726  0.00  0.00     0.149 HD
ENDBRANCH  42  43
ENDBRANCH  41  42
ENDBRANCH  40  41
ENDBRANCH  39  40
ENDBRANCH  38  39
BRANCH  38  46
HETATM   46  N   UNK N   1      29.499  15.361   4.454  0.00  0.00    -0.361 N 
HETATM   47  C   UNK N   1      28.452  15.537   3.727  0.00  0.00     0.134 C 
ATOM     48  HN  UNK N   1      30.125  14.634   4.109  1.00  0.00     0.162 HD
BRANCH  47  49
HETATM   49  C   UNK N   1      28.257  14.596   2.569  0.00  0.00     0.149 C 
BRANCH  49  50
HETATM   50  C   UNK N   1      26.782  14.198   2.381  0.00  0.00     0.034 C 
BRANCH  50  51
HETATM   51  C   UNK N   1      26.252  13.184   3.392  0.00  0.00     0.023 C 
BRANCH  51  52
HETATM   52  C   UNK N   1      25.084  13.764   4.184  0.00  0.00     0.138 C 
BRANCH  52  53
HETATM   53  N   UNK N   1      25.517  14.808   5.090  0.00  0.00    -0.227 N 
HETATM   54  C   UNK N   1      25.646  14.597   6.485  0.00  0.00     0.665 C 
HETATM   55  N   UNK N   1      25.969  15.599   7.240  0.00  0.00    -0.235 N 
HETATM   56  N   UNK N   1      25.381  13.349   7.071  0.00  0.00    -0.235 N 
HETATM   57  H   UNK N   1      26.915  15.772   7.452  0.00  0.00     0.174 HD
ATOM     58  HN  UNK N   1      25.244  16.209   7.615  1.00  0.00     0.174 HD
HETATM   59  H   UNK N   1      24.871  12.714   7.623  0.00  0.00     0.174 HD
HETATM   60  H   UNK N   1      26.130  12.798   6.748  0.00  0.00     0.174 HD
HETATM   61  H   UNK N   1      25.730  15.697   4.722  0.00  0.00     0.177 HD
ENDBRANCH  52  53
ENDBRANCH  51  52
ENDBRANCH  50  51
ENDBRANCH  49  50
BRANCH  49  62
HETATM   62  N   UNK N   1      29.093  13.416   2.697  0.00  0.00    -0.419 N 
HETATM   63  H   UNK N   1      30.037  13.316   2.321  0.00  0.00     0.150 HD
HETATM   64  H   UNK N   1      28.705  12.619   3.202  0.00  0.00     0.150 HD
ENDBRANCH  49  62
ENDBRANCH  47  49
BRANCH  47  65
HETATM   65  O   UNK N   1      27.564  16.522   3.978  0.00  0.00    -0.348 OA
HETATM   66  H   UNK N   1      27.418  17.341   3.548  0.00  0.00     0.219 HD
ENDBRANCH  47  65
ENDBRANCH  38  46
ENDBRANCH  36  38
BRANCH  36  67
HETATM   67  O   UNK N   1      30.617  17.825   4.189  0.00  0.00    -0.348 OA
HETATM   68  H   UNK N   1      30.757  18.536   3.596  0.00  0.00     0.219 HD
ENDBRANCH  36  67
ENDBRANCH   1  35
TORSDOF 31
ENDMDL
MODEL 3
REMARK VINA RESULT:      -7.5      1.805      3.388
REMARK  31 active torsions:
REMARK  status: ('A' for Active; 'I' for Inactive)
REMARK    1  A    between atoms: C_4  and  C_3 
REMARK    2  A    between atoms: C_7  and  C_3 
REMARK    3  A    between atoms: C_12  and  C_4 
REMARK    4  A    between atoms: C_6  and  C_5 
REMARK    5  A    between atoms: C_13  and  C_5 
REMARK    6  A    between atoms: C_19  and  C_6 
REMARK    7  A    between atoms: C_20  and  C_7 
REMARK    8  A    between atoms: N_31  and  C_12 
REMARK    9  A    between atoms: N_36  and  C_13 
REMARK   10  A    between atoms: C_17  and  C_14 
REMARK   11  A    between atoms: C_22  and  C_14 
REMARK   12  A    between atoms: C_21  and  C_15 
REMARK   13  A    between atoms: C_23  and  C_15 
REMARK   14  A    between atoms: C_24  and  C_16 
REMARK   15  A    between atoms: O_45  and  C_18 
REMARK   16  A    between atoms: C_25  and  C_19 
REMARK   17  A    between atoms: C_19  and  N_32 
REMARK   18  A    between atoms: C_26  and  C_20 
REMARK   19  A    between atoms: C_20  and  N_37 
REMARK   20  A    between atoms: C_27  and  C_21 
REMARK   21  A    between atoms: C_21  and  N_39 
REMARK   22  A    between atoms: C_29  and  C_22 
REMARK   23  A    between atoms: C_22  and  N_41 
REMARK   24  A    between atoms: O_47  and  C_23 
REMARK   25  A    between atoms: C_28  and  C_24 
REMARK   26  A    between atoms: C_24  and  N_43 
REMARK   27  A    between atoms: C_25  and  O_48 
REMARK   28  A    between atoms: C_26  and  O_49 
REMARK   29  A    between atoms: C_27  and  O_50 
REMARK   30  A    between atoms: C_28  and  O_51 
REMARK   31  A    between atoms: O_53  and  C_29 
REMARK       I    between atoms: N_35  and  C_30 
REMARK       I    between atoms: N_36  and  C_30 
ROOT
HETATM    1  C   UNK N   1      35.257  14.216   9.688  0.00  0.00     0.167 C 
ENDROOT
BRANCH   1   2
HETATM    2  C   UNK N   1      36.548  13.570   9.181  0.00  0.00     0.143 C 
BRANCH   2   3
HETATM    3  C   UNK N   1      37.698  13.917  10.099  0.00  0.00     0.141 C 
HETATM    4  O   UNK N   1      38.064  13.132  10.960  0.00  0.00    -0.650 OA
BRANCH   3   5
HETATM    5  O   UNK N   1      38.367  15.072   9.927  0.00  0.00    -0.776 OA
HETATM    6  H   UNK N   1      38.695  15.337   9.091  0.00  0.00     0.167 HD
ENDBRANCH   3   5
ENDBRANCH   2   3
ENDBRANCH   1   2
BRANCH   1   7
HETATM    7  C   UNK N   1      34.813  13.772  11.031  0.00  0.00     0.136 C 
HETATM    8  N   UNK N   1      35.233  12.622  11.427  0.00  0.00    -0.360 N 
ATOM      9  HN  UNK N   1      35.974  12.185  10.879  1.00  0.00     0.162 HD
BRANCH   8  10
HETATM   10  C   UNK N   1      34.755  11.896  12.573  0.00  0.00     0.161 C 
BRANCH  10  11
HETATM   11  C   UNK N   1      34.383  10.426  12.274  0.00  0.00     0.008 C 
HETATM   12  C   UNK N   1      34.800   9.414  13.321  0.00  0.00     0.012 C 
HETATM   13  C   UNK N   1      34.911  10.000  10.913  0.00  0.00     0.012 C 
ENDBRANCH  10  11
BRANCH  10  14
HETATM   14  C   UNK N   1      35.664  12.151  13.749  0.00  0.00     0.135 C 
HETATM   15  N   UNK N   1      35.245  12.804  14.780  0.00  0.00    -0.358 N 
ATOM     16  HN  UNK N   1      34.244  12.983  14.868  1.00  0.00     0.162 HD
BRANCH  15  17
HETATM   17  C   UNK N   1      36.131  13.301  15.825  0.00  0.00     0.185 C 
BRANCH  17  18
HETATM   18  C   UNK N   1      35.292  13.521  17.109  0.00  0.00     0.074 C 
BRANCH  18  19
HETATM   19  C   UNK N   1      35.408  12.292  17.964  0.00  0.00    -0.056 A 
HETATM   20  C   UNK N   1      35.791  11.079  17.375  0.00  0.00     0.010 A 
HETATM   21  C   UNK N   1      36.137   9.988  18.178  0.00  0.00     0.037 A 
HETATM   22  C   UNK N   1      36.106  10.110  19.570  0.00  0.00     0.065 A 
HETATM   23  C   UNK N   1      35.701  11.312  20.159  0.00  0.00     0.037 A 
HETATM   24  C   UNK N   1      35.367  12.405  19.358  0.00  0.00     0.010 A 
BRANCH  22  25
HETATM   25  O   UNK N   1      36.470   9.076  20.344  0.00  0.00    -0.361 OA
HETATM   26  H   UNK N   1      35.857   8.658  20.916  0.00  0.00     0.217 HD
ENDBRANCH  22  25
ENDBRANCH  18  19
ENDBRANCH  17  18
BRANCH  17  27
HETATM   27  C   UNK N   1      36.904  14.517  15.383  0.00  0.00     0.163 C 
HETATM   28  O   UNK N   1      37.581  15.155  16.176  0.00  0.00    -0.648 OA
BRANCH  27  29
HETATM   29  O   UNK N   1      36.864  14.893  14.092  0.00  0.00    -0.775 OA
HETATM   30  H   UNK N   1      36.867  15.691  13.603  0.00  0.00     0.167 HD
ENDBRANCH  27  29
ENDBRANCH  17  27
ENDBRANCH  15  17
BRANCH  14  31
HETATM   31  O   UNK N   1      36.954  11.757  13.662  0.00  0.00    -0.348 OA
HETATM   32  H   UNK N   1      37.738  11.617  14.154  0.00  0.00     0.219 HD
ENDBRANCH  14  31
ENDBRANCH  10  14
ENDBRANCH   8  10
BRANCH   7  33
HETATM   33  O   UNK N   1      33.838  14.438  11.686  0.00  0.00    -0.348 OA
HETATM   34  H   UNK N   1      32.934  14.516  11.918  0.00  0.00     0.219 HD
ENDBRANCH   7  33
ENDBRANCH   1   7
BRANCH   1  35
HETATM   35  N   UNK N   1      35.143  15.665   9.648  0.00  0.00    -0.360 N 
HETATM   36  C   UNK N   1      34.655  16.471   8.759  0.00  0.00     0.135 C 
ATOM     37  HN  UNK N   1      35.516  16.134  10.474  1.00  0.00     0.162 HD
BRANCH  36  38
HETATM   38  C   UNK N   1      33.848  16.042   7.560  0.00  0.00     0.158 C 
BRANCH  38  39
HETATM   39  C   UNK N   1      34.481  16.466   6.214  0.00  0.00     0.033 C 
BRANCH  39  40
HETATM   40  C   UNK N   1      33.660  16.104   4.977  0.00  0.00     0.004 C 
BRANCH  40  41
HETATM   41  C   UNK N   1      32.975  17.341   4.424  0.00  0.00     0.019 C 
BRANCH  41  42
HETATM   42  C   UNK N   1      32.268  16.987   3.129  0.00  0.00     0.111 C 
BRANCH  42  43
HETATM   43  N   UNK N   1      30.839  17.204   3.275  0.00  0.00    -0.430 N 
HETATM   44  H   UNK N   1      30.269  17.020   4.100  0.00  0.00     0.149 HD
HETATM   45  H   UNK N   1      30.352  17.583   2.462  0.00  0.00     0.149 HD
ENDBRANCH  42  43
ENDBRANCH  41  42
ENDBRANCH  40  41
ENDBRANCH  39  40
ENDBRANCH  38  39
BRANCH  38  46
HETATM   46  N   UNK N   1      32.553  16.625   7.845  0.00  0.00    -0.361 N 
HETATM   47  C   UNK N   1      31.656  16.351   8.724  0.00  0.00     0.134 C 
ATOM     48  HN  UNK N   1      32.306  17.402   7.230  1.00  0.00     0.162 HD
BRANCH  47  49
HETATM   49  C   UNK N   1      30.365  17.121   8.650  0.00  0.00     0.149 C 
BRANCH  49  50
HETATM   50  C   UNK N   1      30.002  17.520   7.209  0.00  0.00     0.034 C 
BRANCH  50  51
HETATM   51  C   UNK N   1      28.507  17.529   6.897  0.00  0.00     0.023 C 
BRANCH  51  52
HETATM   52  C   UNK N   1      28.057  18.909   6.424  0.00  0.00     0.138 C 
BRANCH  52  53
HETATM   53  N   UNK N   1      27.133  19.520   7.358  0.00  0.00    -0.227 N 
HETATM   54  C   UNK N   1      26.658  20.844   7.197  0.00  0.00     0.665 C 
HETATM   55  N   UNK N   1      25.890  21.347   8.112  0.00  0.00    -0.235 N 
HETATM   56  N   UNK N   1      27.039  21.639   6.104  0.00  0.00    -0.235 N 
HETATM   57  H   UNK N   1      24.912  21.273   8.030  0.00  0.00     0.174 HD
ATOM     58  HN  UNK N   1      26.299  21.819   8.918  1.00  0.00     0.174 HD
HETATM   59  H   UNK N   1      27.505  22.386   5.664  0.00  0.00     0.174 HD
HETATM   60  H   UNK N   1      26.578  21.202   5.352  0.00  0.00     0.174 HD
HETATM   61  H   UNK N   1      26.825  18.995   8.132  0.00  0.00     0.177 HD
ENDBRANCH  52  53
ENDBRANCH  51  52
ENDBRANCH  50  51
ENDBRANCH  49  50
BRANCH  49  62
HETATM   62  N   UNK N   1      30.394  18.289   9.513  0.00  0.00    -0.419 N 
HETATM   63  H   UNK N   1      30.296  18.277  10.529  0.00  0.00     0.150 HD
HETATM   64  H   UNK N   1      30.521  19.198   9.066  0.00  0.00     0.150 HD
ENDBRANCH  49  62
ENDBRANCH  47  49
BRANCH  47  65
HETATM   65  O   UNK N   1      31.854  15.420   9.681  0.00  0.00    -0.348 OA
HETATM   66  H   UNK N   1      31.251  14.995  10.260  0.00  0.00     0.219 HD
ENDBRANCH  47  65
ENDBRANCH  38  46
ENDBRANCH  36  38
BRANCH  36  67
HETATM   67  O   UNK N   1      34.767  17.794   8.989  0.00  0.00    -0.348 OA
HETATM   68  H   UNK N   1      34.743  18.441   9.667  0.00  0.00     0.219 HD
ENDBRANCH  36  67
ENDBRANCH   1  35
TORSDOF 31
ENDMDL
MODEL 4
REMARK VINA RESULT:      -7.3      1.965      3.174
REMARK  31 active torsions:
REMARK  status: ('A' for Active; 'I' for Inactive)
REMARK    1  A    between atoms: C_4  and  C_3 
REMARK    2  A    between atoms: C_7  and  C_3 
REMARK    3  A    between atoms: C_12  and  C_4 
REMARK    4  A    between atoms: C_6  and  C_5 
REMARK    5  A    between atoms: C_13  and  C_5 
REMARK    6  A    between atoms: C_19  and  C_6 
REMARK    7  A    between atoms: C_20  and  C_7 
REMARK    8  A    between atoms: N_31  and  C_12 
REMARK    9  A    between atoms: N_36  and  C_13 
REMARK   10  A    between atoms: C_17  and  C_14 
REMARK   11  A    between atoms: C_22  and  C_14 
REMARK   12  A    between atoms: C_21  and  C_15 
REMARK   13  A    between atoms: C_23  and  C_15 
REMARK   14  A    between atoms: C_24  and  C_16 
REMARK   15  A    between atoms: O_45  and  C_18 
REMARK   16  A    between atoms: C_25  and  C_19 
REMARK   17  A    between atoms: C_19  and  N_32 
REMARK   18  A    between atoms: C_26  and  C_20 
REMARK   19  A    between atoms: C_20  and  N_37 
REMARK   20  A    between atoms: C_27  and  C_21 
REMARK   21  A    between atoms: C_21  and  N_39 
REMARK   22  A    between atoms: C_29  and  C_22 
REMARK   23  A    between atoms: C_22  and  N_41 
REMARK   24  A    between atoms: O_47  and  C_23 
REMARK   25  A    between atoms: C_28  and  C_24 
REMARK   26  A    between atoms: C_24  and  N_43 
REMARK   27  A    between atoms: C_25  and  O_48 
REMARK   28  A    between atoms: C_26  and  O_49 
REMARK   29  A    between atoms: C_27  and  O_50 
REMARK   30  A    between atoms: C_28  and  O_51 
REMARK   31  A    between atoms: O_53  and  C_29 
REMARK       I    between atoms: N_35  and  C_30 
REMARK       I    between atoms: N_36  and  C_30 
ROOT
HETATM    1  C   UNK N   1      33.664  14.718   9.038  0.00  0.00     0.167 C 
ENDROOT
BRANCH   1   2
HETATM    2  C   UNK N   1      35.061  15.325   9.188  0.00  0.00     0.143 C 
BRANCH   2   3
HETATM    3  C   UNK N   1      35.104  16.236  10.394  0.00  0.00     0.141 C 
HETATM    4  O   UNK N   1      35.515  17.382  10.292  0.00  0.00    -0.650 OA
BRANCH   3   5
HETATM    5  O   UNK N   1      34.627  15.805  11.576  0.00  0.00    -0.776 OA
HETATM    6  H   UNK N   1      34.405  16.395  12.269  0.00  0.00     0.167 HD
ENDBRANCH   3   5
ENDBRANCH   2   3
ENDBRANCH   1   2
BRANCH   1   7
HETATM    7  C   UNK N   1      33.496  13.367   9.625  0.00  0.00     0.136 C 
HETATM    8  N   UNK N   1      34.453  12.937  10.369  0.00  0.00    -0.360 N 
ATOM      9  HN  UNK N   1      35.164  13.614  10.647  1.00  0.00     0.162 HD
BRANCH   8  10
HETATM   10  C   UNK N   1      34.614  11.590  10.847  0.00  0.00     0.161 C 
BRANCH  10  11
HETATM   11  C   UNK N   1      35.425  10.680   9.899  0.00  0.00     0.008 C 
HETATM   12  C   UNK N   1      36.319  11.393   8.904  0.00  0.00     0.012 C 
HETATM   13  C   UNK N   1      34.510   9.714   9.161  0.00  0.00     0.012 C 
ENDBRANCH  10  11
BRANCH  10  14
HETATM   14  C   UNK N   1      35.025  11.614  12.298  0.00  0.00     0.135 C 
HETATM   15  N   UNK N   1      34.941  12.700  12.992  0.00  0.00    -0.358 N 
ATOM     16  HN  UNK N   1      34.422  13.487  12.601  1.00  0.00     0.162 HD
BRANCH  15  17
HETATM   17  C   UNK N   1      35.551  12.857  14.306  0.00  0.00     0.185 C 
BRANCH  17  18
HETATM   18  C   UNK N   1      34.419  12.924  15.362  0.00  0.00     0.074 C 
BRANCH  18  19
HETATM   19  C   UNK N   1      34.996  12.543  16.695  0.00  0.00    -0.056 A 
HETATM   20  C   UNK N   1      34.988  13.478  17.740  0.00  0.00     0.010 A 
HETATM   21  C   UNK N   1      35.294  13.075  19.043  0.00  0.00     0.037 A 
HETATM   22  C   UNK N   1      35.603  11.737  19.305  0.00  0.00     0.065 A 
HETATM   23  C   UNK N   1      35.634  10.809  18.260  0.00  0.00     0.037 A 
HETATM   24  C   UNK N   1      35.317  11.207  16.961  0.00  0.00     0.010 A 
BRANCH  22  25
HETATM   25  O   UNK N   1      35.864  11.341  20.560  0.00  0.00    -0.361 OA
HETATM   26  H   UNK N   1      35.285  10.764  21.017  0.00  0.00     0.217 HD
ENDBRANCH  22  25
ENDBRANCH  18  19
ENDBRANCH  17  18
BRANCH  17  27
HETATM   27  C   UNK N   1      36.503  14.026  14.354  0.00  0.00     0.163 C 
HETATM   28  O   UNK N   1      36.346  14.994  13.626  0.00  0.00    -0.648 OA
BRANCH  27  29
HETATM   29  O   UNK N   1      37.527  14.008  15.225  0.00  0.00    -0.775 OA
HETATM   30  H   UNK N   1      38.434  13.776  15.222  0.00  0.00     0.167 HD
ENDBRANCH  27  29
ENDBRANCH  17  27
ENDBRANCH  15  17
BRANCH  14  31
HETATM   31  O   UNK N   1      35.566  10.497  12.832  0.00  0.00    -0.348 OA
HETATM   32  H   UNK N   1      35.371   9.634  13.140  0.00  0.00     0.219 HD
ENDBRANCH  14  31
ENDBRANCH  10  14
ENDBRANCH   8  10
BRANCH   7  33
HETATM   33  O   UNK N   1      32.503  12.555   9.203  0.00  0.00    -0.348 OA
HETATM   34  H   UNK N   1      31.850  12.348   8.564  0.00  0.00     0.219 HD
ENDBRANCH   7  33
ENDBRANCH   1   7
BRANCH   1  35
HETATM   35  N   UNK N   1      32.515  15.513   9.438  0.00  0.00    -0.360 N 
HETATM   36  C   UNK N   1      31.807  16.393   8.803  0.00  0.00     0.135 C 
ATOM     37  HN  UNK N   1      32.208  15.347  10.396  1.00  0.00     0.162 HD
BRANCH  36  38
HETATM   38  C   UNK N   1      31.899  16.664   7.323  0.00  0.00     0.158 C 
BRANCH  38  39
HETATM   39  C   UNK N   1      33.070  17.603   6.945  0.00  0.00     0.033 C 
BRANCH  39  40
HETATM   40  C   UNK N   1      33.703  17.323   5.583  0.00  0.00     0.004 C 
BRANCH  40  41
HETATM   41  C   UNK N   1      33.935  15.833   5.411  0.00  0.00     0.019 C 
BRANCH  41  42
HETATM   42  C   UNK N   1      33.471  15.408   4.030  0.00  0.00     0.111 C 
BRANCH  42  43
HETATM   43  N   UNK N   1      33.028  16.570   3.281  0.00  0.00    -0.430 N 
HETATM   44  H   UNK N   1      32.085  16.956   3.243  0.00  0.00     0.149 HD
HETATM   45  H   UNK N   1      33.739  17.056   2.734  0.00  0.00     0.149 HD
ENDBRANCH  42  43
ENDBRANCH  41  42
ENDBRANCH  40  41
ENDBRANCH  39  40
ENDBRANCH  38  39
BRANCH  38  46
HETATM   46  N   UNK N   1      30.577  17.177   7.027  0.00  0.00    -0.361 N 
HETATM   47  C   UNK N   1      29.935  17.327   5.923  0.00  0.00     0.134 C 
ATOM     48  HN  UNK N   1      30.057  17.477   7.852  1.00  0.00     0.162 HD
BRANCH  47  49
HETATM   49  C   UNK N   1      28.593  18.002   5.996  0.00  0.00     0.149 C 
BRANCH  49  50
HETATM   50  C   UNK N   1      28.239  18.746   4.696  0.00  0.00     0.034 C 
BRANCH  50  51
HETATM   51  C   UNK N   1      26.859  18.428   4.124  0.00  0.00     0.023 C 
BRANCH  51  52
HETATM   52  C   UNK N   1      26.169  17.337   4.939  0.00  0.00     0.138 C 
BRANCH  52  53
HETATM   53  N   UNK N   1      24.985  17.837   5.607  0.00  0.00    -0.227 N 
HETATM   54  C   UNK N   1      23.677  17.566   5.136  0.00  0.00     0.665 C 
HETATM   55  N   UNK N   1      22.670  18.106   5.746  0.00  0.00    -0.235 N 
HETATM   56  N   UNK N   1      23.450  16.774   3.999  0.00  0.00    -0.235 N 
HETATM   57  H   UNK N   1      22.216  17.623   6.474  0.00  0.00     0.174 HD
ATOM     58  HN  UNK N   1      22.347  19.034   5.472  1.00  0.00     0.174 HD
HETATM   59  H   UNK N   1      23.180  16.609   3.067  0.00  0.00     0.174 HD
HETATM   60  H   UNK N   1      23.706  15.876   4.310  0.00  0.00     0.174 HD
HETATM   61  H   UNK N   1      25.094  18.383   6.419  0.00  0.00     0.177 HD
ENDBRANCH  52  53
ENDBRANCH  51  52
ENDBRANCH  50  51
ENDBRANCH  49  50
BRANCH  49  62
HETATM   62  N   UNK N   1      28.512  18.899   7.136  0.00  0.00    -0.419 N 
HETATM   63  H   UNK N   1      29.305  19.233   7.684  0.00  0.00     0.150 HD
HETATM   64  H   UNK N   1      27.584  19.221   7.414  0.00  0.00     0.150 HD
ENDBRANCH  49  62
ENDBRANCH  47  49
BRANCH  47  65
HETATM   65  O   UNK N   1      30.430  16.894   4.744  0.00  0.00    -0.348 OA
HETATM   66  H   UNK N   1      30.256  17.172   3.866  0.00  0.00     0.219 HD
ENDBRANCH  47  65
ENDBRANCH  38  46
ENDBRANCH  36  38
BRANCH  36  67
HETATM   67  O   UNK N   1      30.832  17.021   9.488  0.00  0.00    -0.348 OA
HETATM   68  H   UNK N   1      29.901  17.081   9.579  0.00  0.00     0.219 HD
ENDBRANCH  36  67
ENDBRANCH   1  35
TORSDOF 31
ENDMDL
MODEL 5
REMARK VINA RESULT:      -7.3      8.513     12.805
REMARK  31 active torsions:
REMARK  status: ('A' for Active; 'I' for Inactive)
REMARK    1  A    between atoms: C_4  and  C_3 
REMARK    2  A    between atoms: C_7  and  C_3 
REMARK    3  A    between atoms: C_12  and  C_4 
REMARK    4  A    between atoms: C_6  and  C_5 
REMARK    5  A    between atoms: C_13  and  C_5 
REMARK    6  A    between atoms: C_19  and  C_6 
REMARK    7  A    between atoms: C_20  and  C_7 
REMARK    8  A    between atoms: N_31  and  C_12 
REMARK    9  A    between atoms: N_36  and  C_13 
REMARK   10  A    between atoms: C_17  and  C_14 
REMARK   11  A    between atoms: C_22  and  C_14 
REMARK   12  A    between atoms: C_21  and  C_15 
REMARK   13  A    between atoms: C_23  and  C_15 
REMARK   14  A    between atoms: C_24  and  C_16 
REMARK   15  A    between atoms: O_45  and  C_18 
REMARK   16  A    between atoms: C_25  and  C_19 
REMARK   17  A    between atoms: C_19  and  N_32 
REMARK   18  A    between atoms: C_26  and  C_20 
REMARK   19  A    between atoms: C_20  and  N_37 
REMARK   20  A    between atoms: C_27  and  C_21 
REMARK   21  A    between atoms: C_21  and  N_39 
REMARK   22  A    between atoms: C_29  and  C_22 
REMARK   23  A    between atoms: C_22  and  N_41 
REMARK   24  A    between atoms: O_47  and  C_23 
REMARK   25  A    between atoms: C_28  and  C_24 
REMARK   26  A    between atoms: C_24  and  N_43 
REMARK   27  A    between atoms: C_25  and  O_48 
REMARK   28  A    between atoms: C_26  and  O_49 
REMARK   29  A    between atoms: C_27  and  O_50 
REMARK   30  A    between atoms: C_28  and  O_51 
REMARK   31  A    between atoms: O_53  and  C_29 
REMARK       I    between atoms: N_35  and  C_30 
REMARK       I    between atoms: N_36  and  C_30 
ROOT
HETATM    1  C   UNK N   1      24.358  18.491   4.374  0.00  0.00     0.167 C 
ENDROOT
BRANCH   1   2
HETATM    2  C   UNK N   1      25.165  19.740   4.015  0.00  0.00     0.143 C 
BRANCH   2   3
HETATM    3  C   UNK N   1      24.463  20.517   2.926  0.00  0.00     0.141 C 
HETATM    4  O   UNK N   1      25.049  20.813   1.896  0.00  0.00    -0.650 OA
BRANCH   3   5
HETATM    5  O   UNK N   1      23.161  20.832   3.061  0.00  0.00    -0.776 OA
HETATM    6  H   UNK N   1      22.770  21.545   2.597  0.00  0.00     0.167 HD
ENDBRANCH   3   5
ENDBRANCH   2   3
ENDBRANCH   1   2
BRANCH   1   7
HETATM    7  C   UNK N   1      25.159  17.268   4.620  0.00  0.00     0.136 C 
HETATM    8  N   UNK N   1      25.607  16.652   3.583  0.00  0.00    -0.360 N 
ATOM      9  HN  UNK N   1      25.536  17.138   2.689  1.00  0.00     0.162 HD
BRANCH   8  10
HETATM   10  C   UNK N   1      26.201  15.342   3.568  0.00  0.00     0.161 C 
BRANCH  10  11
HETATM   11  C   UNK N   1      26.166  14.654   2.185  0.00  0.00     0.008 C 
HETATM   12  C   UNK N   1      24.836  14.694   1.460  0.00  0.00     0.012 C 
HETATM   13  C   UNK N   1      26.650  13.216   2.284  0.00  0.00     0.012 C 
ENDBRANCH  10  11
BRANCH  10  14
HETATM   14  C   UNK N   1      27.526  15.379   4.287  0.00  0.00     0.135 C 
HETATM   15  N   UNK N   1      28.561  15.923   3.740  0.00  0.00    -0.358 N 
ATOM     16  HN  UNK N   1      28.426  16.488   2.902  1.00  0.00     0.162 HD
BRANCH  15  17
HETATM   17  C   UNK N   1      29.912  15.770   4.262  0.00  0.00     0.185 C 
BRANCH  17  18
HETATM   18  C   UNK N   1      30.458  17.176   4.618  0.00  0.00     0.074 C 
BRANCH  18  19
HETATM   19  C   UNK N   1      29.807  17.624   5.895  0.00  0.00    -0.056 A 
HETATM   20  C   UNK N   1      28.711  18.496   5.839  0.00  0.00     0.010 A 
HETATM   21  C   UNK N   1      27.945  18.735   6.983  0.00  0.00     0.037 A 
HETATM   22  C   UNK N   1      28.270  18.098   8.184  0.00  0.00     0.065 A 
HETATM   23  C   UNK N   1      29.377  17.246   8.248  0.00  0.00     0.037 A 
HETATM   24  C   UNK N   1      30.135  16.998   7.102  0.00  0.00     0.010 A 
BRANCH  22  25
HETATM   25  O   UNK N   1      27.517  18.299   9.276  0.00  0.00    -0.361 OA
HETATM   26  H   UNK N   1      27.194  17.580   9.782  0.00  0.00     0.217 HD
ENDBRANCH  22  25
ENDBRANCH  18  19
ENDBRANCH  17  18
BRANCH  17  27
HETATM   27  C   UNK N   1      30.798  14.989   3.324  0.00  0.00     0.163 C 
HETATM   28  O   UNK N   1      31.963  15.310   3.146  0.00  0.00    -0.648 OA
BRANCH  27  29
HETATM   29  O   UNK N   1      30.302  13.912   2.690  0.00  0.00    -0.775 OA
HETATM   30  H   UNK N   1      30.419  13.477   1.869  0.00  0.00     0.167 HD
ENDBRANCH  27  29
ENDBRANCH  17  27
ENDBRANCH  15  17
BRANCH  14  31
HETATM   31  O   UNK N   1      27.628  14.751   5.480  0.00  0.00    -0.348 OA
HETATM   32  H   UNK N   1      28.209  14.272   6.036  0.00  0.00     0.219 HD
ENDBRANCH  14  31
ENDBRANCH  10  14
ENDBRANCH   8  10
BRANCH   7  33
HETATM   33  O   UNK N   1      25.208  16.716   5.852  0.00  0.00    -0.348 OA
HETATM   34  H   UNK N   1      25.715  16.346   6.547  0.00  0.00     0.219 HD
ENDBRANCH   7  33
ENDBRANCH   1   7
BRANCH   1  35
HETATM   35  N   UNK N   1      23.368  18.584   5.434  0.00  0.00    -0.360 N 
HETATM   36  C   UNK N   1      22.179  18.084   5.557  0.00  0.00     0.135 C 
ATOM     37  HN  UNK N   1      23.665  19.148   6.231  1.00  0.00     0.162 HD
BRANCH  36  38
HETATM   38  C   UNK N   1      21.587  17.043   4.641  0.00  0.00     0.158 C 
BRANCH  38  39
HETATM   39  C   UNK N   1      20.048  17.143   4.516  0.00  0.00     0.033 C 
BRANCH  39  40
HETATM   40  C   UNK N   1      19.540  17.491   3.118  0.00  0.00     0.004 C 
BRANCH  40  41
HETATM   41  C   UNK N   1      19.722  18.974   2.849  0.00  0.00     0.019 C 
BRANCH  41  42
HETATM   42  C   UNK N   1      20.595  19.159   1.622  0.00  0.00     0.111 C 
BRANCH  42  43
HETATM   43  N   UNK N   1      20.568  20.550   1.205  0.00  0.00    -0.430 N 
HETATM   44  H   UNK N   1      19.775  21.190   1.245  0.00  0.00     0.149 HD
HETATM   45  H   UNK N   1      21.438  20.928   0.829  0.00  0.00     0.149 HD
ENDBRANCH  42  43
ENDBRANCH  41  42
ENDBRANCH  40  41
ENDBRANCH  39  40
ENDBRANCH  38  39
BRANCH  38  46
HETATM   46  N   UNK N   1      22.079  15.812   5.226  0.00  0.00    -0.361 N 
HETATM   47  C   UNK N   1      21.751  15.170   6.290  0.00  0.00     0.134 C 
ATOM     48  HN  UNK N   1      22.829  15.372   4.692  1.00  0.00     0.162 HD
BRANCH  47  49
HETATM   49  C   UNK N   1      22.570  13.956   6.639  0.00  0.00     0.149 C 
BRANCH  49  50
HETATM   50  C   UNK N   1      21.832  13.007   7.599  0.00  0.00     0.034 C 
BRANCH  50  51
HETATM   51  C   UNK N   1      22.219  13.146   9.070  0.00  0.00     0.023 C 
BRANCH  51  52
HETATM   52  C   UNK N   1      22.516  11.782   9.687  0.00  0.00     0.138 C 
BRANCH  52  53
HETATM   53  N   UNK N   1      22.415  11.814  11.132  0.00  0.00    -0.227 N 
HETATM   54  C   UNK N   1      23.533  12.067  11.964  0.00  0.00     0.665 C 
HETATM   55  N   UNK N   1      23.379  12.009  13.249  0.00  0.00    -0.235 N 
HETATM   56  N   UNK N   1      24.807  12.324  11.434  0.00  0.00    -0.235 N 
HETATM   57  H   UNK N   1      23.158  12.823  13.757  0.00  0.00     0.174 HD
ATOM     58  HN  UNK N   1      23.487  11.119  13.736  1.00  0.00     0.174 HD
HETATM   59  H   UNK N   1      25.750  12.118  11.237  0.00  0.00     0.174 HD
HETATM   60  H   UNK N   1      24.694  13.215  11.030  0.00  0.00     0.174 HD
HETATM   61  H   UNK N   1      21.538  11.656  11.550  0.00  0.00     0.177 HD
ENDBRANCH  52  53
ENDBRANCH  51  52
ENDBRANCH  50  51
ENDBRANCH  49  50
BRANCH  49  62
HETATM   62  N   UNK N   1      23.864  14.329   7.183  0.00  0.00    -0.419 N 
HETATM   63  H   UNK N   1      24.247  14.006   8.073  0.00  0.00     0.150 HD
HETATM   64  H   UNK N   1      24.438  14.967   6.631  0.00  0.00     0.150 HD
ENDBRANCH  49  62
ENDBRANCH  47  49
BRANCH  47  65
HETATM   65  O   UNK N   1      20.715  15.553   7.066  0.00  0.00    -0.348 OA
HETATM   66  H   UNK N   1      20.679  16.132   7.802  0.00  0.00     0.219 HD
ENDBRANCH  47  65
ENDBRANCH  38  46
ENDBRANCH  36  38
BRANCH  36  67
HETATM   67  O   UNK N   1      21.470  18.423   6.650  0.00  0.00    -0.348 OA
HETATM   68  H   UNK N   1      20.979  18.066   7.364  0.00  0.00     0.219 HD
ENDBRANCH  36  67
ENDBRANCH   1  35
TORSDOF 31
ENDMDL
MODEL 6
REMARK VINA RESULT:      -7.3      9.979     14.569
REMARK  31 active torsions:
REMARK  status: ('A' for Active; 'I' for Inactive)
REMARK    1  A    between atoms: C_4  and  C_3 
REMARK    2  A    between atoms: C_7  and  C_3 
REMARK    3  A    between atoms: C_12  and  C_4 
REMARK    4  A    between atoms: C_6  and  C_5 
REMARK    5  A    between atoms: C_13  and  C_5 
REMARK    6  A    between atoms: C_19  and  C_6 
REMARK    7  A    between atoms: C_20  and  C_7 
REMARK    8  A    between atoms: N_31  and  C_12 
REMARK    9  A    between atoms: N_36  and  C_13 
REMARK   10  A    between atoms: C_17  and  C_14 
REMARK   11  A    between atoms: C_22  and  C_14 
REMARK   12  A    between atoms: C_21  and  C_15 
REMARK   13  A    between atoms: C_23  and  C_15 
REMARK   14  A    between atoms: C_24  and  C_16 
REMARK   15  A    between atoms: O_45  and  C_18 
REMARK   16  A    between atoms: C_25  and  C_19 
REMARK   17  A    between atoms: C_19  and  N_32 
REMARK   18  A    between atoms: C_26  and  C_20 
REMARK   19  A    between atoms: C_20  and  N_37 
REMARK   20  A    between atoms: C_27  and  C_21 
REMARK   21  A    between atoms: C_21  and  N_39 
REMARK   22  A    between atoms: C_29  and  C_22 
REMARK   23  A    between atoms: C_22  and  N_41 
REMARK   24  A    between atoms: O_47  and  C_23 
REMARK   25  A    between atoms: C_28  and  C_24 
REMARK   26  A    between atoms: C_24  and  N_43 
REMARK   27  A    between atoms: C_25  and  O_48 
REMARK   28  A    between atoms: C_26  and  O_49 
REMARK   29  A    between atoms: C_27  and  O_50 
REMARK   30  A    between atoms: C_28  and  O_51 
REMARK   31  A    between atoms: O_53  and  C_29 
REMARK       I    between atoms: N_35  and  C_30 
REMARK       I    between atoms: N_36  and  C_30 
ROOT
HETATM    1  C   UNK N   1      20.673  19.223   3.358  0.00  0.00     0.167 C 
ENDROOT
BRANCH   1   2
HETATM    2  C   UNK N   1      21.651  19.578   2.237  0.00  0.00     0.143 C 
BRANCH   2   3
HETATM    3  C   UNK N   1      20.943  20.370   1.161  0.00  0.00     0.141 C 
HETATM    4  O   UNK N   1      20.770  21.573   1.286  0.00  0.00    -0.650 OA
BRANCH   3   5
HETATM    5  O   UNK N   1      20.556  19.759   0.025  0.00  0.00    -0.776 OA
HETATM    6  H   UNK N   1      19.654  19.663  -0.206  0.00  0.00     0.167 HD
ENDBRANCH   3   5
ENDBRANCH   2   3
ENDBRANCH   1   2
BRANCH   1   7
HETATM    7  C   UNK N   1      19.761  18.091   3.066  0.00  0.00     0.136 C 
HETATM    8  N   UNK N   1      20.104  16.940   3.525  0.00  0.00    -0.360 N 
ATOM      9  HN  UNK N   1      20.869  16.919   4.199  1.00  0.00     0.162 HD
BRANCH   8  10
HETATM   10  C   UNK N   1      19.508  15.678   3.177  0.00  0.00     0.161 C 
BRANCH  10  11
HETATM   11  C   UNK N   1      20.044  15.072   1.861  0.00  0.00     0.008 C 
HETATM   12  C   UNK N   1      19.645  13.637   1.584  0.00  0.00     0.012 C 
HETATM   13  C   UNK N   1      21.557  15.205   1.780  0.00  0.00     0.012 C 
ENDBRANCH  10  11
BRANCH  10  14
HETATM   14  C   UNK N   1      19.481  14.780   4.389  0.00  0.00     0.135 C 
HETATM   15  N   UNK N   1      20.577  14.401   4.956  0.00  0.00    -0.358 N 
ATOM     16  HN  UNK N   1      21.447  14.863   4.690  1.00  0.00     0.162 HD
BRANCH  15  17
HETATM   17  C   UNK N   1      20.634  13.345   5.958  0.00  0.00     0.185 C 
BRANCH  17  18
HETATM   18  C   UNK N   1      21.976  13.471   6.722  0.00  0.00     0.074 C 
BRANCH  18  19
HETATM   19  C   UNK N   1      21.792  12.894   8.096  0.00  0.00    -0.056 A 
HETATM   20  C   UNK N   1      22.677  11.907   8.552  0.00  0.00     0.010 A 
HETATM   21  C   UNK N   1      22.676  11.531   9.898  0.00  0.00     0.037 A 
HETATM   22  C   UNK N   1      21.794  12.144  10.792  0.00  0.00     0.065 A 
HETATM   23  C   UNK N   1      20.894  13.112  10.335  0.00  0.00     0.037 A 
HETATM   24  C   UNK N   1      20.903  13.497   8.993  0.00  0.00     0.010 A 
BRANCH  22  25
HETATM   25  O   UNK N   1      21.814  11.810  12.091  0.00  0.00    -0.361 OA
HETATM   26  H   UNK N   1      21.434  12.366  12.742  0.00  0.00     0.217 HD
ENDBRANCH  22  25
ENDBRANCH  18  19
ENDBRANCH  17  18
BRANCH  17  27
HETATM   27  C   UNK N   1      20.396  11.981   5.360  0.00  0.00     0.163 C 
HETATM   28  O   UNK N   1      19.295  11.455   5.411  0.00  0.00    -0.648 OA
BRANCH  27  29
HETATM   29  O   UNK N   1      21.408  11.345   4.742  0.00  0.00    -0.775 OA
HETATM   30  H   UNK N   1      21.946  11.472   3.987  0.00  0.00     0.167 HD
ENDBRANCH  27  29
ENDBRANCH  17  27
ENDBRANCH  15  17
BRANCH  14  31
HETATM   31  O   UNK N   1      18.288  14.309   4.814  0.00  0.00    -0.348 OA
HETATM   32  H   UNK N   1      17.541  14.506   5.344  0.00  0.00     0.219 HD
ENDBRANCH  14  31
ENDBRANCH  10  14
ENDBRANCH   8  10
BRANCH   7  33
HETATM   33  O   UNK N   1      18.759  18.230   2.171  0.00  0.00    -0.348 OA
HETATM   34  H   UNK N   1      18.484  18.345   1.283  0.00  0.00     0.219 HD
ENDBRANCH   7  33
ENDBRANCH   1   7
BRANCH   1  35
HETATM   35  N   UNK N   1      21.195  19.027   4.700  0.00  0.00    -0.360 N 
HETATM   36  C   UNK N   1      22.299  18.503   5.132  0.00  0.00     0.135 C 
ATOM     37  HN  UNK N   1      20.579  19.364   5.439  1.00  0.00     0.162 HD
BRANCH  36  38
HETATM   38  C   UNK N   1      23.473  18.134   4.261  0.00  0.00     0.158 C 
BRANCH  38  39
HETATM   39  C   UNK N   1      23.795  16.621   4.279  0.00  0.00     0.033 C 
BRANCH  39  40
HETATM   40  C   UNK N   1      25.082  16.248   5.015  0.00  0.00     0.004 C 
BRANCH  40  41
HETATM   41  C   UNK N   1      24.754  15.651   6.372  0.00  0.00     0.019 C 
BRANCH  41  42
HETATM   42  C   UNK N   1      25.791  14.601   6.722  0.00  0.00     0.111 C 
BRANCH  42  43
HETATM   43  N   UNK N   1      25.434  13.957   7.975  0.00  0.00    -0.430 N 
HETATM   44  H   UNK N   1      25.270  12.963   8.132  0.00  0.00     0.149 HD
HETATM   45  H   UNK N   1      25.336  14.567   8.787  0.00  0.00     0.149 HD
ENDBRANCH  42  43
ENDBRANCH  41  42
ENDBRANCH  40  41
ENDBRANCH  39  40
ENDBRANCH  38  39
BRANCH  38  46
HETATM   46  N   UNK N   1      24.516  18.993   4.782  0.00  0.00    -0.361 N 
HETATM   47  C   UNK N   1      25.318  19.822   4.213  0.00  0.00     0.134 C 
ATOM     48  HN  UNK N   1      24.638  18.929   5.793  1.00  0.00     0.162 HD
BRANCH  47  49
HETATM   49  C   UNK N   1      26.360  20.475   5.080  0.00  0.00     0.149 C 
BRANCH  49  50
HETATM   50  C   UNK N   1      27.790  20.054   4.696  0.00  0.00     0.034 C 
BRANCH  50  51
HETATM   51  C   UNK N   1      27.987  18.555   4.479  0.00  0.00     0.023 C 
BRANCH  51  52
HETATM   52  C   UNK N   1      28.879  17.960   5.564  0.00  0.00     0.138 C 
BRANCH  52  53
HETATM   53  N   UNK N   1      28.100  17.354   6.625  0.00  0.00    -0.227 N 
HETATM   54  C   UNK N   1      28.224  17.754   7.978  0.00  0.00     0.665 C 
HETATM   55  N   UNK N   1      27.546  17.117   8.880  0.00  0.00    -0.235 N 
HETATM   56  N   UNK N   1      29.098  18.780   8.370  0.00  0.00    -0.235 N 
HETATM   57  H   UNK N   1      26.656  17.440   9.148  0.00  0.00     0.174 HD
ATOM     58  HN  UNK N   1      27.935  16.280   9.314  1.00  0.00     0.174 HD
HETATM   59  H   UNK N   1      29.898  19.153   8.806  0.00  0.00     0.174 HD
HETATM   60  H   UNK N   1      28.665  19.582   7.997  0.00  0.00     0.174 HD
HETATM   61  H   UNK N   1      27.461  16.641   6.397  0.00  0.00     0.177 HD
ENDBRANCH  52  53
ENDBRANCH  51  52
ENDBRANCH  50  51
ENDBRANCH  49  50
BRANCH  49  62
HETATM   62  N   UNK N   1      26.114  20.219   6.489  0.00  0.00    -0.419 N 
HETATM   63  H   UNK N   1      25.234  19.887   6.885  0.00  0.00     0.150 HD
HETATM   64  H   UNK N   1      26.884  20.387   7.137  0.00  0.00     0.150 HD
ENDBRANCH  49  62
ENDBRANCH  47  49
BRANCH  47  65
HETATM   65  O   UNK N   1      25.235  20.108   2.896  0.00  0.00    -0.348 OA
HETATM   66  H   UNK N   1      24.496  20.148   2.322  0.00  0.00     0.219 HD
ENDBRANCH  47  65
ENDBRANCH  38  46
ENDBRANCH  36  38
BRANCH  36  67
HETATM   67  O   UNK N   1      22.459  18.398   6.465  0.00  0.00    -0.348 OA
HETATM   68  H   UNK N   1      22.858  17.874   7.132  0.00  0.00     0.219 HD
ENDBRANCH  36  67
ENDBRANCH   1  35
TORSDOF 31
ENDMDL
MODEL 7
REMARK VINA RESULT:      -7.3      6.984     11.841
REMARK  31 active torsions:
REMARK  status: ('A' for Active; 'I' for Inactive)
REMARK    1  A    between atoms: C_4  and  C_3 
REMARK    2  A    between atoms: C_7  and  C_3 
REMARK    3  A    between atoms: C_12  and  C_4 
REMARK    4  A    between atoms: C_6  and  C_5 
REMARK    5  A    between atoms: C_13  and  C_5 
REMARK    6  A    between atoms: C_19  and  C_6 
REMARK    7  A    between atoms: C_20  and  C_7 
REMARK    8  A    between atoms: N_31  and  C_12 
REMARK    9  A    between atoms: N_36  and  C_13 
REMARK   10  A    between atoms: C_17  and  C_14 
REMARK   11  A    between atoms: C_22  and  C_14 
REMARK   12  A    between atoms: C_21  and  C_15 
REMARK   13  A    between atoms: C_23  and  C_15 
REMARK   14  A    between atoms: C_24  and  C_16 
REMARK   15  A    between atoms: O_45  and  C_18 
REMARK   16  A    between atoms: C_25  and  C_19 
REMARK   17  A    between atoms: C_19  and  N_32 
REMARK   18  A    between atoms: C_26  and  C_20 
REMARK   19  A    between atoms: C_20  and  N_37 
REMARK   20  A    between atoms: C_27  and  C_21 
REMARK   21  A    between atoms: C_21  and  N_39 
REMARK   22  A    between atoms: C_29  and  C_22 
REMARK   23  A    between atoms: C_22  and  N_41 
REMARK   24  A    between atoms: O_47  and  C_23 
REMARK   25  A    between atoms: C_28  and  C_24 
REMARK   26  A    between atoms: C_24  and  N_43 
REMARK   27  A    between atoms: C_25  and  O_48 
REMARK   28  A    between atoms: C_26  and  O_49 
REMARK   29  A    between atoms: C_27  and  O_50 
REMARK   30  A    between atoms: C_28  and  O_51 
REMARK   31  A    between atoms: O_53  and  C_29 
REMARK       I    between atoms: N_35  and  C_30 
REMARK       I    between atoms: N_36  and  C_30 
ROOT
HETATM    1  C   UNK N   1      24.586  18.339   4.678  0.00  0.00     0.167 C 
ENDROOT
BRANCH   1   2
HETATM    2  C   UNK N   1      25.320  19.525   4.049  0.00  0.00     0.143 C 
BRANCH   2   3
HETATM    3  C   UNK N   1      24.398  20.266   3.106  0.00  0.00     0.141 C 
HETATM    4  O   UNK N   1      24.824  20.738   2.064  0.00  0.00    -0.650 OA
BRANCH   3   5
HETATM    5  O   UNK N   1      23.083  20.350   3.385  0.00  0.00    -0.776 OA
HETATM    6  H   UNK N   1      22.604  19.631   3.747  0.00  0.00     0.167 HD
ENDBRANCH   3   5
ENDBRANCH   2   3
ENDBRANCH   1   2
BRANCH   1   7
HETATM    7  C   UNK N   1      25.454  17.341   5.345  0.00  0.00     0.136 C 
HETATM    8  N   UNK N   1      26.705  17.370   5.045  0.00  0.00    -0.360 N 
ATOM      9  HN  UNK N   1      27.036  18.178   4.519  1.00  0.00     0.162 HD
BRANCH   8  10
HETATM   10  C   UNK N   1      27.680  16.368   5.384  0.00  0.00     0.161 C 
BRANCH  10  11
HETATM   11  C   UNK N   1      28.092  15.467   4.198  0.00  0.00     0.008 C 
HETATM   12  C   UNK N   1      29.326  14.614   4.415  0.00  0.00     0.012 C 
HETATM   13  C   UNK N   1      28.256  16.287   2.927  0.00  0.00     0.012 C 
ENDBRANCH  10  11
BRANCH  10  14
HETATM   14  C   UNK N   1      28.789  16.994   6.192  0.00  0.00     0.135 C 
HETATM   15  N   UNK N   1      28.864  16.811   7.467  0.00  0.00    -0.358 N 
ATOM     16  HN  UNK N   1      28.277  16.091   7.890  1.00  0.00     0.162 HD
BRANCH  15  17
HETATM   17  C   UNK N   1      29.746  17.581   8.334  0.00  0.00     0.185 C 
BRANCH  17  18
HETATM   18  C   UNK N   1      30.813  16.621   8.918  0.00  0.00     0.074 C 
BRANCH  18  19
HETATM   19  C   UNK N   1      31.922  16.484   7.915  0.00  0.00    -0.056 A 
HETATM   20  C   UNK N   1      32.831  17.538   7.746  0.00  0.00     0.010 A 
HETATM   21  C   UNK N   1      33.999  17.344   7.004  0.00  0.00     0.037 A 
HETATM   22  C   UNK N   1      34.263  16.095   6.434  0.00  0.00     0.065 A 
HETATM   23  C   UNK N   1      33.347  15.050   6.582  0.00  0.00     0.037 A 
HETATM   24  C   UNK N   1      32.186  15.239   7.334  0.00  0.00     0.010 A 
BRANCH  22  25
HETATM   25  O   UNK N   1      35.400  15.896   5.750  0.00  0.00    -0.361 OA
HETATM   26  H   UNK N   1      35.397  15.808   4.817  0.00  0.00     0.217 HD
ENDBRANCH  22  25
ENDBRANCH  18  19
ENDBRANCH  17  18
BRANCH  17  27
HETATM   27  C   UNK N   1      28.981  18.355   9.379  0.00  0.00     0.163 C 
HETATM   28  O   UNK N   1      29.562  18.929  10.287  0.00  0.00    -0.648 OA
BRANCH  27  29
HETATM   29  O   UNK N   1      27.640  18.429   9.296  0.00  0.00    -0.775 OA
HETATM   30  H   UNK N   1      27.000  18.686   8.663  0.00  0.00     0.167 HD
ENDBRANCH  27  29
ENDBRANCH  17  27
ENDBRANCH  15  17
BRANCH  14  31
HETATM   31  O   UNK N   1      29.652  17.824   5.564  0.00  0.00    -0.348 OA
HETATM   32  H   UNK N   1      30.118  18.632   5.643  0.00  0.00     0.219 HD
ENDBRANCH  14  31
ENDBRANCH  10  14
ENDBRANCH   8  10
BRANCH   7  33
HETATM   33  O   UNK N   1      24.914  16.318   6.042  0.00  0.00    -0.348 OA
HETATM   34  H   UNK N   1      24.945  15.420   6.307  0.00  0.00     0.219 HD
ENDBRANCH   7  33
ENDBRANCH   1   7
BRANCH   1  35
HETATM   35  N   UNK N   1      23.467  18.607   5.567  0.00  0.00    -0.360 N 
HETATM   36  C   UNK N   1      22.253  18.155   5.591  0.00  0.00     0.135 C 
ATOM     37  HN  UNK N   1      23.676  19.275   6.308  1.00  0.00     0.162 HD
BRANCH  36  38
HETATM   38  C   UNK N   1      21.748  17.003   4.759  0.00  0.00     0.158 C 
BRANCH  38  39
HETATM   39  C   UNK N   1      20.252  17.130   4.385  0.00  0.00     0.033 C 
BRANCH  39  40
HETATM   40  C   UNK N   1      19.983  17.416   2.909  0.00  0.00     0.004 C 
BRANCH  40  41
HETATM   41  C   UNK N   1      19.889  18.913   2.675  0.00  0.00     0.019 C 
BRANCH  41  42
HETATM   42  C   UNK N   1      20.657  19.275   1.418  0.00  0.00     0.111 C 
BRANCH  42  43
HETATM   43  N   UNK N   1      20.364  20.647   1.041  0.00  0.00    -0.430 N 
HETATM   44  H   UNK N   1      19.941  20.970   0.171  0.00  0.00     0.149 HD
HETATM   45  H   UNK N   1      20.607  21.367   1.721  0.00  0.00     0.149 HD
ENDBRANCH  42  43
ENDBRANCH  41  42
ENDBRANCH  40  41
ENDBRANCH  39  40
ENDBRANCH  38  39
BRANCH  38  46
HETATM   46  N   UNK N   1      22.082  15.863   5.588  0.00  0.00    -0.361 N 
HETATM   47  C   UNK N   1      21.745  14.623   5.530  0.00  0.00     0.134 C 
ATOM     48  HN  UNK N   1      22.704  16.086   6.366  1.00  0.00     0.162 HD
BRANCH  47  49
HETATM   49  C   UNK N   1      22.214  13.731   6.647  0.00  0.00     0.149 C 
BRANCH  49  50
HETATM   50  C   UNK N   1      21.132  13.519   7.721  0.00  0.00     0.034 C 
BRANCH  50  51
HETATM   51  C   UNK N   1      21.357  14.282   9.025  0.00  0.00     0.023 C 
BRANCH  51  52
HETATM   52  C   UNK N   1      21.591  13.321  10.186  0.00  0.00     0.138 C 
BRANCH  52  53
HETATM   53  N   UNK N   1      23.002  13.070  10.398  0.00  0.00    -0.227 N 
HETATM   54  C   UNK N   1      23.474  12.218  11.426  0.00  0.00     0.665 C 
HETATM   55  N   UNK N   1      24.753  12.099  11.599  0.00  0.00    -0.235 N 
HETATM   56  N   UNK N   1      22.597  11.545  12.291  0.00  0.00    -0.235 N 
HETATM   57  H   UNK N   1      25.247  11.379  11.146  0.00  0.00     0.174 HD
ATOM     58  HN  UNK N   1      25.248  12.753  12.206  1.00  0.00     0.174 HD
HETATM   59  H   UNK N   1      22.161  11.362  13.155  0.00  0.00     0.174 HD
HETATM   60  H   UNK N   1      22.182  10.878  11.697  0.00  0.00     0.174 HD
HETATM   61  H   UNK N   1      23.656  13.507   9.805  0.00  0.00     0.177 HD
ENDBRANCH  52  53
ENDBRANCH  51  52
ENDBRANCH  50  51
ENDBRANCH  49  50
BRANCH  49  62
HETATM   62  N   UNK N   1      23.439  14.232   7.247  0.00  0.00    -0.419 N 
HETATM   63  H   UNK N   1      24.066  14.918   6.826  0.00  0.00     0.150 HD
HETATM   64  H   UNK N   1      23.694  13.865   8.164  0.00  0.00     0.150 HD
ENDBRANCH  49  62
ENDBRANCH  47  49
BRANCH  47  65
HETATM   65  O   UNK N   1      21.008  14.130   4.512  0.00  0.00    -0.348 OA
HETATM   66  H   UNK N   1      21.257  13.843   3.655  0.00  0.00     0.219 HD
ENDBRANCH  47  65
ENDBRANCH  38  46
ENDBRANCH  36  38
BRANCH  36  67
HETATM   67  O   UNK N   1      21.417  18.664   6.516  0.00  0.00    -0.348 OA
HETATM   68  H   UNK N   1      20.575  19.062   6.626  0.00  0.00     0.219 HD
ENDBRANCH  36  67
ENDBRANCH   1  35
TORSDOF 31
ENDMDL
MODEL 8
REMARK VINA RESULT:      -7.2      7.535     13.472
REMARK  31 active torsions:
REMARK  status: ('A' for Active; 'I' for Inactive)
REMARK    1  A    between atoms: C_4  and  C_3 
REMARK    2  A    between atoms: C_7  and  C_3 
REMARK    3  A    between atoms: C_12  and  C_4 
REMARK    4  A    between atoms: C_6  and  C_5 
REMARK    5  A    between atoms: C_13  and  C_5 
REMARK    6  A    between atoms: C_19  and  C_6 
REMARK    7  A    between atoms: C_20  and  C_7 
REMARK    8  A    between atoms: N_31  and  C_12 
REMARK    9  A    between atoms: N_36  and  C_13 
REMARK   10  A    between atoms: C_17  and  C_14 
REMARK   11  A    between atoms: C_22  and  C_14 
REMARK   12  A    between atoms: C_21  and  C_15 
REMARK   13  A    between atoms: C_23  and  C_15 
REMARK   14  A    between atoms: C_24  and  C_16 
REMARK   15  A    between atoms: O_45  and  C_18 
REMARK   16  A    between atoms: C_25  and  C_19 
REMARK   17  A    between atoms: C_19  and  N_32 
REMARK   18  A    between atoms: C_26  and  C_20 
REMARK   19  A    between atoms: C_20  and  N_37 
REMARK   20  A    between atoms: C_27  and  C_21 
REMARK   21  A    between atoms: C_21  and  N_39 
REMARK   22  A    between atoms: C_29  and  C_22 
REMARK   23  A    between atoms: C_22  and  N_41 
REMARK   24  A    between atoms: O_47  and  C_23 
REMARK   25  A    between atoms: C_28  and  C_24 
REMARK   26  A    between atoms: C_24  and  N_43 
REMARK   27  A    between atoms: C_25  and  O_48 
REMARK   28  A    between atoms: C_26  and  O_49 
REMARK   29  A    between atoms: C_27  and  O_50 
REMARK   30  A    between atoms: C_28  and  O_51 
REMARK   31  A    between atoms: O_53  and  C_29 
REMARK       I    between atoms: N_35  and  C_30 
REMARK       I    between atoms: N_36  and  C_30 
ROOT
HETATM    1  C   UNK N   1      21.996  18.208   3.625  0.00  0.00     0.167 C 
ENDROOT
BRANCH   1   2
HETATM    2  C   UNK N   1      22.164  19.652   3.147  0.00  0.00     0.143 C 
BRANCH   2   3
HETATM    3  C   UNK N   1      20.809  20.296   2.957  0.00  0.00     0.141 C 
HETATM    4  O   UNK N   1      20.269  20.892   3.876  0.00  0.00    -0.650 OA
BRANCH   3   5
HETATM    5  O   UNK N   1      20.219  20.268   1.747  0.00  0.00    -0.776 OA
HETATM    6  H   UNK N   1      20.710  20.344   0.952  0.00  0.00     0.167 HD
ENDBRANCH   3   5
ENDBRANCH   2   3
ENDBRANCH   1   2
BRANCH   1   7
HETATM    7  C   UNK N   1      22.993  17.753   4.623  0.00  0.00     0.136 C 
HETATM    8  N   UNK N   1      24.070  17.220   4.163  0.00  0.00    -0.360 N 
ATOM      9  HN  UNK N   1      24.241  17.310   3.162  1.00  0.00     0.162 HD
BRANCH   8  10
HETATM   10  C   UNK N   1      25.056  16.508   4.931  0.00  0.00     0.161 C 
BRANCH  10  11
HETATM   11  C   UNK N   1      25.278  15.050   4.470  0.00  0.00     0.008 C 
HETATM   12  C   UNK N   1      26.617  14.439   4.832  0.00  0.00     0.012 C 
HETATM   13  C   UNK N   1      25.043  14.913   2.974  0.00  0.00     0.012 C 
ENDBRANCH  10  11
BRANCH  10  14
HETATM   14  C   UNK N   1      26.282  17.370   5.103  0.00  0.00     0.135 C 
HETATM   15  N   UNK N   1      26.677  17.731   6.278  0.00  0.00    -0.358 N 
ATOM     16  HN  UNK N   1      26.262  17.276   7.092  1.00  0.00     0.162 HD
BRANCH  15  17
HETATM   17  C   UNK N   1      27.687  18.757   6.500  0.00  0.00     0.185 C 
BRANCH  17  18
HETATM   18  C   UNK N   1      28.358  18.491   7.871  0.00  0.00     0.074 C 
BRANCH  18  19
HETATM   19  C   UNK N   1      29.704  17.873   7.625  0.00  0.00    -0.056 A 
HETATM   20  C   UNK N   1      30.020  17.401   6.343  0.00  0.00     0.010 A 
HETATM   21  C   UNK N   1      31.336  17.048   6.031  0.00  0.00     0.037 A 
HETATM   22  C   UNK N   1      32.338  17.169   6.998  0.00  0.00     0.065 A 
HETATM   23  C   UNK N   1      32.021  17.618   8.283  0.00  0.00     0.037 A 
HETATM   24  C   UNK N   1      30.709  17.983   8.592  0.00  0.00     0.010 A 
BRANCH  22  25
HETATM   25  O   UNK N   1      33.608  16.863   6.691  0.00  0.00    -0.361 OA
HETATM   26  H   UNK N   1      33.921  16.914   5.809  0.00  0.00     0.217 HD
ENDBRANCH  22  25
ENDBRANCH  18  19
ENDBRANCH  17  18
BRANCH  17  27
HETATM   27  C   UNK N   1      27.125  20.148   6.354  0.00  0.00     0.163 C 
HETATM   28  O   UNK N   1      27.838  21.083   6.022  0.00  0.00    -0.648 OA
BRANCH  27  29
HETATM   29  O   UNK N   1      25.814  20.357   6.571  0.00  0.00    -0.775 OA
HETATM   30  H   UNK N   1      25.204  20.251   7.274  0.00  0.00     0.167 HD
ENDBRANCH  27  29
ENDBRANCH  17  27
ENDBRANCH  15  17
BRANCH  14  31
HETATM   31  O   UNK N   1      26.906  17.828   3.996  0.00  0.00    -0.348 OA
HETATM   32  H   UNK N   1      26.844  18.441   3.290  0.00  0.00     0.219 HD
ENDBRANCH  14  31
ENDBRANCH  10  14
ENDBRANCH   8  10
BRANCH   7  33
HETATM   33  O   UNK N   1      22.673  17.693   5.934  0.00  0.00    -0.348 OA
HETATM   34  H   UNK N   1      22.505  17.177   6.697  0.00  0.00     0.219 HD
ENDBRANCH   7  33
ENDBRANCH   1   7
BRANCH   1  35
HETATM   35  N   UNK N   1      20.688  17.776   4.087  0.00  0.00    -0.360 N 
HETATM   36  C   UNK N   1      20.080  16.634   4.023  0.00  0.00     0.135 C 
ATOM     37  HN  UNK N   1      20.148  18.508   4.548  1.00  0.00     0.162 HD
BRANCH  36  38
HETATM   38  C   UNK N   1      20.727  15.339   3.601  0.00  0.00     0.158 C 
BRANCH  38  39
HETATM   39  C   UNK N   1      19.726  14.325   2.996  0.00  0.00     0.033 C 
BRANCH  39  40
HETATM   40  C   UNK N   1      19.786  14.195   1.475  0.00  0.00     0.004 C 
BRANCH  40  41
HETATM   41  C   UNK N   1      20.508  15.389   0.876  0.00  0.00     0.019 C 
BRANCH  41  42
HETATM   42  C   UNK N   1      19.490  16.357   0.303  0.00  0.00     0.111 C 
BRANCH  42  43
HETATM   43  N   UNK N   1      20.068  17.686   0.221  0.00  0.00    -0.430 N 
HETATM   44  H   UNK N   1      20.647  18.151   0.920  0.00  0.00     0.149 HD
HETATM   45  H   UNK N   1      19.874  18.214  -0.631  0.00  0.00     0.149 HD
ENDBRANCH  42  43
ENDBRANCH  41  42
ENDBRANCH  40  41
ENDBRANCH  39  40
ENDBRANCH  38  39
BRANCH  38  46
HETATM   46  N   UNK N   1      21.374  14.912   4.825  0.00  0.00    -0.361 N 
HETATM   47  C   UNK N   1      22.031  13.850   5.130  0.00  0.00     0.134 C 
ATOM     48  HN  UNK N   1      21.292  15.582   5.590  1.00  0.00     0.162 HD
BRANCH  47  49
HETATM   49  C   UNK N   1      22.477  13.706   6.560  0.00  0.00     0.149 C 
BRANCH  49  50
HETATM   50  C   UNK N   1      21.559  12.772   7.368  0.00  0.00     0.034 C 
BRANCH  50  51
HETATM   51  C   UNK N   1      21.141  13.303   8.738  0.00  0.00     0.023 C 
BRANCH  51  52
HETATM   52  C   UNK N   1      21.672  12.408   9.855  0.00  0.00     0.138 C 
BRANCH  52  53
HETATM   53  N   UNK N   1      23.121  12.386   9.880  0.00  0.00    -0.227 N 
HETATM   54  C   UNK N   1      23.856  12.305  11.088  0.00  0.00     0.665 C 
HETATM   55  N   UNK N   1      25.149  12.361  11.034  0.00  0.00    -0.235 N 
HETATM   56  N   UNK N   1      23.221  12.219  12.336  0.00  0.00    -0.235 N 
HETATM   57  H   UNK N   1      25.678  11.533  10.973  0.00  0.00     0.174 HD
ATOM     58  HN  UNK N   1      25.621  13.265  11.056  1.00  0.00     0.174 HD
HETATM   59  H   UNK N   1      22.945  12.550  13.221  0.00  0.00     0.174 HD
HETATM   60  H   UNK N   1      22.832  11.315  12.316  0.00  0.00     0.174 HD
HETATM   61  H   UNK N   1      23.610  12.427   9.027  0.00  0.00     0.177 HD
ENDBRANCH  52  53
ENDBRANCH  51  52
ENDBRANCH  50  51
ENDBRANCH  49  50
BRANCH  49  62
HETATM   62  N   UNK N   1      22.593  14.998   7.212  0.00  0.00    -0.419 N 
HETATM   63  H   UNK N   1      22.089  15.285   8.052  0.00  0.00     0.150 HD
HETATM   64  H   UNK N   1      23.231  15.678   6.795  0.00  0.00     0.150 HD
ENDBRANCH  49  62
ENDBRANCH  47  49
BRANCH  47  65
HETATM   65  O   UNK N   1      22.322  12.901   4.214  0.00  0.00    -0.348 OA
HETATM   66  H   UNK N   1      21.773  12.278   3.780  0.00  0.00     0.219 HD
ENDBRANCH  47  65
ENDBRANCH  38  46
ENDBRANCH  36  38
BRANCH  36  67
HETATM   67  O   UNK N   1      18.817  16.573   4.487  0.00  0.00    -0.348 OA
HETATM   68  H   UNK N   1      18.291  16.725   5.247  0.00  0.00     0.219 HD
ENDBRANCH  36  67
ENDBRANCH   1  35
TORSDOF 31
ENDMDL
MODEL 9
REMARK VINA RESULT:      -7.2      8.609     12.702
REMARK  31 active torsions:
REMARK  status: ('A' for Active; 'I' for Inactive)
REMARK    1  A    between atoms: C_4  and  C_3 
REMARK    2  A    between atoms: C_7  and  C_3 
REMARK    3  A    between atoms: C_12  and  C_4 
REMARK    4  A    between atoms: C_6  and  C_5 
REMARK    5  A    between atoms: C_13  and  C_5 
REMARK    6  A    between atoms: C_19  and  C_6 
REMARK    7  A    between atoms: C_20  and  C_7 
REMARK    8  A    between atoms: N_31  and  C_12 
REMARK    9  A    between atoms: N_36  and  C_13 
REMARK   10  A    between atoms: C_17  and  C_14 
REMARK   11  A    between atoms: C_22  and  C_14 
REMARK   12  A    between atoms: C_21  and  C_15 
REMARK   13  A    between atoms: C_23  and  C_15 
REMARK   14  A    between atoms: C_24  and  C_16 
REMARK   15  A    between atoms: O_45  and  C_18 
REMARK   16  A    between atoms: C_25  and  C_19 
REMARK   17  A    between atoms: C_19  and  N_32 
REMARK   18  A    between atoms: C_26  and  C_20 
REMARK   19  A    between atoms: C_20  and  N_37 
REMARK   20  A    between atoms: C_27  and  C_21 
REMARK   21  A    between atoms: C_21  and  N_39 
REMARK   22  A    between atoms: C_29  and  C_22 
REMARK   23  A    between atoms: C_22  and  N_41 
REMARK   24  A    between atoms: O_47  and  C_23 
REMARK   25  A    between atoms: C_28  and  C_24 
REMARK   26  A    between atoms: C_24  and  N_43 
REMARK   27  A    between atoms: C_25  and  O_48 
REMARK   28  A    between atoms: C_26  and  O_49 
REMARK   29  A    between atoms: C_27  and  O_50 
REMARK   30  A    between atoms: C_28  and  O_51 
REMARK   31  A    between atoms: O_53  and  C_29 
REMARK       I    between atoms: N_35  and  C_30 
REMARK       I    between atoms: N_36  and  C_30 
ROOT
HETATM    1  C   UNK N   1      23.193  12.721   8.027  0.00  0.00     0.167 C 
ENDROOT
BRANCH   1   2
HETATM    2  C   UNK N   1      23.294  11.642   9.107  0.00  0.00     0.143 C 
BRANCH   2   3
HETATM    3  C   UNK N   1      22.735  12.161  10.413  0.00  0.00     0.141 C 
HETATM    4  O   UNK N   1      22.120  13.216  10.450  0.00  0.00    -0.650 OA
BRANCH   3   5
HETATM    5  O   UNK N   1      22.856  11.424  11.533  0.00  0.00    -0.776 OA
HETATM    6  H   UNK N   1      23.297  11.745  12.294  0.00  0.00     0.167 HD
ENDBRANCH   3   5
ENDBRANCH   2   3
ENDBRANCH   1   2
BRANCH   1   7
HETATM    7  C   UNK N   1      24.274  12.704   7.013  0.00  0.00     0.136 C 
HETATM    8  N   UNK N   1      24.707  13.847   6.610  0.00  0.00    -0.360 N 
ATOM      9  HN  UNK N   1      24.409  14.667   7.138  1.00  0.00     0.162 HD
BRANCH   8  10
HETATM   10  C   UNK N   1      25.572  14.075   5.484  0.00  0.00     0.161 C 
BRANCH  10  11
HETATM   11  C   UNK N   1      24.831  14.159   4.130  0.00  0.00     0.008 C 
HETATM   12  C   UNK N   1      25.130  13.047   3.145  0.00  0.00     0.012 C 
HETATM   13  C   UNK N   1      25.068  15.506   3.466  0.00  0.00     0.012 C 
ENDBRANCH  10  11
BRANCH  10  14
HETATM   14  C   UNK N   1      26.542  15.183   5.808  0.00  0.00     0.135 C 
HETATM   15  N   UNK N   1      27.700  15.237   5.240  0.00  0.00    -0.358 N 
ATOM     16  HN  UNK N   1      27.876  14.631   4.438  1.00  0.00     0.162 HD
BRANCH  15  17
HETATM   17  C   UNK N   1      28.769  16.119   5.688  0.00  0.00     0.185 C 
BRANCH  17  18
HETATM   18  C   UNK N   1      28.955  17.234   4.628  0.00  0.00     0.074 C 
BRANCH  18  19
HETATM   19  C   UNK N   1      28.437  18.522   5.203  0.00  0.00    -0.056 A 
HETATM   20  C   UNK N   1      27.800  19.443   4.359  0.00  0.00     0.010 A 
HETATM   21  C   UNK N   1      27.103  20.526   4.904  0.00  0.00     0.037 A 
HETATM   22  C   UNK N   1      27.037  20.686   6.291  0.00  0.00     0.065 A 
HETATM   23  C   UNK N   1      27.690  19.780   7.132  0.00  0.00     0.037 A 
HETATM   24  C   UNK N   1      28.376  18.692   6.590  0.00  0.00     0.010 A 
BRANCH  22  25
HETATM   25  O   UNK N   1      26.340  21.704   6.817  0.00  0.00    -0.361 OA
HETATM   26  H   UNK N   1      25.757  21.573   7.539  0.00  0.00     0.217 HD
ENDBRANCH  22  25
ENDBRANCH  18  19
ENDBRANCH  17  18
BRANCH  17  27
HETATM   27  C   UNK N   1      30.033  15.363   6.009  0.00  0.00     0.163 C 
HETATM   28  O   UNK N   1      30.933  15.884   6.650  0.00  0.00    -0.648 OA
BRANCH  27  29
HETATM   29  O   UNK N   1      30.162  14.088   5.599  0.00  0.00    -0.775 OA
HETATM   30  H   UNK N   1      29.843  13.550   4.902  0.00  0.00     0.167 HD
ENDBRANCH  27  29
ENDBRANCH  17  27
ENDBRANCH  15  17
BRANCH  14  31
HETATM   31  O   UNK N   1      26.207  16.070   6.772  0.00  0.00    -0.348 OA
HETATM   32  H   UNK N   1      25.617  16.764   6.991  0.00  0.00     0.219 HD
ENDBRANCH  14  31
ENDBRANCH  10  14
ENDBRANCH   8  10
BRANCH   7  33
HETATM   33  O   UNK N   1      24.611  11.555   6.387  0.00  0.00    -0.348 OA
HETATM   34  H   UNK N   1      25.126  10.774   6.365  0.00  0.00     0.219 HD
ENDBRANCH   7  33
ENDBRANCH   1   7
BRANCH   1  35
HETATM   35  N   UNK N   1      21.934  12.878   7.318  0.00  0.00    -0.360 N 
HETATM   36  C   UNK N   1      21.110  13.874   7.226  0.00  0.00     0.135 C 
ATOM     37  HN  UNK N   1      21.645  12.051   6.796  1.00  0.00     0.162 HD
BRANCH  36  38
HETATM   38  C   UNK N   1      21.398  15.274   7.707  0.00  0.00     0.158 C 
BRANCH  38  39
HETATM   39  C   UNK N   1      20.406  15.764   8.789  0.00  0.00     0.033 C 
BRANCH  39  40
HETATM   40  C   UNK N   1      19.848  17.167   8.560  0.00  0.00     0.004 C 
BRANCH  40  41
HETATM   41  C   UNK N   1      18.342  17.170   8.752  0.00  0.00     0.019 C 
BRANCH  41  42
HETATM   42  C   UNK N   1      17.997  17.948  10.007  0.00  0.00     0.111 C 
BRANCH  42  43
HETATM   43  N   UNK N   1      18.908  19.069  10.157  0.00  0.00    -0.430 N 
HETATM   44  H   UNK N   1      18.867  19.966   9.674  0.00  0.00     0.149 HD
HETATM   45  H   UNK N   1      19.674  18.946  10.820  0.00  0.00     0.149 HD
ENDBRANCH  42  43
ENDBRANCH  41  42
ENDBRANCH  40  41
ENDBRANCH  39  40
ENDBRANCH  38  39
BRANCH  38  46
HETATM   46  N   UNK N   1      21.381  16.027   6.469  0.00  0.00    -0.361 N 
HETATM   47  C   UNK N   1      22.285  16.711   5.862  0.00  0.00     0.134 C 
ATOM     48  HN  UNK N   1      20.481  16.012   5.988  1.00  0.00     0.162 HD
BRANCH  47  49
HETATM   49  C   UNK N   1      21.866  17.456   4.624  0.00  0.00     0.149 C 
BRANCH  49  50
HETATM   50  C   UNK N   1      21.431  16.511   3.490  0.00  0.00     0.034 C 
BRANCH  50  51
HETATM   51  C   UNK N   1      20.116  16.882   2.807  0.00  0.00     0.023 C 
BRANCH  51  52
HETATM   52  C   UNK N   1      19.848  18.380   2.918  0.00  0.00     0.138 C 
BRANCH  52  53
HETATM   53  N   UNK N   1      20.007  19.049   1.643  0.00  0.00    -0.227 N 
HETATM   54  C   UNK N   1      20.525  20.362   1.535  0.00  0.00     0.665 C 
HETATM   55  N   UNK N   1      20.571  20.920   0.367  0.00  0.00    -0.235 N 
HETATM   56  N   UNK N   1      20.938  21.090   2.662  0.00  0.00    -0.235 N 
HETATM   57  H   UNK N   1      21.383  20.845  -0.185  0.00  0.00     0.174 HD
ATOM     58  HN  UNK N   1      19.765  21.438   0.017  1.00  0.00     0.174 HD
HETATM   59  H   UNK N   1      20.874  21.808   3.333  0.00  0.00     0.174 HD
HETATM   60  H   UNK N   1      21.752  20.611   2.939  0.00  0.00     0.174 HD
HETATM   61  H   UNK N   1      19.747  18.572   0.821  0.00  0.00     0.177 HD
ENDBRANCH  52  53
ENDBRANCH  51  52
ENDBRANCH  50  51
ENDBRANCH  49  50
BRANCH  49  62
HETATM   62  N   UNK N   1      22.911  18.356   4.167  0.00  0.00    -0.419 N 
HETATM   63  H   UNK N   1      23.296  18.384   3.223  0.00  0.00     0.150 HD
HETATM   64  H   UNK N   1      23.292  19.014   4.847  0.00  0.00     0.150 HD
ENDBRANCH  49  62
ENDBRANCH  47  49
BRANCH  47  65
HETATM   65  O   UNK N   1      23.561  16.760   6.302  0.00  0.00    -0.348 OA
HETATM   66  H   UNK N   1      24.226  17.409   6.184  0.00  0.00     0.219 HD
ENDBRANCH  47  65
ENDBRANCH  38  46
ENDBRANCH  36  38
BRANCH  36  67
HETATM   67  O   UNK N   1      19.969  13.678   6.538  0.00  0.00    -0.348 OA
HETATM   68  H   UNK N   1      19.252  14.126   6.133  0.00  0.00     0.219 HD
ENDBRANCH  36  67
ENDBRANCH   1  35
TORSDOF 31
ENDMDL
