MODEL 1
REMARK VINA RESULT:      -8.4      0.000      0.000
REMARK WARNING: 32 MAX_TORS EXCEEDED!!!
REMARK  34 active torsions:
REMARK  status: ('A' for Active; 'I' for Inactive)
REMARK    1  A    between atoms: C_2  and  C_3 
REMARK    2  A    between atoms: C_2  and  O_89 
REMARK    3  A    between atoms: C_3  and  C_4 
REMARK    4  A    between atoms: C_3  and  N_57 
REMARK       I    between atoms: C_4  and  N_6 
REMARK    5  A    between atoms: C_7  and  N_6 
REMARK    6  A    between atoms: C_7  and  C_8 
REMARK    7  A    between atoms: C_7  and  C_15 
REMARK    8  A    between atoms: C_8  and  C_9 
REMARK       I    between atoms: C_15  and  N_17 
REMARK    9  A    between atoms: N_17  and  N_18 
REMARK       I    between atoms: N_18  and  C_19 
REMARK       I    between atoms: C_19  and  N_21 
REMARK   10  A    between atoms: C_22  and  N_21 
REMARK   11  A    between atoms: C_22  and  C_23 
REMARK   12  A    between atoms: C_22  and  C_27 
REMARK   13  A    between atoms: C_23  and  C_24 
REMARK       I    between atoms: C_27  and  N_29 
REMARK   14  A    between atoms: C_30  and  N_29 
REMARK   15  A    between atoms: C_30  and  C_31 
REMARK   16  A    between atoms: C_30  and  C_40 
REMARK   17  A    between atoms: C_31  and  C_32 
REMARK   18  A    between atoms: C_32  and  C_33 
REMARK   19  A    between atoms: C_33  and  N_34 
REMARK       I    between atoms: N_34  and  C_35 
REMARK       I    between atoms: C_35  and  N_38 
REMARK       I    between atoms: C_40  and  N_42 
REMARK   20  A    between atoms: C_43  and  N_42 
REMARK   21  A    between atoms: C_43  and  C_44 
REMARK   22  A    between atoms: C_43  and  C_54 
REMARK   23  A    between atoms: C_44  and  C_45 
REMARK       I    between atoms: C_54  and  N_56 
REMARK       I    between atoms: N_57  and  C_58 
REMARK   24  A    between atoms: C_58  and  C_60 
REMARK   25  A    between atoms: C_60  and  C_61 
REMARK   26  A    between atoms: C_60  and  N_65 
REMARK   27  A    between atoms: C_61  and  C_62 
REMARK       I    between atoms: C_62  and  N_64 
REMARK       I    between atoms: N_65  and  C_66 
REMARK   28  A    between atoms: C_68  and  C_66 
REMARK   29  A    between atoms: C_70  and  O_88 
REMARK       I    between atoms: N_72  and  C_73 
REMARK   30  A    between atoms: C_73  and  C_75 
REMARK   31  A    between atoms: C_75  and  C_76 
REMARK   32  A    between atoms: C_75  and  N_84 
REMARK   33  A    between atoms: C_76  and  C_77 
REMARK   34  A    between atoms: C_80  and  O_83 
REMARK       I    between atoms: N_84  and  C_85 
ROOT
HETATM    1  C   UNK N   1      23.900  17.639   4.765  0.00  0.00     0.182 C 
ENDROOT
BRANCH   1   2
HETATM    2  N   UNK N   1      22.877  18.018   5.717  0.00  0.00    -0.346 N 
HETATM    3  C   UNK N   1      21.542  18.061   5.451  0.00  0.00     0.243 C 
HETATM    4  O   UNK N   1      20.779  18.384   6.346  0.00  0.00    -0.271 OA
HETATM    5  H   UNK N   1      23.168  18.263   6.624  0.00  0.00     0.163 HD
BRANCH   3   6
HETATM    6  C   UNK N   1      20.949  17.728   4.091  0.00  0.00     0.205 C 
BRANCH   6   7
HETATM    7  C   UNK N   1      20.396  19.014   3.463  0.00  0.00     0.146 C 
HETATM    8  C   UNK N   1      20.887  19.179   2.037  0.00  0.00     0.042 C 
BRANCH   7   9
HETATM    9  O   UNK N   1      20.780  20.134   4.203  0.00  0.00    -0.393 OA
HETATM   10  H   UNK N   1      20.863  20.918   4.769  0.00  0.00     0.210 HD
ENDBRANCH   7   9
ENDBRANCH   6   7
BRANCH   6  11
HETATM   11  N   UNK N   1      19.888  16.744   4.177  0.00  0.00    -0.344 N 
HETATM   12  C   UNK N   1      19.879  15.516   3.590  0.00  0.00     0.241 C 
HETATM   13  O   UNK N   1      18.951  14.763   3.831  0.00  0.00    -0.271 OA
HETATM   14  H   UNK N   1      19.098  16.986   4.711  0.00  0.00     0.163 HD
BRANCH  12  15
HETATM   15  C   UNK N   1      20.923  15.048   2.616  0.00  0.00     0.185 C 
BRANCH  15  16
HETATM   16  C   UNK N   1      20.907  15.624   1.205  0.00  0.00     0.137 C 
BRANCH  16  17
HETATM   17  C   UNK N   1      19.537  15.530   0.619  0.00  0.00     0.217 C 
HETATM   18  O   UNK N   1      19.034  14.437   0.424  0.00  0.00    -0.274 OA
HETATM   19  N   UNK N   1      18.861  16.647   0.292  0.00  0.00    -0.370 N 
HETATM   20  H   UNK N   1      18.048  16.592  -0.261  0.00  0.00     0.159 HD
HETATM   21  H   UNK N   1      19.180  17.523   0.608  0.00  0.00     0.159 HD
ENDBRANCH  16  17
ENDBRANCH  15  16
BRANCH  15  22
HETATM   22  N   UNK N   1      21.179  13.634   2.762  0.00  0.00    -0.346 N 
HETATM   23  C   UNK N   1      22.217  13.006   3.370  0.00  0.00     0.241 C 
HETATM   24  O   UNK N   1      23.149  13.626   3.859  0.00  0.00    -0.271 OA
HETATM   25  H   UNK N   1      20.502  13.040   2.363  0.00  0.00     0.163 HD
BRANCH  23  26
HETATM   26  C   UNK N   1      22.137  11.515   3.514  0.00  0.00     0.181 C 
HETATM   27  C   UNK N   1      22.208  10.897   2.124  0.00  0.00     0.068 C 
HETATM   28  C   UNK N   1      20.957  10.036   1.964  0.00  0.00     0.138 C 
HETATM   29  C   UNK N   1      19.986  10.520   3.027  0.00  0.00     0.158 C 
HETATM   30  N   UNK N   1      20.811  11.197   3.985  0.00  0.00    -0.334 N 
HETATM   31  C   UNK N   1      20.358  11.528   5.229  0.00  0.00     0.243 C 
HETATM   32  O   UNK N   1      19.201  11.291   5.547  0.00  0.00    -0.271 OA
BRANCH  28  33
HETATM   33  O   UNK N   1      21.287   8.709   2.236  0.00  0.00    -0.394 OA
HETATM   34  H   UNK N   1      20.634   7.992   2.212  0.00  0.00     0.210 HD
ENDBRANCH  28  33
BRANCH  31  35
HETATM   35  C   UNK N   1      21.306  12.092   6.257  0.00  0.00     0.181 C 
BRANCH  35  36
HETATM   36  C   UNK N   1      22.419  11.182   6.804  0.00  0.00     0.073 C 
BRANCH  36  37
HETATM   37  C   UNK N   1      23.296  11.858   7.816  0.00  0.00    -0.056 A 
HETATM   38  C   UNK N   1      24.236  12.819   7.413  0.00  0.00     0.010 A 
HETATM   39  C   UNK N   1      25.069  13.426   8.356  0.00  0.00     0.037 A 
HETATM   40  C   UNK N   1      24.961  13.082   9.706  0.00  0.00     0.065 A 
HETATM   41  C   UNK N   1      24.012  12.138  10.113  0.00  0.00     0.037 A 
HETATM   42  C   UNK N   1      23.179  11.530   9.170  0.00  0.00     0.010 A 
BRANCH  40  43
HETATM   43  O   UNK N   1      25.766  13.659  10.611  0.00  0.00    -0.361 OA
HETATM   44  H   UNK N   1      26.350  13.204  11.186  0.00  0.00     0.217 HD
ENDBRANCH  40  43
ENDBRANCH  36  37
ENDBRANCH  35  36
BRANCH  35  45
HETATM   45  N   UNK N   1      20.754  13.063   7.181  0.00  0.00    -0.348 N 
HETATM   46  C   UNK N   1      20.969  14.401   7.102  0.00  0.00     0.214 C 
HETATM   47  O   UNK N   1      21.679  14.873   6.229  0.00  0.00    -0.274 OA
HETATM   48  C   UNK N   1      20.317  15.308   8.087  0.00  0.00     0.117 C 
HETATM   49  H   UNK N   1      20.186  12.731   7.913  0.00  0.00     0.163 HD
ENDBRANCH  35  45
ENDBRANCH  31  35
ENDBRANCH  23  26
ENDBRANCH  15  22
ENDBRANCH  12  15
ENDBRANCH   6  11
ENDBRANCH   3   6
ENDBRANCH   1   2
BRANCH   1  50
HETATM   50  C   UNK N   1      24.538  18.774   3.945  0.00  0.00     0.073 C 
BRANCH  50  51
HETATM   51  C   UNK N   1      25.761  19.481   4.470  0.00  0.00    -0.056 A 
HETATM   52  C   UNK N   1      25.591  20.419   5.495  0.00  0.00     0.007 A 
HETATM   53  C   UNK N   1      26.694  21.094   6.029  0.00  0.00     0.001 A 
HETATM   54  C   UNK N   1      27.977  20.831   5.543  0.00  0.00     0.000 A 
HETATM   55  C   UNK N   1      28.157  19.888   4.527  0.00  0.00     0.001 A 
HETATM   56  C   UNK N   1      27.054  19.214   3.995  0.00  0.00     0.007 A 
ENDBRANCH  50  51
ENDBRANCH   1  50
BRANCH   1  57
HETATM   57  C   UNK N   1      24.763  16.435   5.086  0.00  0.00     0.259 C 
HETATM   58  O   UNK N   1      25.131  16.285   6.241  0.00  0.00    -0.269 OA
HETATM   59  N   UNK N   1      25.171  15.535   4.149  0.00  0.00    -0.264 N 
HETATM   60  H   UNK N   1      25.730  14.777   4.434  0.00  0.00     0.190 HD
BRANCH  59  61
HETATM   61  N   UNK N   1      24.832  15.644   2.820  0.00  0.00    -0.249 N 
HETATM   62  C   UNK N   1      25.256  14.786   1.851  0.00  0.00     0.335 C 
HETATM   63  O   UNK N   1      24.748  14.862   0.745  0.00  0.00    -0.246 OA
HETATM   64  N   UNK N   1      26.207  13.835   2.064  0.00  0.00    -0.329 N 
HETATM   65  H   UNK N   1      26.315  13.145   1.369  0.00  0.00     0.165 HD
HETATM   66  H   UNK N   1      24.246  16.389   2.552  0.00  0.00     0.192 HD
BRANCH  64  67
HETATM   67  C   UNK N   1      27.068  13.751   3.220  0.00  0.00     0.178 C 
BRANCH  67  68
HETATM   68  C   UNK N   1      26.962  12.401   3.949  0.00  0.00     0.038 C 
BRANCH  68  69
HETATM   69  C   UNK N   1      25.913  11.380   3.489  0.00  0.00    -0.020 C 
HETATM   70  C   UNK N   1      25.460  10.592   4.700  0.00  0.00     0.009 C 
HETATM   71  C   UNK N   1      26.392  10.397   2.441  0.00  0.00     0.009 C 
ENDBRANCH  68  69
ENDBRANCH  67  68
BRANCH  67  72
HETATM   72  C   UNK N   1      28.478  13.957   2.793  0.00  0.00     0.241 C 
HETATM   73  O   UNK N   1      28.722  14.203   1.623  0.00  0.00    -0.271 OA
HETATM   74  N   UNK N   1      29.458  13.952   3.736  0.00  0.00    -0.346 N 
HETATM   75  H   UNK N   1      29.209  13.656   4.641  0.00  0.00     0.163 HD
BRANCH  74  76
HETATM   76  C   UNK N   1      30.835  14.342   3.526  0.00  0.00     0.176 C 
BRANCH  76  77
HETATM   77  C   UNK N   1      31.516  13.638   2.338  0.00  0.00     0.036 C 
BRANCH  77  78
HETATM   78  C   UNK N   1      31.697  12.131   2.445  0.00  0.00     0.023 C 
BRANCH  78  79
HETATM   79  C   UNK N   1      32.827  11.631   1.567  0.00  0.00     0.138 C 
BRANCH  79  80
HETATM   80  N   UNK N   1      32.428  11.612   0.183  0.00  0.00    -0.227 N 
HETATM   81  C   UNK N   1      33.192  12.263  -0.819  0.00  0.00     0.667 C 
HETATM   82  N   UNK N   1      34.201  12.991  -0.495  0.00  0.00    -0.235 N 
HETATM   83  N   UNK N   1      32.858  12.066  -2.184  0.00  0.00    -0.231 N 
HETATM   84  H   UNK N   1      34.549  13.018   0.425  0.00  0.00     0.174 HD
ATOM     85  HN  UNK N   1      34.652  13.560  -1.212  1.00  0.00     0.174 HD
HETATM   86  C   UNK N   1      33.642  12.639  -3.248  0.00  0.00     0.165 C 
HETATM   87  H   UNK N   1      32.069  11.522  -2.410  0.00  0.00     0.177 HD
HETATM   88  H   UNK N   1      31.605  11.137  -0.074  0.00  0.00     0.177 HD
ENDBRANCH  79  80
ENDBRANCH  78  79
ENDBRANCH  77  78
ENDBRANCH  76  77
BRANCH  76  89
HETATM   89  C   UNK N   1      31.027  15.839   3.701  0.00  0.00     0.241 C 
HETATM   90  O   UNK N   1      30.345  16.616   3.052  0.00  0.00    -0.271 OA
HETATM   91  N   UNK N   1      31.887  16.345   4.613  0.00  0.00    -0.346 N 
HETATM   92  H   UNK N   1      31.942  17.323   4.709  0.00  0.00     0.163 HD
BRANCH  91  93
HETATM   93  C   UNK N   1      32.729  15.529   5.452  0.00  0.00     0.180 C 
BRANCH  93  94
HETATM   94  C   UNK N   1      31.986  15.095   6.728  0.00  0.00     0.075 C 
BRANCH  94  95
HETATM   95  C   UNK N   1      31.633  16.242   7.627  0.00  0.00    -0.028 A 
HETATM   96  C   UNK N   1      32.460  16.870   8.552  0.00  0.00     0.096 A 
HETATM   97  N   UNK N   1      31.780  17.873   9.163  0.00  0.00    -0.365 N 
HETATM   98  C   UNK N   1      30.548  17.871   8.623  0.00  0.00     0.042 A 
HETATM   99  H   UNK N   1      32.120  18.480   9.860  0.00  0.00     0.165 HD
HETATM  100  C   UNK N   1      30.423  16.886   7.685  0.00  0.00    -0.002 A 
HETATM  101  C   UNK N   1      29.498  18.732   8.930  0.00  0.00     0.030 A 
HETATM  102  C   UNK N   1      29.239  16.686   6.979  0.00  0.00     0.014 A 
HETATM  103  C   UNK N   1      28.157  17.539   7.264  0.00  0.00     0.001 A 
HETATM  104  C   UNK N   1      28.286  18.559   8.236  0.00  0.00     0.002 A 
ENDBRANCH  94  95
ENDBRANCH  93  94
BRANCH  93 105
HETATM  105  C   UNK N   1      34.042  16.225   5.663  0.00  0.00     0.238 C 
HETATM  106  O   UNK N   1      34.135  17.437   5.559  0.00  0.00    -0.271 OA
HETATM  107  N   UNK N   1      35.134  15.500   5.975  0.00  0.00    -0.368 N 
HETATM  108  H   UNK N   1      35.364  14.554   5.825  0.00  0.00     0.159 HD
HETATM  109  H   UNK N   1      35.834  16.012   6.442  0.00  0.00     0.159 HD
ENDBRANCH  93 105
ENDBRANCH  91  93
ENDBRANCH  76  89
ENDBRANCH  74  76
ENDBRANCH  67  72
ENDBRANCH  64  67
ENDBRANCH  59  61
ENDBRANCH   1  57
TORSDOF 34
ENDMDL
MODEL 2
REMARK VINA RESULT:      -8.1      1.783      2.790
REMARK WARNING: 32 MAX_TORS EXCEEDED!!!
REMARK  34 active torsions:
REMARK  status: ('A' for Active; 'I' for Inactive)
REMARK    1  A    between atoms: C_2  and  C_3 
REMARK    2  A    between atoms: C_2  and  O_89 
REMARK    3  A    between atoms: C_3  and  C_4 
REMARK    4  A    between atoms: C_3  and  N_57 
REMARK       I    between atoms: C_4  and  N_6 
REMARK    5  A    between atoms: C_7  and  N_6 
REMARK    6  A    between atoms: C_7  and  C_8 
REMARK    7  A    between atoms: C_7  and  C_15 
REMARK    8  A    between atoms: C_8  and  C_9 
REMARK       I    between atoms: C_15  and  N_17 
REMARK    9  A    between atoms: N_17  and  N_18 
REMARK       I    between atoms: N_18  and  C_19 
REMARK       I    between atoms: C_19  and  N_21 
REMARK   10  A    between atoms: C_22  and  N_21 
REMARK   11  A    between atoms: C_22  and  C_23 
REMARK   12  A    between atoms: C_22  and  C_27 
REMARK   13  A    between atoms: C_23  and  C_24 
REMARK       I    between atoms: C_27  and  N_29 
REMARK   14  A    between atoms: C_30  and  N_29 
REMARK   15  A    between atoms: C_30  and  C_31 
REMARK   16  A    between atoms: C_30  and  C_40 
REMARK   17  A    between atoms: C_31  and  C_32 
REMARK   18  A    between atoms: C_32  and  C_33 
REMARK   19  A    between atoms: C_33  and  N_34 
REMARK       I    between atoms: N_34  and  C_35 
REMARK       I    between atoms: C_35  and  N_38 
REMARK       I    between atoms: C_40  and  N_42 
REMARK   20  A    between atoms: C_43  and  N_42 
REMARK   21  A    between atoms: C_43  and  C_44 
REMARK   22  A    between atoms: C_43  and  C_54 
REMARK   23  A    between atoms: C_44  and  C_45 
REMARK       I    between atoms: C_54  and  N_56 
REMARK       I    between atoms: N_57  and  C_58 
REMARK   24  A    between atoms: C_58  and  C_60 
REMARK   25  A    between atoms: C_60  and  C_61 
REMARK   26  A    between atoms: C_60  and  N_65 
REMARK   27  A    between atoms: C_61  and  C_62 
REMARK       I    between atoms: C_62  and  N_64 
REMARK       I    between atoms: N_65  and  C_66 
REMARK   28  A    between atoms: C_68  and  C_66 
REMARK   29  A    between atoms: C_70  and  O_88 
REMARK       I    between atoms: N_72  and  C_73 
REMARK   30  A    between atoms: C_73  and  C_75 
REMARK   31  A    between atoms: C_75  and  C_76 
REMARK   32  A    between atoms: C_75  and  N_84 
REMARK   33  A    between atoms: C_76  and  C_77 
REMARK   34  A    between atoms: C_80  and  O_83 
REMARK       I    between atoms: N_84  and  C_85 
ROOT
HETATM    1  C   UNK N   1      24.014  17.528   4.954  0.00  0.00     0.182 C 
ENDROOT
BRANCH   1   2
HETATM    2  N   UNK N   1      23.058  18.009   5.930  0.00  0.00    -0.346 N 
HETATM    3  C   UNK N   1      21.735  18.216   5.689  0.00  0.00     0.243 C 
HETATM    4  O   UNK N   1      21.030  18.612   6.603  0.00  0.00    -0.271 OA
HETATM    5  H   UNK N   1      23.391  18.201   6.835  0.00  0.00     0.163 HD
BRANCH   3   6
HETATM    6  C   UNK N   1      21.084  17.981   4.334  0.00  0.00     0.205 C 
BRANCH   6   7
HETATM    7  C   UNK N   1      20.557  19.319   3.799  0.00  0.00     0.146 C 
HETATM    8  C   UNK N   1      19.585  19.103   2.655  0.00  0.00     0.042 C 
BRANCH   7   9
HETATM    9  O   UNK N   1      21.606  20.125   3.353  0.00  0.00    -0.393 OA
HETATM   10  H   UNK N   1      22.195  20.798   2.979  0.00  0.00     0.210 HD
ENDBRANCH   7   9
ENDBRANCH   6   7
BRANCH   6  11
HETATM   11  N   UNK N   1      19.993  17.030   4.403  0.00  0.00    -0.344 N 
HETATM   12  C   UNK N   1      19.924  15.835   3.756  0.00  0.00     0.241 C 
HETATM   13  O   UNK N   1      18.977  15.102   3.986  0.00  0.00    -0.271 OA
HETATM   14  H   UNK N   1      19.228  17.271   4.973  0.00  0.00     0.163 HD
BRANCH  12  15
HETATM   15  C   UNK N   1      20.922  15.383   2.727  0.00  0.00     0.185 C 
BRANCH  15  16
HETATM   16  C   UNK N   1      20.884  16.031   1.349  0.00  0.00     0.137 C 
BRANCH  16  17
HETATM   17  C   UNK N   1      19.614  15.686   0.644  0.00  0.00     0.217 C 
HETATM   18  O   UNK N   1      19.286  14.518   0.520  0.00  0.00    -0.274 OA
HETATM   19  N   UNK N   1      18.836  16.658   0.133  0.00  0.00    -0.370 N 
HETATM   20  H   UNK N   1      18.106  16.435  -0.488  0.00  0.00     0.159 HD
HETATM   21  H   UNK N   1      18.998  17.597   0.382  0.00  0.00     0.159 HD
ENDBRANCH  16  17
ENDBRANCH  15  16
BRANCH  15  22
HETATM   22  N   UNK N   1      21.132  13.956   2.794  0.00  0.00    -0.346 N 
HETATM   23  C   UNK N   1      22.179  13.263   3.311  0.00  0.00     0.241 C 
HETATM   24  O   UNK N   1      23.160  13.827   3.773  0.00  0.00    -0.271 OA
HETATM   25  H   UNK N   1      20.412  13.405   2.408  0.00  0.00     0.163 HD
BRANCH  23  26
HETATM   26  C   UNK N   1      22.051  11.771   3.392  0.00  0.00     0.181 C 
HETATM   27  C   UNK N   1      22.107  11.210   1.977  0.00  0.00     0.068 C 
HETATM   28  C   UNK N   1      20.829  10.398   1.779  0.00  0.00     0.138 C 
HETATM   29  C   UNK N   1      19.870  10.867   2.860  0.00  0.00     0.158 C 
HETATM   30  N   UNK N   1      20.714  11.476   3.847  0.00  0.00    -0.334 N 
HETATM   31  C   UNK N   1      20.269  11.768   5.103  0.00  0.00     0.243 C 
HETATM   32  O   UNK N   1      19.104  11.555   5.409  0.00  0.00    -0.271 OA
BRANCH  28  33
HETATM   33  O   UNK N   1      21.116   9.050   1.995  0.00  0.00    -0.394 OA
HETATM   34  H   UNK N   1      21.422   8.710   2.851  0.00  0.00     0.210 HD
ENDBRANCH  28  33
BRANCH  31  35
HETATM   35  C   UNK N   1      21.231  12.258   6.156  0.00  0.00     0.181 C 
BRANCH  35  36
HETATM   36  C   UNK N   1      22.312  11.291   6.666  0.00  0.00     0.073 C 
BRANCH  36  37
HETATM   37  C   UNK N   1      23.184  11.883   7.733  0.00  0.00    -0.056 A 
HETATM   38  C   UNK N   1      24.248  12.732   7.392  0.00  0.00     0.010 A 
HETATM   39  C   UNK N   1      25.073  13.260   8.386  0.00  0.00     0.037 A 
HETATM   40  C   UNK N   1      24.835  12.948   9.728  0.00  0.00     0.065 A 
HETATM   41  C   UNK N   1      23.765  12.117  10.073  0.00  0.00     0.037 A 
HETATM   42  C   UNK N   1      22.939  11.588   9.078  0.00  0.00     0.010 A 
BRANCH  40  43
HETATM   43  O   UNK N   1      25.633  13.449  10.684  0.00  0.00    -0.361 OA
HETATM   44  H   UNK N   1      26.120  14.246  10.622  0.00  0.00     0.217 HD
ENDBRANCH  40  43
ENDBRANCH  36  37
ENDBRANCH  35  36
BRANCH  35  45
HETATM   45  N   UNK N   1      20.707  13.207   7.119  0.00  0.00    -0.348 N 
HETATM   46  C   UNK N   1      21.004  14.531   7.125  0.00  0.00     0.214 C 
HETATM   47  O   UNK N   1      21.770  15.007   6.303  0.00  0.00    -0.274 OA
HETATM   48  C   UNK N   1      20.375  15.419   8.142  0.00  0.00     0.117 C 
HETATM   49  H   UNK N   1      20.095  12.869   7.812  0.00  0.00     0.163 HD
ENDBRANCH  35  45
ENDBRANCH  31  35
ENDBRANCH  23  26
ENDBRANCH  15  22
ENDBRANCH  12  15
ENDBRANCH   6  11
ENDBRANCH   3   6
ENDBRANCH   1   2
BRANCH   1  50
HETATM   50  C   UNK N   1      24.700  18.589   4.075  0.00  0.00     0.073 C 
BRANCH  50  51
HETATM   51  C   UNK N   1      25.902  19.332   4.599  0.00  0.00    -0.056 A 
HETATM   52  C   UNK N   1      25.849  19.834   5.904  0.00  0.00     0.007 A 
HETATM   53  C   UNK N   1      26.942  20.519   6.445  0.00  0.00     0.001 A 
HETATM   54  C   UNK N   1      28.099  20.702   5.683  0.00  0.00     0.000 A 
HETATM   55  C   UNK N   1      28.164  20.194   4.383  0.00  0.00     0.001 A 
HETATM   56  C   UNK N   1      27.072  19.509   3.844  0.00  0.00     0.007 A 
ENDBRANCH  50  51
ENDBRANCH   1  50
BRANCH   1  57
HETATM   57  C   UNK N   1      24.799  16.274   5.282  0.00  0.00     0.259 C 
HETATM   58  O   UNK N   1      24.919  15.964   6.456  0.00  0.00    -0.269 OA
HETATM   59  N   UNK N   1      25.400  15.499   4.337  0.00  0.00    -0.264 N 
HETATM   60  H   UNK N   1      25.892  14.698   4.626  0.00  0.00     0.190 HD
BRANCH  59  61
HETATM   61  N   UNK N   1      25.344  15.791   2.993  0.00  0.00    -0.249 N 
HETATM   62  C   UNK N   1      26.044  15.120   2.037  0.00  0.00     0.335 C 
HETATM   63  O   UNK N   1      25.780  15.335   0.866  0.00  0.00    -0.246 OA
HETATM   64  N   UNK N   1      27.011  14.207   2.325  0.00  0.00    -0.329 N 
HETATM   65  H   UNK N   1      27.330  13.640   1.585  0.00  0.00     0.165 HD
HETATM   66  H   UNK N   1      24.763  16.532   2.705  0.00  0.00     0.192 HD
BRANCH  64  67
HETATM   67  C   UNK N   1      27.609  13.997   3.623  0.00  0.00     0.178 C 
BRANCH  67  68
HETATM   68  C   UNK N   1      26.880  12.927   4.452  0.00  0.00     0.038 C 
BRANCH  68  69
HETATM   69  C   UNK N   1      26.788  11.493   3.912  0.00  0.00    -0.020 C 
HETATM   70  C   UNK N   1      25.404  10.962   4.222  0.00  0.00     0.009 C 
HETATM   71  C   UNK N   1      27.802  10.527   4.487  0.00  0.00     0.009 C 
ENDBRANCH  68  69
ENDBRANCH  67  68
BRANCH  67  72
HETATM   72  C   UNK N   1      29.027  13.584   3.446  0.00  0.00     0.241 C 
HETATM   73  O   UNK N   1      29.404  13.182   2.356  0.00  0.00    -0.271 OA
HETATM   74  N   UNK N   1      29.894  13.744   4.481  0.00  0.00    -0.346 N 
HETATM   75  H   UNK N   1      29.510  13.982   5.355  0.00  0.00     0.163 HD
BRANCH  74  76
HETATM   76  C   UNK N   1      31.331  13.595   4.411  0.00  0.00     0.176 C 
BRANCH  76  77
HETATM   77  C   UNK N   1      31.814  12.134   4.411  0.00  0.00     0.036 C 
BRANCH  77  78
HETATM   78  C   UNK N   1      33.277  11.894   4.759  0.00  0.00     0.023 C 
BRANCH  78  79
HETATM   79  C   UNK N   1      33.438  11.239   6.117  0.00  0.00     0.138 C 
BRANCH  79  80
HETATM   80  N   UNK N   1      32.724  11.978   7.127  0.00  0.00    -0.227 N 
HETATM   81  C   UNK N   1      33.404  12.752   8.101  0.00  0.00     0.667 C 
HETATM   82  N   UNK N   1      34.686  12.715   8.180  0.00  0.00    -0.235 N 
HETATM   83  N   UNK N   1      32.657  13.600   8.959  0.00  0.00    -0.231 N 
HETATM   84  H   UNK N   1      35.236  12.262   7.501  0.00  0.00     0.174 HD
ATOM     85  HN  UNK N   1      35.148  13.166   8.970  1.00  0.00     0.174 HD
HETATM   86  C   UNK N   1      33.297  14.465   9.917  0.00  0.00     0.165 C 
HETATM   87  H   UNK N   1      31.674  13.596   8.898  0.00  0.00     0.177 HD
HETATM   88  H   UNK N   1      31.740  11.944   7.142  0.00  0.00     0.177 HD
ENDBRANCH  79  80
ENDBRANCH  78  79
ENDBRANCH  77  78
ENDBRANCH  76  77
BRANCH  76  89
HETATM   89  C   UNK N   1      31.949  14.573   3.428  0.00  0.00     0.241 C 
HETATM   90  O   UNK N   1      32.215  14.205   2.294  0.00  0.00    -0.271 OA
HETATM   91  N   UNK N   1      32.154  15.871   3.747  0.00  0.00    -0.346 N 
HETATM   92  H   UNK N   1      32.523  16.467   3.057  0.00  0.00     0.163 HD
BRANCH  91  93
HETATM   93  C   UNK N   1      31.861  16.428   5.044  0.00  0.00     0.180 C 
BRANCH  93  94
HETATM   94  C   UNK N   1      30.770  17.509   4.949  0.00  0.00     0.075 C 
BRANCH  94  95
HETATM   95  C   UNK N   1      29.647  17.304   5.921  0.00  0.00    -0.028 A 
HETATM   96  C   UNK N   1      28.417  16.704   5.669  0.00  0.00     0.096 A 
HETATM   97  N   UNK N   1      27.674  16.696   6.806  0.00  0.00    -0.365 N 
HETATM   98  C   UNK N   1      28.433  17.282   7.750  0.00  0.00     0.042 A 
HETATM   99  H   UNK N   1      26.765  16.335   6.916  0.00  0.00     0.165 HD
HETATM  100  C   UNK N   1      29.640  17.667   7.244  0.00  0.00    -0.002 A 
HETATM  101  C   UNK N   1      28.094  17.491   9.085  0.00  0.00     0.030 A 
HETATM  102  C   UNK N   1      30.605  18.292   8.031  0.00  0.00     0.014 A 
HETATM  103  C   UNK N   1      30.296  18.519   9.385  0.00  0.00     0.001 A 
HETATM  104  C   UNK N   1      29.045  18.119   9.910  0.00  0.00     0.002 A 
ENDBRANCH  94  95
ENDBRANCH  93  94
BRANCH  93 105
HETATM  105  C   UNK N   1      33.142  16.846   5.705  0.00  0.00     0.238 C 
HETATM  106  O   UNK N   1      33.688  17.897   5.411  0.00  0.00    -0.271 OA
HETATM  107  N   UNK N   1      33.696  16.049   6.640  0.00  0.00    -0.368 N 
HETATM  108  H   UNK N   1      33.618  15.084   6.816  0.00  0.00     0.159 HD
HETATM  109  H   UNK N   1      34.291  16.522   7.267  0.00  0.00     0.159 HD
ENDBRANCH  93 105
ENDBRANCH  91  93
ENDBRANCH  76  89
ENDBRANCH  74  76
ENDBRANCH  67  72
ENDBRANCH  64  67
ENDBRANCH  59  61
ENDBRANCH   1  57
TORSDOF 34
ENDMDL
MODEL 3
REMARK VINA RESULT:      -8.0      1.405      4.521
REMARK WARNING: 32 MAX_TORS EXCEEDED!!!
REMARK  34 active torsions:
REMARK  status: ('A' for Active; 'I' for Inactive)
REMARK    1  A    between atoms: C_2  and  C_3 
REMARK    2  A    between atoms: C_2  and  O_89 
REMARK    3  A    between atoms: C_3  and  C_4 
REMARK    4  A    between atoms: C_3  and  N_57 
REMARK       I    between atoms: C_4  and  N_6 
REMARK    5  A    between atoms: C_7  and  N_6 
REMARK    6  A    between atoms: C_7  and  C_8 
REMARK    7  A    between atoms: C_7  and  C_15 
REMARK    8  A    between atoms: C_8  and  C_9 
REMARK       I    between atoms: C_15  and  N_17 
REMARK    9  A    between atoms: N_17  and  N_18 
REMARK       I    between atoms: N_18  and  C_19 
REMARK       I    between atoms: C_19  and  N_21 
REMARK   10  A    between atoms: C_22  and  N_21 
REMARK   11  A    between atoms: C_22  and  C_23 
REMARK   12  A    between atoms: C_22  and  C_27 
REMARK   13  A    between atoms: C_23  and  C_24 
REMARK       I    between atoms: C_27  and  N_29 
REMARK   14  A    between atoms: C_30  and  N_29 
REMARK   15  A    between atoms: C_30  and  C_31 
REMARK   16  A    between atoms: C_30  and  C_40 
REMARK   17  A    between atoms: C_31  and  C_32 
REMARK   18  A    between atoms: C_32  and  C_33 
REMARK   19  A    between atoms: C_33  and  N_34 
REMARK       I    between atoms: N_34  and  C_35 
REMARK       I    between atoms: C_35  and  N_38 
REMARK       I    between atoms: C_40  and  N_42 
REMARK   20  A    between atoms: C_43  and  N_42 
REMARK   21  A    between atoms: C_43  and  C_44 
REMARK   22  A    between atoms: C_43  and  C_54 
REMARK   23  A    between atoms: C_44  and  C_45 
REMARK       I    between atoms: C_54  and  N_56 
REMARK       I    between atoms: N_57  and  C_58 
REMARK   24  A    between atoms: C_58  and  C_60 
REMARK   25  A    between atoms: C_60  and  C_61 
REMARK   26  A    between atoms: C_60  and  N_65 
REMARK   27  A    between atoms: C_61  and  C_62 
REMARK       I    between atoms: C_62  and  N_64 
REMARK       I    between atoms: N_65  and  C_66 
REMARK   28  A    between atoms: C_68  and  C_66 
REMARK   29  A    between atoms: C_70  and  O_88 
REMARK       I    between atoms: N_72  and  C_73 
REMARK   30  A    between atoms: C_73  and  C_75 
REMARK   31  A    between atoms: C_75  and  C_76 
REMARK   32  A    between atoms: C_75  and  N_84 
REMARK   33  A    between atoms: C_76  and  C_77 
REMARK   34  A    between atoms: C_80  and  O_83 
REMARK       I    between atoms: N_84  and  C_85 
ROOT
HETATM    1  C   UNK N   1      23.861  17.648   4.750  0.00  0.00     0.182 C 
ENDROOT
BRANCH   1   2
HETATM    2  N   UNK N   1      22.876  18.135   5.692  0.00  0.00    -0.346 N 
HETATM    3  C   UNK N   1      21.536  18.200   5.457  0.00  0.00     0.243 C 
HETATM    4  O   UNK N   1      20.808  18.619   6.341  0.00  0.00    -0.271 OA
HETATM    5  H   UNK N   1      23.198  18.444   6.569  0.00  0.00     0.163 HD
BRANCH   3   6
HETATM    6  C   UNK N   1      20.897  17.776   4.144  0.00  0.00     0.205 C 
BRANCH   6   7
HETATM    7  C   UNK N   1      20.328  19.018   3.446  0.00  0.00     0.146 C 
HETATM    8  C   UNK N   1      20.845  19.129   2.024  0.00  0.00     0.042 C 
BRANCH   7   9
HETATM    9  O   UNK N   1      20.671  20.180   4.141  0.00  0.00    -0.393 OA
HETATM   10  H   UNK N   1      20.720  21.015   4.631  0.00  0.00     0.210 HD
ENDBRANCH   7   9
ENDBRANCH   6   7
BRANCH   6  11
HETATM   11  N   UNK N   1      19.836  16.806   4.333  0.00  0.00    -0.344 N 
HETATM   12  C   UNK N   1      19.702  15.621   3.679  0.00  0.00     0.241 C 
HETATM   13  O   UNK N   1      18.803  14.870   4.014  0.00  0.00    -0.271 OA
HETATM   14  H   UNK N   1      19.146  17.027   4.999  0.00  0.00     0.163 HD
BRANCH  12  15
HETATM   15  C   UNK N   1      20.568  15.201   2.525  0.00  0.00     0.185 C 
BRANCH  15  16
HETATM   16  C   UNK N   1      20.272  15.782   1.148  0.00  0.00     0.137 C 
BRANCH  16  17
HETATM   17  C   UNK N   1      19.213  14.984   0.462  0.00  0.00     0.217 C 
HETATM   18  O   UNK N   1      19.341  13.777   0.348  0.00  0.00    -0.274 OA
HETATM   19  N   UNK N   1      18.125  15.594  -0.044  0.00  0.00    -0.370 N 
HETATM   20  H   UNK N   1      17.523  15.110  -0.654  0.00  0.00     0.159 HD
HETATM   21  H   UNK N   1      17.930  16.528   0.198  0.00  0.00     0.159 HD
ENDBRANCH  16  17
ENDBRANCH  15  16
BRANCH  15  22
HETATM   22  N   UNK N   1      20.902  13.798   2.605  0.00  0.00    -0.346 N 
HETATM   23  C   UNK N   1      22.018  13.205   3.103  0.00  0.00     0.241 C 
HETATM   24  O   UNK N   1      22.958  13.858   3.530  0.00  0.00    -0.271 OA
HETATM   25  H   UNK N   1      20.223  13.182   2.247  0.00  0.00     0.163 HD
BRANCH  23  26
HETATM   26  C   UNK N   1      22.021  11.710   3.207  0.00  0.00     0.181 C 
HETATM   27  C   UNK N   1      21.990  11.133   1.798  0.00  0.00     0.068 C 
HETATM   28  C   UNK N   1      20.771  10.217   1.727  0.00  0.00     0.138 C 
HETATM   29  C   UNK N   1      19.882  10.623   2.890  0.00  0.00     0.158 C 
HETATM   30  N   UNK N   1      20.761  11.314   3.788  0.00  0.00    -0.334 N 
HETATM   31  C   UNK N   1      20.412  11.589   5.079  0.00  0.00     0.243 C 
HETATM   32  O   UNK N   1      19.302  11.287   5.494  0.00  0.00    -0.271 OA
BRANCH  28  33
HETATM   33  O   UNK N   1      21.186   8.900   1.926  0.00  0.00    -0.394 OA
HETATM   34  H   UNK N   1      21.468   8.325   1.197  0.00  0.00     0.210 HD
ENDBRANCH  28  33
BRANCH  31  35
HETATM   35  C   UNK N   1      21.425  12.171   6.032  0.00  0.00     0.181 C 
BRANCH  35  36
HETATM   36  C   UNK N   1      22.667  11.334   6.381  0.00  0.00     0.073 C 
BRANCH  36  37
HETATM   37  C   UNK N   1      23.457  11.893   7.527  0.00  0.00    -0.056 A 
HETATM   38  C   UNK N   1      23.240  11.428   8.834  0.00  0.00     0.010 A 
HETATM   39  C   UNK N   1      23.959  11.970   9.901  0.00  0.00     0.037 A 
HETATM   40  C   UNK N   1      24.904  12.972   9.668  0.00  0.00     0.065 A 
HETATM   41  C   UNK N   1      25.136  13.425   8.365  0.00  0.00     0.037 A 
HETATM   42  C   UNK N   1      24.416  12.883   7.297  0.00  0.00     0.010 A 
BRANCH  40  43
HETATM   43  O   UNK N   1      25.590  13.499  10.694  0.00  0.00    -0.361 OA
HETATM   44  H   UNK N   1      25.309  13.507  11.588  0.00  0.00     0.217 HD
ENDBRANCH  40  43
ENDBRANCH  36  37
ENDBRANCH  35  36
BRANCH  35  45
HETATM   45  N   UNK N   1      20.907  13.027   7.081  0.00  0.00    -0.348 N 
HETATM   46  C   UNK N   1      21.028  14.379   7.093  0.00  0.00     0.214 C 
HETATM   47  O   UNK N   1      21.618  14.965   6.200  0.00  0.00    -0.274 OA
HETATM   48  C   UNK N   1      20.422  15.159   8.208  0.00  0.00     0.117 C 
HETATM   49  H   UNK N   1      20.436  12.600   7.833  0.00  0.00     0.163 HD
ENDBRANCH  35  45
ENDBRANCH  31  35
ENDBRANCH  23  26
ENDBRANCH  15  22
ENDBRANCH  12  15
ENDBRANCH   6  11
ENDBRANCH   3   6
ENDBRANCH   1   2
BRANCH   1  50
HETATM   50  C   UNK N   1      24.589  18.703   3.900  0.00  0.00     0.073 C 
BRANCH  50  51
HETATM   51  C   UNK N   1      25.815  19.389   4.445  0.00  0.00    -0.056 A 
HETATM   52  C   UNK N   1      25.639  20.369   5.429  0.00  0.00     0.007 A 
HETATM   53  C   UNK N   1      26.743  21.027   5.980  0.00  0.00     0.001 A 
HETATM   54  C   UNK N   1      28.034  20.705   5.553  0.00  0.00     0.000 A 
HETATM   55  C   UNK N   1      28.219  19.720   4.579  0.00  0.00     0.001 A 
HETATM   56  C   UNK N   1      27.114  19.063   4.031  0.00  0.00     0.007 A 
ENDBRANCH  50  51
ENDBRANCH   1  50
BRANCH   1  57
HETATM   57  C   UNK N   1      24.622  16.384   5.103  0.00  0.00     0.259 C 
HETATM   58  O   UNK N   1      24.671  16.055   6.278  0.00  0.00    -0.269 OA
HETATM   59  N   UNK N   1      25.275  15.622   4.183  0.00  0.00    -0.264 N 
HETATM   60  H   UNK N   1      25.747  14.815   4.488  0.00  0.00     0.190 HD
BRANCH  59  61
HETATM   61  N   UNK N   1      25.300  15.937   2.843  0.00  0.00    -0.249 N 
HETATM   62  C   UNK N   1      26.060  15.285   1.921  0.00  0.00     0.335 C 
HETATM   63  O   UNK N   1      25.866  15.519   0.740  0.00  0.00    -0.246 OA
HETATM   64  N   UNK N   1      27.013  14.371   2.252  0.00  0.00    -0.329 N 
HETATM   65  H   UNK N   1      27.378  13.818   1.524  0.00  0.00     0.165 HD
HETATM   66  H   UNK N   1      24.733  16.680   2.533  0.00  0.00     0.192 HD
BRANCH  64  67
HETATM   67  C   UNK N   1      27.531  14.142   3.581  0.00  0.00     0.178 C 
BRANCH  67  68
HETATM   68  C   UNK N   1      27.476  12.663   3.999  0.00  0.00     0.038 C 
BRANCH  68  69
HETATM   69  C   UNK N   1      26.118  11.950   4.055  0.00  0.00    -0.020 C 
HETATM   70  C   UNK N   1      26.279  10.698   4.892  0.00  0.00     0.009 C 
HETATM   71  C   UNK N   1      25.552  11.546   2.709  0.00  0.00     0.009 C 
ENDBRANCH  68  69
ENDBRANCH  67  68
BRANCH  67  72
HETATM   72  C   UNK N   1      28.944  14.605   3.639  0.00  0.00     0.241 C 
HETATM   73  O   UNK N   1      29.463  15.078   2.640  0.00  0.00    -0.271 OA
HETATM   74  N   UNK N   1      29.600  14.570   4.829  0.00  0.00    -0.346 N 
HETATM   75  H   UNK N   1      29.160  14.092   5.569  0.00  0.00     0.163 HD
BRANCH  74  76
HETATM   76  C   UNK N   1      30.886  15.170   5.104  0.00  0.00     0.176 C 
BRANCH  76  77
HETATM   77  C   UNK N   1      30.811  16.632   5.581  0.00  0.00     0.036 C 
BRANCH  77  78
HETATM   78  C   UNK N   1      29.633  17.005   6.470  0.00  0.00     0.023 C 
BRANCH  78  79
HETATM   79  C   UNK N   1      30.083  17.531   7.818  0.00  0.00     0.138 C 
BRANCH  79  80
HETATM   80  N   UNK N   1      31.089  16.674   8.391  0.00  0.00    -0.227 N 
HETATM   81  C   UNK N   1      32.420  17.120   8.589  0.00  0.00     0.667 C 
HETATM   82  N   UNK N   1      32.793  18.268   8.146  0.00  0.00    -0.235 N 
HETATM   83  N   UNK N   1      33.325  16.305   9.316  0.00  0.00    -0.231 N 
HETATM   84  H   UNK N   1      32.150  18.917   7.780  0.00  0.00     0.174 HD
ATOM     85  HN  UNK N   1      33.782  18.514   8.175  1.00  0.00     0.174 HD
HETATM   86  C   UNK N   1      34.667  16.737   9.614  0.00  0.00     0.165 C 
HETATM   87  H   UNK N   1      33.027  15.419   9.627  0.00  0.00     0.177 HD
HETATM   88  H   UNK N   1      30.847  15.756   8.651  0.00  0.00     0.177 HD
ENDBRANCH  79  80
ENDBRANCH  78  79
ENDBRANCH  77  78
ENDBRANCH  76  77
BRANCH  76  89
HETATM   89  C   UNK N   1      31.811  14.208   5.829  0.00  0.00     0.241 C 
HETATM   90  O   UNK N   1      31.839  14.200   7.050  0.00  0.00    -0.271 OA
HETATM   91  N   UNK N   1      32.561  13.303   5.162  0.00  0.00    -0.346 N 
HETATM   92  H   UNK N   1      33.114  12.680   5.686  0.00  0.00     0.163 HD
BRANCH  91  93
HETATM   93  C   UNK N   1      32.597  13.202   3.724  0.00  0.00     0.180 C 
BRANCH  93  94
HETATM   94  C   UNK N   1      32.372  11.750   3.265  0.00  0.00     0.075 C 
BRANCH  94  95
HETATM   95  C   UNK N   1      31.246  11.607   2.285  0.00  0.00    -0.028 A 
HETATM   96  C   UNK N   1      31.020  12.375   1.147  0.00  0.00     0.096 A 
HETATM   97  N   UNK N   1      29.906  11.929   0.512  0.00  0.00    -0.365 N 
HETATM   98  C   UNK N   1      29.448  10.897   1.244  0.00  0.00     0.042 A 
HETATM   99  H   UNK N   1      29.514  12.288  -0.316  0.00  0.00     0.165 HD
HETATM  100  C   UNK N   1      30.240  10.676   2.334  0.00  0.00    -0.002 A 
HETATM  101  C   UNK N   1      28.328  10.114   0.977  0.00  0.00     0.030 A 
HETATM  102  C   UNK N   1      29.975   9.654   3.243  0.00  0.00     0.014 A 
HETATM  103  C   UNK N   1      28.851   8.843   3.004  0.00  0.00     0.001 A 
HETATM  104  C   UNK N   1      28.029   9.072   1.875  0.00  0.00     0.002 A 
ENDBRANCH  94  95
ENDBRANCH  93  94
BRANCH  93 105
HETATM  105  C   UNK N   1      33.841  13.867   3.211  0.00  0.00     0.238 C 
HETATM  106  O   UNK N   1      34.946  13.499   3.574  0.00  0.00    -0.271 OA
HETATM  107  N   UNK N   1      33.735  14.882   2.331  0.00  0.00    -0.368 N 
HETATM  108  H   UNK N   1      33.006  15.514   2.136  0.00  0.00     0.159 HD
HETATM  109  H   UNK N   1      34.539  15.017   1.778  0.00  0.00     0.159 HD
ENDBRANCH  93 105
ENDBRANCH  91  93
ENDBRANCH  76  89
ENDBRANCH  74  76
ENDBRANCH  67  72
ENDBRANCH  64  67
ENDBRANCH  59  61
ENDBRANCH   1  57
TORSDOF 34
ENDMDL
MODEL 4
REMARK VINA RESULT:      -7.8      1.575      3.676
REMARK WARNING: 32 MAX_TORS EXCEEDED!!!
REMARK  34 active torsions:
REMARK  status: ('A' for Active; 'I' for Inactive)
REMARK    1  A    between atoms: C_2  and  C_3 
REMARK    2  A    between atoms: C_2  and  O_89 
REMARK    3  A    between atoms: C_3  and  C_4 
REMARK    4  A    between atoms: C_3  and  N_57 
REMARK       I    between atoms: C_4  and  N_6 
REMARK    5  A    between atoms: C_7  and  N_6 
REMARK    6  A    between atoms: C_7  and  C_8 
REMARK    7  A    between atoms: C_7  and  C_15 
REMARK    8  A    between atoms: C_8  and  C_9 
REMARK       I    between atoms: C_15  and  N_17 
REMARK    9  A    between atoms: N_17  and  N_18 
REMARK       I    between atoms: N_18  and  C_19 
REMARK       I    between atoms: C_19  and  N_21 
REMARK   10  A    between atoms: C_22  and  N_21 
REMARK   11  A    between atoms: C_22  and  C_23 
REMARK   12  A    between atoms: C_22  and  C_27 
REMARK   13  A    between atoms: C_23  and  C_24 
REMARK       I    between atoms: C_27  and  N_29 
REMARK   14  A    between atoms: C_30  and  N_29 
REMARK   15  A    between atoms: C_30  and  C_31 
REMARK   16  A    between atoms: C_30  and  C_40 
REMARK   17  A    between atoms: C_31  and  C_32 
REMARK   18  A    between atoms: C_32  and  C_33 
REMARK   19  A    between atoms: C_33  and  N_34 
REMARK       I    between atoms: N_34  and  C_35 
REMARK       I    between atoms: C_35  and  N_38 
REMARK       I    between atoms: C_40  and  N_42 
REMARK   20  A    between atoms: C_43  and  N_42 
REMARK   21  A    between atoms: C_43  and  C_44 
REMARK   22  A    between atoms: C_43  and  C_54 
REMARK   23  A    between atoms: C_44  and  C_45 
REMARK       I    between atoms: C_54  and  N_56 
REMARK       I    between atoms: N_57  and  C_58 
REMARK   24  A    between atoms: C_58  and  C_60 
REMARK   25  A    between atoms: C_60  and  C_61 
REMARK   26  A    between atoms: C_60  and  N_65 
REMARK   27  A    between atoms: C_61  and  C_62 
REMARK       I    between atoms: C_62  and  N_64 
REMARK       I    between atoms: N_65  and  C_66 
REMARK   28  A    between atoms: C_68  and  C_66 
REMARK   29  A    between atoms: C_70  and  O_88 
REMARK       I    between atoms: N_72  and  C_73 
REMARK   30  A    between atoms: C_73  and  C_75 
REMARK   31  A    between atoms: C_75  and  C_76 
REMARK   32  A    between atoms: C_75  and  N_84 
REMARK   33  A    between atoms: C_76  and  C_77 
REMARK   34  A    between atoms: C_80  and  O_83 
REMARK       I    between atoms: N_84  and  C_85 
ROOT
HETATM    1  C   UNK N   1      24.261  17.424   4.902  0.00  0.00     0.182 C 
ENDROOT
BRANCH   1   2
HETATM    2  N   UNK N   1      23.321  17.849   5.918  0.00  0.00    -0.346 N 
HETATM    3  C   UNK N   1      21.995  18.076   5.708  0.00  0.00     0.243 C 
HETATM    4  O   UNK N   1      21.305  18.419   6.653  0.00  0.00    -0.271 OA
HETATM    5  H   UNK N   1      23.667  17.986   6.829  0.00  0.00     0.163 HD
BRANCH   3   6
HETATM    6  C   UNK N   1      21.325  17.924   4.351  0.00  0.00     0.205 C 
BRANCH   6   7
HETATM    7  C   UNK N   1      20.871  19.307   3.866  0.00  0.00     0.146 C 
HETATM    8  C   UNK N   1      19.876  19.186   2.727  0.00  0.00     0.042 C 
BRANCH   7   9
HETATM    9  O   UNK N   1      21.961  20.065   3.433  0.00  0.00    -0.393 OA
HETATM   10  H   UNK N   1      22.812  20.426   3.140  0.00  0.00     0.210 HD
ENDBRANCH   7   9
ENDBRANCH   6   7
BRANCH   6  11
HETATM   11  N   UNK N   1      20.183  17.034   4.395  0.00  0.00    -0.344 N 
HETATM   12  C   UNK N   1      20.045  15.866   3.710  0.00  0.00     0.241 C 
HETATM   13  O   UNK N   1      19.059  15.181   3.922  0.00  0.00    -0.271 OA
HETATM   14  H   UNK N   1      19.434  17.299   4.976  0.00  0.00     0.163 HD
BRANCH  12  15
HETATM   15  C   UNK N   1      21.012  15.393   2.662  0.00  0.00     0.185 C 
BRANCH  15  16
HETATM   16  C   UNK N   1      20.923  16.000   1.268  0.00  0.00     0.137 C 
BRANCH  16  17
HETATM   17  C   UNK N   1      19.609  15.675   0.639  0.00  0.00     0.217 C 
HETATM   18  O   UNK N   1      19.259  14.512   0.533  0.00  0.00    -0.274 OA
HETATM   19  N   UNK N   1      18.816  16.659   0.176  0.00  0.00    -0.370 N 
HETATM   20  H   UNK N   1      18.047  16.447  -0.401  0.00  0.00     0.159 HD
HETATM   21  H   UNK N   1      19.005  17.595   0.417  0.00  0.00     0.159 HD
ENDBRANCH  16  17
ENDBRANCH  15  16
BRANCH  15  22
HETATM   22  N   UNK N   1      21.237  13.970   2.762  0.00  0.00    -0.346 N 
HETATM   23  C   UNK N   1      22.199  13.296   3.444  0.00  0.00     0.241 C 
HETATM   24  O   UNK N   1      23.080  13.878   4.058  0.00  0.00    -0.271 OA
HETATM   25  H   UNK N   1      20.600  13.407   2.265  0.00  0.00     0.163 HD
BRANCH  23  26
HETATM   26  C   UNK N   1      22.089  11.802   3.502  0.00  0.00     0.181 C 
HETATM   27  C   UNK N   1      22.162  11.261   2.080  0.00  0.00     0.068 C 
HETATM   28  C   UNK N   1      20.896  10.436   1.862  0.00  0.00     0.138 C 
HETATM   29  C   UNK N   1      19.924  10.878   2.941  0.00  0.00     0.158 C 
HETATM   30  N   UNK N   1      20.752  11.484   3.943  0.00  0.00    -0.334 N 
HETATM   31  C   UNK N   1      20.294  11.753   5.200  0.00  0.00     0.243 C 
HETATM   32  O   UNK N   1      19.130  11.521   5.494  0.00  0.00    -0.271 OA
BRANCH  28  33
HETATM   33  O   UNK N   1      21.199   9.089   2.061  0.00  0.00    -0.394 OA
HETATM   34  H   UNK N   1      21.389   8.481   1.329  0.00  0.00     0.210 HD
ENDBRANCH  28  33
BRANCH  31  35
HETATM   35  C   UNK N   1      21.242  12.240   6.267  0.00  0.00     0.181 C 
BRANCH  35  36
HETATM   36  C   UNK N   1      22.335  11.281   6.768  0.00  0.00     0.073 C 
BRANCH  36  37
HETATM   37  C   UNK N   1      23.208  11.878   7.831  0.00  0.00    -0.056 A 
HETATM   38  C   UNK N   1      24.211  12.799   7.494  0.00  0.00     0.010 A 
HETATM   39  C   UNK N   1      25.039  13.332   8.484  0.00  0.00     0.037 A 
HETATM   40  C   UNK N   1      24.863  12.953   9.817  0.00  0.00     0.065 A 
HETATM   41  C   UNK N   1      23.853  12.050  10.160  0.00  0.00     0.037 A 
HETATM   42  C   UNK N   1      23.025  11.515   9.169  0.00  0.00     0.010 A 
BRANCH  40  43
HETATM   43  O   UNK N   1      25.663  13.459  10.769  0.00  0.00    -0.361 OA
HETATM   44  H   UNK N   1      25.512  14.256  11.238  0.00  0.00     0.217 HD
ENDBRANCH  40  43
ENDBRANCH  36  37
ENDBRANCH  35  36
BRANCH  35  45
HETATM   45  N   UNK N   1      20.698  13.165   7.241  0.00  0.00    -0.348 N 
HETATM   46  C   UNK N   1      20.970  14.494   7.266  0.00  0.00     0.214 C 
HETATM   47  O   UNK N   1      21.728  14.997   6.453  0.00  0.00    -0.274 OA
HETATM   48  C   UNK N   1      20.322  15.356   8.295  0.00  0.00     0.117 C 
HETATM   49  H   UNK N   1      20.092  12.806   7.929  0.00  0.00     0.163 HD
ENDBRANCH  35  45
ENDBRANCH  31  35
ENDBRANCH  23  26
ENDBRANCH  15  22
ENDBRANCH  12  15
ENDBRANCH   6  11
ENDBRANCH   3   6
ENDBRANCH   1   2
BRANCH   1  50
HETATM   50  C   UNK N   1      24.902  18.528   4.044  0.00  0.00     0.073 C 
BRANCH  50  51
HETATM   51  C   UNK N   1      25.997  19.386   4.623  0.00  0.00    -0.056 A 
HETATM   52  C   UNK N   1      27.323  19.048   4.330  0.00  0.00     0.007 A 
HETATM   53  C   UNK N   1      28.378  19.819   4.830  0.00  0.00     0.001 A 
HETATM   54  C   UNK N   1      28.113  20.938   5.622  0.00  0.00     0.000 A 
HETATM   55  C   UNK N   1      26.791  21.289   5.911  0.00  0.00     0.001 A 
HETATM   56  C   UNK N   1      25.738  20.518   5.410  0.00  0.00     0.007 A 
ENDBRANCH  50  51
ENDBRANCH   1  50
BRANCH   1  57
HETATM   57  C   UNK N   1      25.081  16.176   5.165  0.00  0.00     0.259 C 
HETATM   58  O   UNK N   1      25.424  15.948   6.314  0.00  0.00    -0.269 OA
HETATM   59  N   UNK N   1      25.477  15.319   4.183  0.00  0.00    -0.264 N 
HETATM   60  H   UNK N   1      26.007  14.529   4.432  0.00  0.00     0.190 HD
BRANCH  59  61
HETATM   61  N   UNK N   1      25.164  15.516   2.858  0.00  0.00    -0.249 N 
HETATM   62  C   UNK N   1      25.504  14.655   1.858  0.00  0.00     0.335 C 
HETATM   63  O   UNK N   1      25.017  14.828   0.754  0.00  0.00    -0.246 OA
HETATM   64  N   UNK N   1      26.345  13.600   2.038  0.00  0.00    -0.329 N 
HETATM   65  H   UNK N   1      26.386  12.930   1.317  0.00  0.00     0.165 HD
HETATM   66  H   UNK N   1      24.663  16.329   2.617  0.00  0.00     0.192 HD
BRANCH  64  67
HETATM   67  C   UNK N   1      27.181  13.380   3.195  0.00  0.00     0.178 C 
BRANCH  67  68
HETATM   68  C   UNK N   1      27.531  11.897   3.407  0.00  0.00     0.038 C 
BRANCH  68  69
HETATM   69  C   UNK N   1      26.830  11.114   4.524  0.00  0.00    -0.020 C 
HETATM   70  C   UNK N   1      27.245   9.662   4.412  0.00  0.00     0.009 C 
HETATM   71  C   UNK N   1      25.317  11.174   4.496  0.00  0.00     0.009 C 
ENDBRANCH  68  69
ENDBRANCH  67  68
BRANCH  67  72
HETATM   72  C   UNK N   1      28.442  14.154   3.038  0.00  0.00     0.241 C 
HETATM   73  O   UNK N   1      28.391  15.365   2.897  0.00  0.00    -0.271 OA
HETATM   74  N   UNK N   1      29.631  13.502   3.143  0.00  0.00    -0.346 N 
HETATM   75  H   UNK N   1      29.604  12.519   3.162  0.00  0.00     0.163 HD
BRANCH  74  76
HETATM   76  C   UNK N   1      30.933  14.126   3.228  0.00  0.00     0.176 C 
BRANCH  76  77
HETATM   77  C   UNK N   1      31.201  14.847   4.562  0.00  0.00     0.036 C 
BRANCH  77  78
HETATM   78  C   UNK N   1      31.956  16.167   4.490  0.00  0.00     0.023 C 
BRANCH  78  79
HETATM   79  C   UNK N   1      31.449  17.167   5.510  0.00  0.00     0.138 C 
BRANCH  79  80
HETATM   80  N   UNK N   1      30.116  16.828   5.939  0.00  0.00    -0.227 N 
HETATM   81  C   UNK N   1      29.631  17.198   7.219  0.00  0.00     0.667 C 
HETATM   82  N   UNK N   1      30.416  17.742   8.079  0.00  0.00    -0.235 N 
HETATM   83  N   UNK N   1      28.260  17.000   7.526  0.00  0.00    -0.231 N 
HETATM   84  H   UNK N   1      31.325  18.034   7.840  0.00  0.00     0.174 HD
ATOM     85  HN  UNK N   1      30.090  17.874   9.036  1.00  0.00     0.174 HD
HETATM   86  C   UNK N   1      27.693  17.423   8.781  0.00  0.00     0.165 C 
HETATM   87  H   UNK N   1      27.680  16.561   6.862  0.00  0.00     0.177 HD
HETATM   88  H   UNK N   1      29.528  16.327   5.329  0.00  0.00     0.177 HD
ENDBRANCH  79  80
ENDBRANCH  78  79
ENDBRANCH  77  78
ENDBRANCH  76  77
BRANCH  76  89
HETATM   89  C   UNK N   1      32.019  13.243   2.639  0.00  0.00     0.241 C 
HETATM   90  O   UNK N   1      32.343  13.381   1.470  0.00  0.00    -0.271 OA
HETATM   91  N   UNK N   1      32.694  12.347   3.392  0.00  0.00    -0.346 N 
HETATM   92  H   UNK N   1      33.413  11.828   2.965  0.00  0.00     0.163 HD
BRANCH  91  93
HETATM   93  C   UNK N   1      32.417  12.108   4.787  0.00  0.00     0.180 C 
BRANCH  93  94
HETATM   94  C   UNK N   1      33.719  12.027   5.604  0.00  0.00     0.075 C 
BRANCH  94  95
HETATM   95  C   UNK N   1      34.291  13.371   5.943  0.00  0.00    -0.028 A 
HETATM   96  C   UNK N   1      35.321  14.035   5.286  0.00  0.00     0.096 A 
HETATM   97  N   UNK N   1      35.544  15.233   5.884  0.00  0.00    -0.365 N 
HETATM   98  C   UNK N   1      34.663  15.313   6.898  0.00  0.00     0.042 A 
HETATM   99  H   UNK N   1      36.214  15.907   5.628  0.00  0.00     0.165 HD
HETATM  100  C   UNK N   1      33.886  14.192   6.964  0.00  0.00    -0.002 A 
HETATM  101  C   UNK N   1      34.509  16.369   7.791  0.00  0.00     0.030 A 
HETATM  102  C   UNK N   1      32.892  14.040   7.928  0.00  0.00     0.014 A 
HETATM  103  C   UNK N   1      32.708  15.089   8.847  0.00  0.00     0.001 A 
HETATM  104  C   UNK N   1      33.513  16.251   8.779  0.00  0.00     0.002 A 
ENDBRANCH  94  95
ENDBRANCH  93  94
BRANCH  93 105
HETATM  105  C   UNK N   1      31.488  10.936   4.915  0.00  0.00     0.238 C 
HETATM  106  O   UNK N   1      30.301  11.096   5.148  0.00  0.00    -0.271 OA
HETATM  107  N   UNK N   1      31.973   9.687   4.765  0.00  0.00    -0.368 N 
HETATM  108  H   UNK N   1      32.878   9.313   4.869  0.00  0.00     0.159 HD
HETATM  109  H   UNK N   1      31.295   9.025   4.500  0.00  0.00     0.159 HD
ENDBRANCH  93 105
ENDBRANCH  91  93
ENDBRANCH  76  89
ENDBRANCH  74  76
ENDBRANCH  67  72
ENDBRANCH  64  67
ENDBRANCH  59  61
ENDBRANCH   1  57
TORSDOF 34
ENDMDL
MODEL 5
REMARK VINA RESULT:      -7.8      2.344      7.145
REMARK WARNING: 32 MAX_TORS EXCEEDED!!!
REMARK  34 active torsions:
REMARK  status: ('A' for Active; 'I' for Inactive)
REMARK    1  A    between atoms: C_2  and  C_3 
REMARK    2  A    between atoms: C_2  and  O_89 
REMARK    3  A    between atoms: C_3  and  C_4 
REMARK    4  A    between atoms: C_3  and  N_57 
REMARK       I    between atoms: C_4  and  N_6 
REMARK    5  A    between atoms: C_7  and  N_6 
REMARK    6  A    between atoms: C_7  and  C_8 
REMARK    7  A    between atoms: C_7  and  C_15 
REMARK    8  A    between atoms: C_8  and  C_9 
REMARK       I    between atoms: C_15  and  N_17 
REMARK    9  A    between atoms: N_17  and  N_18 
REMARK       I    between atoms: N_18  and  C_19 
REMARK       I    between atoms: C_19  and  N_21 
REMARK   10  A    between atoms: C_22  and  N_21 
REMARK   11  A    between atoms: C_22  and  C_23 
REMARK   12  A    between atoms: C_22  and  C_27 
REMARK   13  A    between atoms: C_23  and  C_24 
REMARK       I    between atoms: C_27  and  N_29 
REMARK   14  A    between atoms: C_30  and  N_29 
REMARK   15  A    between atoms: C_30  and  C_31 
REMARK   16  A    between atoms: C_30  and  C_40 
REMARK   17  A    between atoms: C_31  and  C_32 
REMARK   18  A    between atoms: C_32  and  C_33 
REMARK   19  A    between atoms: C_33  and  N_34 
REMARK       I    between atoms: N_34  and  C_35 
REMARK       I    between atoms: C_35  and  N_38 
REMARK       I    between atoms: C_40  and  N_42 
REMARK   20  A    between atoms: C_43  and  N_42 
REMARK   21  A    between atoms: C_43  and  C_44 
REMARK   22  A    between atoms: C_43  and  C_54 
REMARK   23  A    between atoms: C_44  and  C_45 
REMARK       I    between atoms: C_54  and  N_56 
REMARK       I    between atoms: N_57  and  C_58 
REMARK   24  A    between atoms: C_58  and  C_60 
REMARK   25  A    between atoms: C_60  and  C_61 
REMARK   26  A    between atoms: C_60  and  N_65 
REMARK   27  A    between atoms: C_61  and  C_62 
REMARK       I    between atoms: C_62  and  N_64 
REMARK       I    between atoms: N_65  and  C_66 
REMARK   28  A    between atoms: C_68  and  C_66 
REMARK   29  A    between atoms: C_70  and  O_88 
REMARK       I    between atoms: N_72  and  C_73 
REMARK   30  A    between atoms: C_73  and  C_75 
REMARK   31  A    between atoms: C_75  and  C_76 
REMARK   32  A    between atoms: C_75  and  N_84 
REMARK   33  A    between atoms: C_76  and  C_77 
REMARK   34  A    between atoms: C_80  and  O_83 
REMARK       I    between atoms: N_84  and  C_85 
ROOT
HETATM    1  C   UNK N   1      22.431  17.676   5.057  0.00  0.00     0.182 C 
ENDROOT
BRANCH   1   2
HETATM    2  N   UNK N   1      21.917  17.622   6.409  0.00  0.00    -0.346 N 
HETATM    3  C   UNK N   1      21.458  16.498   7.025  0.00  0.00     0.243 C 
HETATM    4  O   UNK N   1      21.062  16.584   8.176  0.00  0.00    -0.271 OA
HETATM    5  H   UNK N   1      21.897  18.462   6.922  0.00  0.00     0.163 HD
BRANCH   3   6
HETATM    6  C   UNK N   1      21.410  15.135   6.352  0.00  0.00     0.205 C 
BRANCH   6   7
HETATM    7  C   UNK N   1      19.945  14.701   6.215  0.00  0.00     0.146 C 
HETATM    8  C   UNK N   1      19.640  14.252   4.798  0.00  0.00     0.042 C 
BRANCH   7   9
HETATM    9  O   UNK N   1      19.083  15.747   6.551  0.00  0.00    -0.393 OA
HETATM   10  H   UNK N   1      18.457  16.487   6.595  0.00  0.00     0.210 HD
ENDBRANCH   7   9
ENDBRANCH   6   7
BRANCH   6  11
HETATM   11  N   UNK N   1      22.140  14.127   7.093  0.00  0.00    -0.344 N 
HETATM   12  C   UNK N   1      22.782  13.048   6.568  0.00  0.00     0.241 C 
HETATM   13  O   UNK N   1      23.431  12.336   7.315  0.00  0.00    -0.271 OA
HETATM   14  H   UNK N   1      22.176  14.232   8.071  0.00  0.00     0.163 HD
BRANCH  12  15
HETATM   15  C   UNK N   1      22.695  12.646   5.123  0.00  0.00     0.185 C 
BRANCH  15  16
HETATM   16  C   UNK N   1      22.059  11.305   4.781  0.00  0.00     0.137 C 
BRANCH  16  17
HETATM   17  C   UNK N   1      21.375  11.374   3.456  0.00  0.00     0.217 C 
HETATM   18  O   UNK N   1      21.992  11.748   2.473  0.00  0.00    -0.274 OA
HETATM   19  N   UNK N   1      20.076  11.041   3.345  0.00  0.00    -0.370 N 
HETATM   20  H   UNK N   1      19.574  11.261   2.526  0.00  0.00     0.159 HD
HETATM   21  H   UNK N   1      19.625  10.573   4.084  0.00  0.00     0.159 HD
ENDBRANCH  16  17
ENDBRANCH  15  16
BRANCH  15  22
HETATM   22  N   UNK N   1      23.886  13.029   4.401  0.00  0.00    -0.346 N 
HETATM   23  C   UNK N   1      25.045  12.343   4.227  0.00  0.00     0.241 C 
HETATM   24  O   UNK N   1      25.235  11.255   4.749  0.00  0.00    -0.271 OA
HETATM   25  H   UNK N   1      23.853  13.915   3.973  0.00  0.00     0.163 HD
BRANCH  23  26
HETATM   26  C   UNK N   1      26.058  12.921   3.284  0.00  0.00     0.181 C 
HETATM   27  C   UNK N   1      26.345  14.354   3.711  0.00  0.00     0.068 C 
HETATM   28  C   UNK N   1      26.055  15.237   2.499  0.00  0.00     0.138 C 
HETATM   29  C   UNK N   1      25.190  14.399   1.575  0.00  0.00     0.158 C 
HETATM   30  N   UNK N   1      25.425  13.047   1.994  0.00  0.00    -0.334 N 
HETATM   31  C   UNK N   1      25.054  11.976   1.233  0.00  0.00     0.243 C 
HETATM   32  O   UNK N   1      24.460  12.146   0.178  0.00  0.00    -0.271 OA
BRANCH  28  33
HETATM   33  O   UNK N   1      27.258  15.516   1.850  0.00  0.00    -0.394 OA
HETATM   34  H   UNK N   1      27.575  16.421   1.702  0.00  0.00     0.210 HD
ENDBRANCH  28  33
BRANCH  31  35
HETATM   35  C   UNK N   1      25.464  10.581   1.634  0.00  0.00     0.181 C 
BRANCH  35  36
HETATM   36  C   UNK N   1      26.556   9.875   0.813  0.00  0.00     0.073 C 
BRANCH  36  37
HETATM   37  C   UNK N   1      27.781   9.545   1.613  0.00  0.00    -0.056 A 
HETATM   38  C   UNK N   1      27.957  10.082   2.898  0.00  0.00     0.010 A 
HETATM   39  C   UNK N   1      29.111   9.794   3.628  0.00  0.00     0.037 A 
HETATM   40  C   UNK N   1      30.093   8.963   3.082  0.00  0.00     0.065 A 
HETATM   41  C   UNK N   1      29.913   8.412   1.810  0.00  0.00     0.037 A 
HETATM   42  C   UNK N   1      28.758   8.700   1.078  0.00  0.00     0.010 A 
BRANCH  40  43
HETATM   43  O   UNK N   1      31.207   8.692   3.780  0.00  0.00    -0.361 OA
HETATM   44  H   UNK N   1      31.307   7.988   4.391  0.00  0.00     0.217 HD
ENDBRANCH  40  43
ENDBRANCH  36  37
ENDBRANCH  35  36
BRANCH  35  45
HETATM   45  N   UNK N   1      24.424   9.736   2.188  0.00  0.00    -0.348 N 
HETATM   46  C   UNK N   1      23.596   8.959   1.446  0.00  0.00     0.214 C 
HETATM   47  O   UNK N   1      23.673   8.943   0.228  0.00  0.00    -0.274 OA
HETATM   48  C   UNK N   1      22.586   8.103   2.129  0.00  0.00     0.117 C 
HETATM   49  H   UNK N   1      24.312   9.726   3.166  0.00  0.00     0.163 HD
ENDBRANCH  35  45
ENDBRANCH  31  35
ENDBRANCH  23  26
ENDBRANCH  15  22
ENDBRANCH  12  15
ENDBRANCH   6  11
ENDBRANCH   3   6
ENDBRANCH   1   2
BRANCH   1  50
HETATM   50  C   UNK N   1      21.411  17.947   3.938  0.00  0.00     0.073 C 
BRANCH  50  51
HETATM   51  C   UNK N   1      21.179  16.912   2.867  0.00  0.00    -0.056 A 
HETATM   52  C   UNK N   1      20.132  17.123   1.963  0.00  0.00     0.007 A 
HETATM   53  C   UNK N   1      19.882  16.202   0.940  0.00  0.00     0.001 A 
HETATM   54  C   UNK N   1      20.683  15.064   0.813  0.00  0.00     0.000 A 
HETATM   55  C   UNK N   1      21.737  14.852   1.705  0.00  0.00     0.001 A 
HETATM   56  C   UNK N   1      21.986  15.774   2.725  0.00  0.00     0.007 A 
ENDBRANCH  50  51
ENDBRANCH   1  50
BRANCH   1  57
HETATM   57  C   UNK N   1      23.848  18.175   4.851  0.00  0.00     0.259 C 
HETATM   58  O   UNK N   1      24.006  19.204   4.213  0.00  0.00    -0.269 OA
HETATM   59  N   UNK N   1      24.947  17.518   5.314  0.00  0.00    -0.264 N 
HETATM   60  H   UNK N   1      25.835  17.905   5.142  0.00  0.00     0.190 HD
BRANCH  59  61
HETATM   61  N   UNK N   1      24.865  16.335   6.013  0.00  0.00    -0.249 N 
HETATM   62  C   UNK N   1      25.856  15.851   6.811  0.00  0.00     0.335 C 
HETATM   63  O   UNK N   1      25.608  14.896   7.529  0.00  0.00    -0.246 OA
HETATM   64  N   UNK N   1      27.103  16.393   6.862  0.00  0.00    -0.329 N 
HETATM   65  H   UNK N   1      27.691  16.100   7.596  0.00  0.00     0.165 HD
HETATM   66  H   UNK N   1      24.038  15.807   5.930  0.00  0.00     0.192 HD
BRANCH  64  67
HETATM   67  C   UNK N   1      27.637  17.361   5.933  0.00  0.00     0.178 C 
BRANCH  67  68
HETATM   68  C   UNK N   1      27.981  18.704   6.599  0.00  0.00     0.038 C 
BRANCH  68  69
HETATM   69  C   UNK N   1      27.798  20.004   5.804  0.00  0.00    -0.020 C 
HETATM   70  C   UNK N   1      26.666  20.786   6.436  0.00  0.00     0.009 C 
HETATM   71  C   UNK N   1      27.478  19.816   4.335  0.00  0.00     0.009 C 
ENDBRANCH  68  69
ENDBRANCH  67  68
BRANCH  67  72
HETATM   72  C   UNK N   1      28.867  16.807   5.306  0.00  0.00     0.241 C 
HETATM   73  O   UNK N   1      28.919  16.680   4.093  0.00  0.00    -0.271 OA
HETATM   74  N   UNK N   1      29.942  16.534   6.093  0.00  0.00    -0.346 N 
HETATM   75  H   UNK N   1      29.804  16.568   7.067  0.00  0.00     0.163 HD
BRANCH  74  76
HETATM   76  C   UNK N   1      31.268  16.197   5.626  0.00  0.00     0.176 C 
BRANCH  76  77
HETATM   77  C   UNK N   1      32.222  17.400   5.514  0.00  0.00     0.036 C 
BRANCH  77  78
HETATM   78  C   UNK N   1      33.432  17.407   6.438  0.00  0.00     0.023 C 
BRANCH  78  79
HETATM   79  C   UNK N   1      33.097  17.963   7.808  0.00  0.00     0.138 C 
BRANCH  79  80
HETATM   80  N   UNK N   1      34.236  17.877   8.686  0.00  0.00    -0.227 N 
HETATM   81  C   UNK N   1      34.377  16.816   9.617  0.00  0.00     0.667 C 
HETATM   82  N   UNK N   1      33.426  15.967   9.783  0.00  0.00    -0.235 N 
HETATM   83  N   UNK N   1      35.595  16.677  10.330  0.00  0.00    -0.231 N 
HETATM   84  H   UNK N   1      32.639  15.946   9.192  0.00  0.00     0.174 HD
ATOM     85  HN  UNK N   1      33.488  15.297  10.549  1.00  0.00     0.174 HD
HETATM   86  C   UNK N   1      35.826  15.577  11.232  0.00  0.00     0.165 C 
HETATM   87  H   UNK N   1      36.303  17.350  10.205  0.00  0.00     0.177 HD
HETATM   88  H   UNK N   1      34.932  18.571   8.640  0.00  0.00     0.177 HD
ENDBRANCH  79  80
ENDBRANCH  78  79
ENDBRANCH  77  78
ENDBRANCH  76  77
BRANCH  76  89
HETATM   89  C   UNK N   1      31.777  14.913   6.259  0.00  0.00     0.241 C 
HETATM   90  O   UNK N   1      31.710  14.768   7.470  0.00  0.00    -0.271 OA
HETATM   91  N   UNK N   1      32.240  13.886   5.513  0.00  0.00    -0.346 N 
HETATM   92  H   UNK N   1      32.521  13.065   5.976  0.00  0.00     0.163 HD
BRANCH  91  93
HETATM   93  C   UNK N   1      32.347  13.931   4.076  0.00  0.00     0.180 C 
BRANCH  93  94
HETATM   94  C   UNK N   1      32.060  12.552   3.456  0.00  0.00     0.075 C 
BRANCH  94  95
HETATM   95  C   UNK N   1      31.025  12.593   2.372  0.00  0.00    -0.028 A 
HETATM   96  C   UNK N   1      29.828  13.302   2.380  0.00  0.00     0.096 A 
HETATM   97  N   UNK N   1      29.169  13.094   1.211  0.00  0.00    -0.365 N 
HETATM   98  C   UNK N   1      29.947  12.268   0.487  0.00  0.00     0.042 A 
HETATM   99  H   UNK N   1      28.299  13.471   0.947  0.00  0.00     0.165 HD
HETATM  100  C   UNK N   1      31.084  11.941   1.167  0.00  0.00    -0.002 A 
HETATM  101  C   UNK N   1      29.687  11.782  -0.791  0.00  0.00     0.030 A 
HETATM  102  C   UNK N   1      32.053  11.102   0.622  0.00  0.00     0.014 A 
HETATM  103  C   UNK N   1      31.824  10.592  -0.669  0.00  0.00     0.001 A 
HETATM  104  C   UNK N   1      30.645  10.931  -1.374  0.00  0.00     0.002 A 
ENDBRANCH  94  95
ENDBRANCH  93  94
BRANCH  93 105
HETATM  105  C   UNK N   1      33.656  14.560   3.695  0.00  0.00     0.238 C 
HETATM  106  O   UNK N   1      34.653  14.400   4.379  0.00  0.00    -0.271 OA
HETATM  107  N   UNK N   1      33.730  15.310   2.577  0.00  0.00    -0.368 N 
HETATM  108  H   UNK N   1      33.049  15.802   2.066  0.00  0.00     0.159 HD
HETATM  109  H   UNK N   1      34.638  15.378   2.202  0.00  0.00     0.159 HD
ENDBRANCH  93 105
ENDBRANCH  91  93
ENDBRANCH  76  89
ENDBRANCH  74  76
ENDBRANCH  67  72
ENDBRANCH  64  67
ENDBRANCH  59  61
ENDBRANCH   1  57
TORSDOF 34
ENDMDL
MODEL 6
REMARK VINA RESULT:      -7.8      1.677      2.928
REMARK WARNING: 32 MAX_TORS EXCEEDED!!!
REMARK  34 active torsions:
REMARK  status: ('A' for Active; 'I' for Inactive)
REMARK    1  A    between atoms: C_2  and  C_3 
REMARK    2  A    between atoms: C_2  and  O_89 
REMARK    3  A    between atoms: C_3  and  C_4 
REMARK    4  A    between atoms: C_3  and  N_57 
REMARK       I    between atoms: C_4  and  N_6 
REMARK    5  A    between atoms: C_7  and  N_6 
REMARK    6  A    between atoms: C_7  and  C_8 
REMARK    7  A    between atoms: C_7  and  C_15 
REMARK    8  A    between atoms: C_8  and  C_9 
REMARK       I    between atoms: C_15  and  N_17 
REMARK    9  A    between atoms: N_17  and  N_18 
REMARK       I    between atoms: N_18  and  C_19 
REMARK       I    between atoms: C_19  and  N_21 
REMARK   10  A    between atoms: C_22  and  N_21 
REMARK   11  A    between atoms: C_22  and  C_23 
REMARK   12  A    between atoms: C_22  and  C_27 
REMARK   13  A    between atoms: C_23  and  C_24 
REMARK       I    between atoms: C_27  and  N_29 
REMARK   14  A    between atoms: C_30  and  N_29 
REMARK   15  A    between atoms: C_30  and  C_31 
REMARK   16  A    between atoms: C_30  and  C_40 
REMARK   17  A    between atoms: C_31  and  C_32 
REMARK   18  A    between atoms: C_32  and  C_33 
REMARK   19  A    between atoms: C_33  and  N_34 
REMARK       I    between atoms: N_34  and  C_35 
REMARK       I    between atoms: C_35  and  N_38 
REMARK       I    between atoms: C_40  and  N_42 
REMARK   20  A    between atoms: C_43  and  N_42 
REMARK   21  A    between atoms: C_43  and  C_44 
REMARK   22  A    between atoms: C_43  and  C_54 
REMARK   23  A    between atoms: C_44  and  C_45 
REMARK       I    between atoms: C_54  and  N_56 
REMARK       I    between atoms: N_57  and  C_58 
REMARK   24  A    between atoms: C_58  and  C_60 
REMARK   25  A    between atoms: C_60  and  C_61 
REMARK   26  A    between atoms: C_60  and  N_65 
REMARK   27  A    between atoms: C_61  and  C_62 
REMARK       I    between atoms: C_62  and  N_64 
REMARK       I    between atoms: N_65  and  C_66 
REMARK   28  A    between atoms: C_68  and  C_66 
REMARK   29  A    between atoms: C_70  and  O_88 
REMARK       I    between atoms: N_72  and  C_73 
REMARK   30  A    between atoms: C_73  and  C_75 
REMARK   31  A    between atoms: C_75  and  C_76 
REMARK   32  A    between atoms: C_75  and  N_84 
REMARK   33  A    between atoms: C_76  and  C_77 
REMARK   34  A    between atoms: C_80  and  O_83 
REMARK       I    between atoms: N_84  and  C_85 
ROOT
HETATM    1  C   UNK N   1      24.101  17.589   4.892  0.00  0.00     0.182 C 
ENDROOT
BRANCH   1   2
HETATM    2  N   UNK N   1      23.138  18.003   5.890  0.00  0.00    -0.346 N 
HETATM    3  C   UNK N   1      21.812  18.207   5.657  0.00  0.00     0.243 C 
HETATM    4  O   UNK N   1      21.101  18.542   6.589  0.00  0.00    -0.271 OA
HETATM    5  H   UNK N   1      23.466  18.149   6.806  0.00  0.00     0.163 HD
BRANCH   3   6
HETATM    6  C   UNK N   1      21.168  18.039   4.290  0.00  0.00     0.205 C 
BRANCH   6   7
HETATM    7  C   UNK N   1      20.615  19.396   3.833  0.00  0.00     0.146 C 
HETATM    8  C   UNK N   1      19.635  19.227   2.688  0.00  0.00     0.042 C 
BRANCH   7   9
HETATM    9  O   UNK N   1      21.647  20.241   3.421  0.00  0.00    -0.393 OA
HETATM   10  H   UNK N   1      22.425  20.811   3.316  0.00  0.00     0.210 HD
ENDBRANCH   7   9
ENDBRANCH   6   7
BRANCH   6  11
HETATM   11  N   UNK N   1      20.095  17.064   4.299  0.00  0.00    -0.344 N 
HETATM   12  C   UNK N   1      20.127  15.825   3.738  0.00  0.00     0.241 C 
HETATM   13  O   UNK N   1      19.175  15.084   3.910  0.00  0.00    -0.271 OA
HETATM   14  H   UNK N   1      19.263  17.323   4.757  0.00  0.00     0.163 HD
BRANCH  12  15
HETATM   15  C   UNK N   1      21.249  15.331   2.870  0.00  0.00     0.185 C 
BRANCH  15  16
HETATM   16  C   UNK N   1      21.443  15.973   1.502  0.00  0.00     0.137 C 
BRANCH  16  17
HETATM   17  C   UNK N   1      20.150  16.014   0.757  0.00  0.00     0.217 C 
HETATM   18  O   UNK N   1      19.912  16.945   0.006  0.00  0.00    -0.274 OA
HETATM   19  N   UNK N   1      19.241  15.035   0.921  0.00  0.00    -0.370 N 
HETATM   20  H   UNK N   1      18.323  15.148   0.585  0.00  0.00     0.159 HD
HETATM   21  H   UNK N   1      19.496  14.201   1.378  0.00  0.00     0.159 HD
ENDBRANCH  16  17
ENDBRANCH  15  16
BRANCH  15  22
HETATM   22  N   UNK N   1      21.392  13.897   2.965  0.00  0.00    -0.346 N 
HETATM   23  C   UNK N   1      22.426  13.165   3.453  0.00  0.00     0.241 C 
HETATM   24  O   UNK N   1      23.454  13.690   3.854  0.00  0.00    -0.271 OA
HETATM   25  H   UNK N   1      20.628  13.374   2.628  0.00  0.00     0.163 HD
BRANCH  23  26
HETATM   26  C   UNK N   1      22.229  11.684   3.580  0.00  0.00     0.181 C 
HETATM   27  C   UNK N   1      22.309  11.071   2.188  0.00  0.00     0.068 C 
HETATM   28  C   UNK N   1      21.004  10.308   1.971  0.00  0.00     0.138 C 
HETATM   29  C   UNK N   1      20.030  10.857   2.999  0.00  0.00     0.158 C 
HETATM   30  N   UNK N   1      20.865  11.464   3.995  0.00  0.00    -0.334 N 
HETATM   31  C   UNK N   1      20.389  11.820   5.223  0.00  0.00     0.243 C 
HETATM   32  O   UNK N   1      19.205  11.669   5.493  0.00  0.00    -0.271 OA
BRANCH  28  33
HETATM   33  O   UNK N   1      21.223   8.957   2.244  0.00  0.00    -0.394 OA
HETATM   34  H   UNK N   1      22.034   8.634   2.666  0.00  0.00     0.210 HD
ENDBRANCH  28  33
BRANCH  31  35
HETATM   35  C   UNK N   1      21.334  12.305   6.294  0.00  0.00     0.181 C 
BRANCH  35  36
HETATM   36  C   UNK N   1      22.394  11.329   6.830  0.00  0.00     0.073 C 
BRANCH  36  37
HETATM   37  C   UNK N   1      23.268  11.926   7.893  0.00  0.00    -0.056 A 
HETATM   38  C   UNK N   1      24.293  12.822   7.550  0.00  0.00     0.010 A 
HETATM   39  C   UNK N   1      25.121  13.355   8.540  0.00  0.00     0.037 A 
HETATM   40  C   UNK N   1      24.925  13.002   9.878  0.00  0.00     0.065 A 
HETATM   41  C   UNK N   1      23.893  12.124  10.225  0.00  0.00     0.037 A 
HETATM   42  C   UNK N   1      23.065  11.589   9.234  0.00  0.00     0.010 A 
BRANCH  40  43
HETATM   43  O   UNK N   1      25.725  13.507  10.829  0.00  0.00    -0.361 OA
HETATM   44  H   UNK N   1      26.537  13.133  11.110  0.00  0.00     0.217 HD
ENDBRANCH  40  43
ENDBRANCH  36  37
ENDBRANCH  35  36
BRANCH  35  45
HETATM   45  N   UNK N   1      20.800  13.264   7.241  0.00  0.00    -0.348 N 
HETATM   46  C   UNK N   1      21.071  14.593   7.216  0.00  0.00     0.214 C 
HETATM   47  O   UNK N   1      21.820  15.067   6.377  0.00  0.00    -0.274 OA
HETATM   48  C   UNK N   1      20.434  15.490   8.221  0.00  0.00     0.117 C 
HETATM   49  H   UNK N   1      20.202  12.929   7.947  0.00  0.00     0.163 HD
ENDBRANCH  35  45
ENDBRANCH  31  35
ENDBRANCH  23  26
ENDBRANCH  15  22
ENDBRANCH  12  15
ENDBRANCH   6  11
ENDBRANCH   3   6
ENDBRANCH   1   2
BRANCH   1  50
HETATM   50  C   UNK N   1      24.746  18.702   4.047  0.00  0.00     0.073 C 
BRANCH  50  51
HETATM   51  C   UNK N   1      25.900  19.494   4.606  0.00  0.00    -0.056 A 
HETATM   52  C   UNK N   1      25.646  20.370   5.667  0.00  0.00     0.007 A 
HETATM   53  C   UNK N   1      26.684  21.118   6.233  0.00  0.00     0.001 A 
HETATM   54  C   UNK N   1      27.986  20.990   5.743  0.00  0.00     0.000 A 
HETATM   55  C   UNK N   1      28.250  20.110   4.690  0.00  0.00     0.001 A 
HETATM   56  C   UNK N   1      27.212  19.362   4.127  0.00  0.00     0.007 A 
ENDBRANCH  50  51
ENDBRANCH   1  50
BRANCH   1  57
HETATM   57  C   UNK N   1      24.930  16.351   5.170  0.00  0.00     0.259 C 
HETATM   58  O   UNK N   1      25.074  16.006   6.332  0.00  0.00    -0.269 OA
HETATM   59  N   UNK N   1      25.546  15.627   4.194  0.00  0.00    -0.264 N 
HETATM   60  H   UNK N   1      26.067  14.834   4.452  0.00  0.00     0.190 HD
BRANCH  59  61
HETATM   61  N   UNK N   1      25.466  15.962   2.862  0.00  0.00    -0.249 N 
HETATM   62  C   UNK N   1      26.147  15.320   1.872  0.00  0.00     0.335 C 
HETATM   63  O   UNK N   1      25.861  15.572   0.714  0.00  0.00    -0.246 OA
HETATM   64  N   UNK N   1      27.117  14.396   2.114  0.00  0.00    -0.329 N 
HETATM   65  H   UNK N   1      27.420  13.853   1.350  0.00  0.00     0.165 HD
HETATM   66  H   UNK N   1      24.881  16.712   2.608  0.00  0.00     0.192 HD
BRANCH  64  67
HETATM   67  C   UNK N   1      27.738  14.145   3.393  0.00  0.00     0.178 C 
BRANCH  67  68
HETATM   68  C   UNK N   1      28.135  12.672   3.587  0.00  0.00     0.038 C 
BRANCH  68  69
HETATM   69  C   UNK N   1      27.461  11.853   4.696  0.00  0.00    -0.020 C 
HETATM   70  C   UNK N   1      28.188  10.529   4.810  0.00  0.00     0.009 C 
HETATM   71  C   UNK N   1      25.991  11.565   4.475  0.00  0.00     0.009 C 
ENDBRANCH  68  69
ENDBRANCH  67  68
BRANCH  67  72
HETATM   72  C   UNK N   1      28.955  14.992   3.519  0.00  0.00     0.241 C 
HETATM   73  O   UNK N   1      29.495  15.421   2.512  0.00  0.00    -0.271 OA
HETATM   74  N   UNK N   1      29.389  15.340   4.759  0.00  0.00    -0.346 N 
HETATM   75  H   UNK N   1      28.969  14.887   5.525  0.00  0.00     0.163 HD
BRANCH  74  76
HETATM   76  C   UNK N   1      30.414  16.317   5.053  0.00  0.00     0.176 C 
BRANCH  76  77
HETATM   77  C   UNK N   1      30.867  17.142   3.834  0.00  0.00     0.036 C 
BRANCH  77  78
HETATM   78  C   UNK N   1      32.339  17.522   3.770  0.00  0.00     0.023 C 
BRANCH  78  79
HETATM   79  C   UNK N   1      33.209  16.352   3.352  0.00  0.00     0.138 C 
BRANCH  79  80
HETATM   80  N   UNK N   1      32.443  15.387   2.606  0.00  0.00    -0.227 N 
HETATM   81  C   UNK N   1      32.625  13.993   2.791  0.00  0.00     0.667 C 
HETATM   82  N   UNK N   1      33.569  13.555   3.545  0.00  0.00    -0.235 N 
HETATM   83  N   UNK N   1      31.727  13.088   2.168  0.00  0.00    -0.231 N 
HETATM   84  H   UNK N   1      34.104  14.157   4.110  0.00  0.00     0.174 HD
ATOM     85  HN  UNK N   1      33.772  12.555   3.557  1.00  0.00     0.174 HD
HETATM   86  C   UNK N   1      31.815  11.665   2.378  0.00  0.00     0.165 C 
HETATM   87  H   UNK N   1      31.024  13.442   1.576  0.00  0.00     0.177 HD
HETATM   88  H   UNK N   1      31.778  15.703   1.953  0.00  0.00     0.177 HD
ENDBRANCH  79  80
ENDBRANCH  78  79
ENDBRANCH  77  78
ENDBRANCH  76  77
BRANCH  76  89
HETATM   89  C   UNK N   1      30.148  17.032   6.366  0.00  0.00     0.241 C 
HETATM   90  O   UNK N   1      29.048  17.518   6.578  0.00  0.00    -0.271 OA
HETATM   91  N   UNK N   1      31.077  17.089   7.347  0.00  0.00    -0.346 N 
HETATM   92  H   UNK N   1      30.835  17.533   8.191  0.00  0.00     0.163 HD
BRANCH  91  93
HETATM   93  C   UNK N   1      32.402  16.535   7.222  0.00  0.00     0.180 C 
BRANCH  93  94
HETATM   94  C   UNK N   1      32.578  15.309   8.136  0.00  0.00     0.075 C 
BRANCH  94  95
HETATM   95  C   UNK N   1      33.897  14.619   7.954  0.00  0.00    -0.028 A 
HETATM   96  C   UNK N   1      34.267  13.775   6.913  0.00  0.00     0.096 A 
HETATM   97  N   UNK N   1      35.546  13.359   7.098  0.00  0.00    -0.365 N 
HETATM   98  C   UNK N   1      35.965  13.938   8.238  0.00  0.00     0.042 A 
HETATM   99  H   UNK N   1      36.062  12.756   6.516  0.00  0.00     0.165 HD
HETATM  100  C   UNK N   1      34.982  14.710   8.788  0.00  0.00    -0.002 A 
HETATM  101  C   UNK N   1      37.219  13.812   8.828  0.00  0.00     0.030 A 
HETATM  102  C   UNK N   1      35.177  15.419   9.971  0.00  0.00     0.014 A 
HETATM  103  C   UNK N   1      36.434  15.316  10.594  0.00  0.00     0.001 A 
HETATM  104  C   UNK N   1      37.452  14.516  10.025  0.00  0.00     0.002 A 
ENDBRANCH  94  95
ENDBRANCH  93  94
BRANCH  93 105
HETATM  105  C   UNK N   1      33.415  17.630   7.392  0.00  0.00     0.238 C 
HETATM  106  O   UNK N   1      34.228  17.876   6.516  0.00  0.00    -0.271 OA
HETATM  107  N   UNK N   1      33.422  18.354   8.528  0.00  0.00    -0.368 N 
HETATM  108  H   UNK N   1      33.095  18.162   9.437  0.00  0.00     0.159 HD
HETATM  109  H   UNK N   1      33.833  19.244   8.432  0.00  0.00     0.159 HD
ENDBRANCH  93 105
ENDBRANCH  91  93
ENDBRANCH  76  89
ENDBRANCH  74  76
ENDBRANCH  67  72
ENDBRANCH  64  67
ENDBRANCH  59  61
ENDBRANCH   1  57
TORSDOF 34
ENDMDL
MODEL 7
REMARK VINA RESULT:      -7.6      2.669      7.067
REMARK WARNING: 32 MAX_TORS EXCEEDED!!!
REMARK  34 active torsions:
REMARK  status: ('A' for Active; 'I' for Inactive)
REMARK    1  A    between atoms: C_2  and  C_3 
REMARK    2  A    between atoms: C_2  and  O_89 
REMARK    3  A    between atoms: C_3  and  C_4 
REMARK    4  A    between atoms: C_3  and  N_57 
REMARK       I    between atoms: C_4  and  N_6 
REMARK    5  A    between atoms: C_7  and  N_6 
REMARK    6  A    between atoms: C_7  and  C_8 
REMARK    7  A    between atoms: C_7  and  C_15 
REMARK    8  A    between atoms: C_8  and  C_9 
REMARK       I    between atoms: C_15  and  N_17 
REMARK    9  A    between atoms: N_17  and  N_18 
REMARK       I    between atoms: N_18  and  C_19 
REMARK       I    between atoms: C_19  and  N_21 
REMARK   10  A    between atoms: C_22  and  N_21 
REMARK   11  A    between atoms: C_22  and  C_23 
REMARK   12  A    between atoms: C_22  and  C_27 
REMARK   13  A    between atoms: C_23  and  C_24 
REMARK       I    between atoms: C_27  and  N_29 
REMARK   14  A    between atoms: C_30  and  N_29 
REMARK   15  A    between atoms: C_30  and  C_31 
REMARK   16  A    between atoms: C_30  and  C_40 
REMARK   17  A    between atoms: C_31  and  C_32 
REMARK   18  A    between atoms: C_32  and  C_33 
REMARK   19  A    between atoms: C_33  and  N_34 
REMARK       I    between atoms: N_34  and  C_35 
REMARK       I    between atoms: C_35  and  N_38 
REMARK       I    between atoms: C_40  and  N_42 
REMARK   20  A    between atoms: C_43  and  N_42 
REMARK   21  A    between atoms: C_43  and  C_44 
REMARK   22  A    between atoms: C_43  and  C_54 
REMARK   23  A    between atoms: C_44  and  C_45 
REMARK       I    between atoms: C_54  and  N_56 
REMARK       I    between atoms: N_57  and  C_58 
REMARK   24  A    between atoms: C_58  and  C_60 
REMARK   25  A    between atoms: C_60  and  C_61 
REMARK   26  A    between atoms: C_60  and  N_65 
REMARK   27  A    between atoms: C_61  and  C_62 
REMARK       I    between atoms: C_62  and  N_64 
REMARK       I    between atoms: N_65  and  C_66 
REMARK   28  A    between atoms: C_68  and  C_66 
REMARK   29  A    between atoms: C_70  and  O_88 
REMARK       I    between atoms: N_72  and  C_73 
REMARK   30  A    between atoms: C_73  and  C_75 
REMARK   31  A    between atoms: C_75  and  C_76 
REMARK   32  A    between atoms: C_75  and  N_84 
REMARK   33  A    between atoms: C_76  and  C_77 
REMARK   34  A    between atoms: C_80  and  O_83 
REMARK       I    between atoms: N_84  and  C_85 
ROOT
HETATM    1  C   UNK N   1      26.530  13.324   4.344  0.00  0.00     0.182 C 
ENDROOT
BRANCH   1   2
HETATM    2  N   UNK N   1      26.288  14.295   3.299  0.00  0.00    -0.346 N 
HETATM    3  C   UNK N   1      25.337  14.178   2.331  0.00  0.00     0.243 C 
HETATM    4  O   UNK N   1      25.224  15.076   1.513  0.00  0.00    -0.271 OA
HETATM    5  H   UNK N   1      26.853  15.100   3.286  0.00  0.00     0.163 HD
BRANCH   3   6
HETATM    6  C   UNK N   1      24.404  12.983   2.215  0.00  0.00     0.205 C 
BRANCH   6   7
HETATM    7  C   UNK N   1      24.968  12.015   1.167  0.00  0.00     0.146 C 
HETATM    8  C   UNK N   1      23.946  11.728   0.083  0.00  0.00     0.042 C 
BRANCH   7   9
HETATM    9  O   UNK N   1      25.349  10.808   1.757  0.00  0.00    -0.393 OA
HETATM   10  H   UNK N   1      25.698  10.082   2.297  0.00  0.00     0.210 HD
ENDBRANCH   7   9
ENDBRANCH   6   7
BRANCH   6  11
HETATM   11  N   UNK N   1      23.058  13.366   1.837  0.00  0.00    -0.344 N 
HETATM   12  C   UNK N   1      21.963  13.360   2.644  0.00  0.00     0.241 C 
HETATM   13  O   UNK N   1      20.914  13.798   2.203  0.00  0.00    -0.271 OA
HETATM   14  H   UNK N   1      22.924  13.659   0.908  0.00  0.00     0.163 HD
BRANCH  12  15
HETATM   15  C   UNK N   1      21.953  12.793   4.036  0.00  0.00     0.185 C 
BRANCH  15  16
HETATM   16  C   UNK N   1      21.241  11.468   4.273  0.00  0.00     0.137 C 
BRANCH  16  17
HETATM   17  C   UNK N   1      21.816  10.403   3.399  0.00  0.00     0.217 C 
HETATM   18  O   UNK N   1      21.146   9.931   2.496  0.00  0.00    -0.274 OA
HETATM   19  N   UNK N   1      23.065   9.951   3.613  0.00  0.00    -0.370 N 
HETATM   20  H   UNK N   1      23.379   9.129   3.170  0.00  0.00     0.159 HD
HETATM   21  H   UNK N   1      23.669  10.444   4.215  0.00  0.00     0.159 HD
ENDBRANCH  16  17
ENDBRANCH  15  16
BRANCH  15  22
HETATM   22  N   UNK N   1      21.783  13.834   5.023  0.00  0.00    -0.346 N 
HETATM   23  C   UNK N   1      22.501  14.972   5.207  0.00  0.00     0.241 C 
HETATM   24  O   UNK N   1      23.481  15.232   4.525  0.00  0.00    -0.271 OA
HETATM   25  H   UNK N   1      21.039  13.699   5.654  0.00  0.00     0.163 HD
BRANCH  23  26
HETATM   26  C   UNK N   1      21.992  15.957   6.216  0.00  0.00     0.181 C 
HETATM   27  C   UNK N   1      22.089  15.321   7.596  0.00  0.00     0.068 C 
HETATM   28  C   UNK N   1      20.684  15.362   8.195  0.00  0.00     0.138 C 
HETATM   29  C   UNK N   1      19.743  15.577   7.024  0.00  0.00     0.158 C 
HETATM   30  N   UNK N   1      20.576  16.116   5.988  0.00  0.00    -0.334 N 
HETATM   31  C   UNK N   1      20.058  16.708   4.873  0.00  0.00     0.243 C 
HETATM   32  O   UNK N   1      18.848  16.753   4.705  0.00  0.00    -0.271 OA
BRANCH  28  33
HETATM   33  O   UNK N   1      20.592  16.462   9.047  0.00  0.00    -0.394 OA
HETATM   34  H   UNK N   1      20.392  16.376   9.992  0.00  0.00     0.210 HD
ENDBRANCH  28  33
BRANCH  31  35
HETATM   35  C   UNK N   1      20.966  17.403   3.890  0.00  0.00     0.181 C 
BRANCH  35  36
HETATM   36  C   UNK N   1      21.273  18.895   4.106  0.00  0.00     0.073 C 
BRANCH  36  37
HETATM   37  C   UNK N   1      22.713  19.244   3.874  0.00  0.00    -0.056 A 
HETATM   38  C   UNK N   1      23.726  18.615   4.615  0.00  0.00     0.010 A 
HETATM   39  C   UNK N   1      25.063  18.963   4.415  0.00  0.00     0.037 A 
HETATM   40  C   UNK N   1      25.396  19.935   3.468  0.00  0.00     0.065 A 
HETATM   41  C   UNK N   1      24.392  20.552   2.716  0.00  0.00     0.037 A 
HETATM   42  C   UNK N   1      23.053  20.204   2.916  0.00  0.00     0.010 A 
BRANCH  40  43
HETATM   43  O   UNK N   1      26.681  20.276   3.281  0.00  0.00    -0.361 OA
HETATM   44  H   UNK N   1      27.263  19.879   2.663  0.00  0.00     0.217 HD
ENDBRANCH  40  43
ENDBRANCH  36  37
ENDBRANCH  35  36
BRANCH  35  45
HETATM   45  N   UNK N   1      20.897  16.950   2.515  0.00  0.00    -0.348 N 
HETATM   46  C   UNK N   1      20.041  17.450   1.588  0.00  0.00     0.214 C 
HETATM   47  O   UNK N   1      19.243  18.326   1.879  0.00  0.00    -0.274 OA
HETATM   48  C   UNK N   1      20.086  16.931   0.193  0.00  0.00     0.117 C 
HETATM   49  H   UNK N   1      21.511  16.233   2.235  0.00  0.00     0.163 HD
ENDBRANCH  35  45
ENDBRANCH  31  35
ENDBRANCH  23  26
ENDBRANCH  15  22
ENDBRANCH  12  15
ENDBRANCH   6  11
ENDBRANCH   3   6
ENDBRANCH   1   2
BRANCH   1  50
HETATM   50  C   UNK N   1      25.314  12.524   4.843  0.00  0.00     0.073 C 
BRANCH  50  51
HETATM   51  C   UNK N   1      24.949  12.548   6.305  0.00  0.00    -0.056 A 
HETATM   52  C   UNK N   1      24.106  11.542   6.790  0.00  0.00     0.007 A 
HETATM   53  C   UNK N   1      23.746  11.509   8.141  0.00  0.00     0.001 A 
HETATM   54  C   UNK N   1      24.234  12.480   9.019  0.00  0.00     0.000 A 
HETATM   55  C   UNK N   1      25.086  13.482   8.545  0.00  0.00     0.001 A 
HETATM   56  C   UNK N   1      25.444  13.513   7.194  0.00  0.00     0.007 A 
ENDBRANCH  50  51
ENDBRANCH   1  50
BRANCH   1  57
HETATM   57  C   UNK N   1      27.884  12.641   4.384  0.00  0.00     0.259 C 
HETATM   58  O   UNK N   1      27.929  11.480   4.759  0.00  0.00    -0.269 OA
HETATM   59  N   UNK N   1      29.047  13.266   4.054  0.00  0.00    -0.264 N 
HETATM   60  H   UNK N   1      29.888  12.757   4.104  0.00  0.00     0.190 HD
BRANCH  59  61
HETATM   61  N   UNK N   1      29.094  14.582   3.654  0.00  0.00    -0.249 N 
HETATM   62  C   UNK N   1      30.192  15.174   3.107  0.00  0.00     0.335 C 
HETATM   63  O   UNK N   1      30.068  16.284   2.617  0.00  0.00    -0.246 OA
HETATM   64  N   UNK N   1      31.416  14.579   3.065  0.00  0.00    -0.329 N 
HETATM   65  H   UNK N   1      32.099  14.997   2.491  0.00  0.00     0.165 HD
HETATM   66  H   UNK N   1      28.284  15.129   3.770  0.00  0.00     0.192 HD
BRANCH  64  67
HETATM   67  C   UNK N   1      31.797  13.389   3.788  0.00  0.00     0.178 C 
BRANCH  67  68
HETATM   68  C   UNK N   1      32.962  12.634   3.127  0.00  0.00     0.038 C 
BRANCH  68  69
HETATM   69  C   UNK N   1      33.560  13.172   1.820  0.00  0.00    -0.020 C 
HETATM   70  C   UNK N   1      33.808  11.997   0.898  0.00  0.00     0.009 C 
HETATM   71  C   UNK N   1      34.861  13.931   1.976  0.00  0.00     0.009 C 
ENDBRANCH  68  69
ENDBRANCH  67  68
BRANCH  67  72
HETATM   72  C   UNK N   1      32.191  13.765   5.172  0.00  0.00     0.241 C 
HETATM   73  O   UNK N   1      31.345  13.792   6.052  0.00  0.00    -0.271 OA
HETATM   74  N   UNK N   1      33.505  13.988   5.444  0.00  0.00    -0.346 N 
HETATM   75  H   UNK N   1      34.119  14.043   4.678  0.00  0.00     0.163 HD
BRANCH  74  76
HETATM   76  C   UNK N   1      34.079  14.152   6.762  0.00  0.00     0.176 C 
BRANCH  76  77
HETATM   77  C   UNK N   1      34.501  12.833   7.435  0.00  0.00     0.036 C 
BRANCH  77  78
HETATM   78  C   UNK N   1      35.789  12.856   8.246  0.00  0.00     0.023 C 
BRANCH  78  79
HETATM   79  C   UNK N   1      35.584  12.329   9.652  0.00  0.00     0.138 C 
BRANCH  79  80
HETATM   80  N   UNK N   1      36.360  13.088  10.599  0.00  0.00    -0.227 N 
HETATM   81  C   UNK N   1      35.938  13.251  11.944  0.00  0.00     0.667 C 
HETATM   82  N   UNK N   1      34.785  12.825  12.319  0.00  0.00    -0.235 N 
HETATM   83  N   UNK N   1      36.820  13.851  12.879  0.00  0.00    -0.231 N 
HETATM   84  H   UNK N   1      34.222  12.268  11.734  0.00  0.00     0.174 HD
ATOM     85  HN  UNK N   1      34.443  13.072  13.247  1.00  0.00     0.174 HD
HETATM   86  C   UNK N   1      36.478  13.976  14.273  0.00  0.00     0.165 C 
HETATM   87  H   UNK N   1      37.690  14.191  12.568  0.00  0.00     0.177 HD
HETATM   88  H   UNK N   1      37.203  13.503  10.307  0.00  0.00     0.177 HD
ENDBRANCH  79  80
ENDBRANCH  78  79
ENDBRANCH  77  78
ENDBRANCH  76  77
BRANCH  76  89
HETATM   89  C   UNK N   1      35.023  15.340   6.818  0.00  0.00     0.241 C 
HETATM   90  O   UNK N   1      35.962  15.404   6.039  0.00  0.00    -0.271 OA
HETATM   91  N   UNK N   1      34.817  16.374   7.663  0.00  0.00    -0.346 N 
HETATM   92  H   UNK N   1      35.441  17.134   7.629  0.00  0.00     0.163 HD
BRANCH  91  93
HETATM   93  C   UNK N   1      33.734  16.423   8.613  0.00  0.00     0.180 C 
BRANCH  93  94
HETATM   94  C   UNK N   1      32.869  17.678   8.402  0.00  0.00     0.075 C 
BRANCH  94  95
HETATM   95  C   UNK N   1      31.647  17.424   7.572  0.00  0.00    -0.028 A 
HETATM   96  C   UNK N   1      31.600  17.150   6.209  0.00  0.00     0.096 A 
HETATM   97  N   UNK N   1      30.310  16.967   5.827  0.00  0.00    -0.365 N 
HETATM   98  C   UNK N   1      29.567  17.122   6.937  0.00  0.00     0.042 A 
HETATM   99  H   UNK N   1      29.985  16.761   4.921  0.00  0.00     0.165 HD
HETATM  100  C   UNK N   1      30.350  17.405   8.019  0.00  0.00    -0.002 A 
HETATM  101  C   UNK N   1      28.182  17.016   7.039  0.00  0.00     0.030 A 
HETATM  102  C   UNK N   1      29.812  17.603   9.288  0.00  0.00     0.014 A 
HETATM  103  C   UNK N   1      28.415  17.503   9.427  0.00  0.00     0.001 A 
HETATM  104  C   UNK N   1      27.603  17.210   8.307  0.00  0.00     0.002 A 
ENDBRANCH  94  95
ENDBRANCH  93  94
BRANCH  93 105
HETATM  105  C   UNK N   1      34.279  16.227   9.998  0.00  0.00     0.238 C 
HETATM  106  O   UNK N   1      34.006  15.231  10.647  0.00  0.00    -0.271 OA
HETATM  107  N   UNK N   1      35.087  17.165  10.530  0.00  0.00    -0.368 N 
HETATM  108  H   UNK N   1      35.198  18.125  10.342  0.00  0.00     0.159 HD
HETATM  109  H   UNK N   1      35.678  16.827  11.241  0.00  0.00     0.159 HD
ENDBRANCH  93 105
ENDBRANCH  91  93
ENDBRANCH  76  89
ENDBRANCH  74  76
ENDBRANCH  67  72
ENDBRANCH  64  67
ENDBRANCH  59  61
ENDBRANCH   1  57
TORSDOF 34
ENDMDL
MODEL 8
REMARK VINA RESULT:      -7.5      3.397      5.394
REMARK WARNING: 32 MAX_TORS EXCEEDED!!!
REMARK  34 active torsions:
REMARK  status: ('A' for Active; 'I' for Inactive)
REMARK    1  A    between atoms: C_2  and  C_3 
REMARK    2  A    between atoms: C_2  and  O_89 
REMARK    3  A    between atoms: C_3  and  C_4 
REMARK    4  A    between atoms: C_3  and  N_57 
REMARK       I    between atoms: C_4  and  N_6 
REMARK    5  A    between atoms: C_7  and  N_6 
REMARK    6  A    between atoms: C_7  and  C_8 
REMARK    7  A    between atoms: C_7  and  C_15 
REMARK    8  A    between atoms: C_8  and  C_9 
REMARK       I    between atoms: C_15  and  N_17 
REMARK    9  A    between atoms: N_17  and  N_18 
REMARK       I    between atoms: N_18  and  C_19 
REMARK       I    between atoms: C_19  and  N_21 
REMARK   10  A    between atoms: C_22  and  N_21 
REMARK   11  A    between atoms: C_22  and  C_23 
REMARK   12  A    between atoms: C_22  and  C_27 
REMARK   13  A    between atoms: C_23  and  C_24 
REMARK       I    between atoms: C_27  and  N_29 
REMARK   14  A    between atoms: C_30  and  N_29 
REMARK   15  A    between atoms: C_30  and  C_31 
REMARK   16  A    between atoms: C_30  and  C_40 
REMARK   17  A    between atoms: C_31  and  C_32 
REMARK   18  A    between atoms: C_32  and  C_33 
REMARK   19  A    between atoms: C_33  and  N_34 
REMARK       I    between atoms: N_34  and  C_35 
REMARK       I    between atoms: C_35  and  N_38 
REMARK       I    between atoms: C_40  and  N_42 
REMARK   20  A    between atoms: C_43  and  N_42 
REMARK   21  A    between atoms: C_43  and  C_44 
REMARK   22  A    between atoms: C_43  and  C_54 
REMARK   23  A    between atoms: C_44  and  C_45 
REMARK       I    between atoms: C_54  and  N_56 
REMARK       I    between atoms: N_57  and  C_58 
REMARK   24  A    between atoms: C_58  and  C_60 
REMARK   25  A    between atoms: C_60  and  C_61 
REMARK   26  A    between atoms: C_60  and  N_65 
REMARK   27  A    between atoms: C_61  and  C_62 
REMARK       I    between atoms: C_62  and  N_64 
REMARK       I    between atoms: N_65  and  C_66 
REMARK   28  A    between atoms: C_68  and  C_66 
REMARK   29  A    between atoms: C_70  and  O_88 
REMARK       I    between atoms: N_72  and  C_73 
REMARK   30  A    between atoms: C_73  and  C_75 
REMARK   31  A    between atoms: C_75  and  C_76 
REMARK   32  A    between atoms: C_75  and  N_84 
REMARK   33  A    between atoms: C_76  and  C_77 
REMARK   34  A    between atoms: C_80  and  O_83 
REMARK       I    between atoms: N_84  and  C_85 
ROOT
HETATM    1  C   UNK N   1      25.867  17.017   4.622  0.00  0.00     0.182 C 
ENDROOT
BRANCH   1   2
HETATM    2  N   UNK N   1      24.755  17.069   5.547  0.00  0.00    -0.346 N 
HETATM    3  C   UNK N   1      23.475  17.391   5.210  0.00  0.00     0.243 C 
HETATM    4  O   UNK N   1      22.623  17.385   6.082  0.00  0.00    -0.271 OA
HETATM    5  H   UNK N   1      24.936  16.856   6.490  0.00  0.00     0.163 HD
BRANCH   3   6
HETATM    6  C   UNK N   1      23.050  17.760   3.797  0.00  0.00     0.205 C 
BRANCH   6   7
HETATM    7  C   UNK N   1      22.521  19.201   3.800  0.00  0.00     0.146 C 
HETATM    8  C   UNK N   1      21.115  19.266   3.234  0.00  0.00     0.042 C 
BRANCH   7   9
HETATM    9  O   UNK N   1      23.348  20.036   3.047  0.00  0.00    -0.393 OA
HETATM   10  H   UNK N   1      23.867  20.752   2.647  0.00  0.00     0.210 HD
ENDBRANCH   7   9
ENDBRANCH   6   7
BRANCH   6  11
HETATM   11  N   UNK N   1      22.026  16.876   3.278  0.00  0.00    -0.344 N 
HETATM   12  C   UNK N   1      22.147  15.536   3.074  0.00  0.00     0.241 C 
HETATM   13  O   UNK N   1      21.164  14.911   2.716  0.00  0.00    -0.271 OA
HETATM   14  H   UNK N   1      21.159  17.283   3.053  0.00  0.00     0.163 HD
BRANCH  12  15
HETATM   15  C   UNK N   1      23.441  14.783   3.211  0.00  0.00     0.185 C 
BRANCH  15  16
HETATM   16  C   UNK N   1      24.381  14.734   2.013  0.00  0.00     0.137 C 
BRANCH  16  17
HETATM   17  C   UNK N   1      24.175  13.474   1.240  0.00  0.00     0.217 C 
HETATM   18  O   UNK N   1      24.702  12.440   1.613  0.00  0.00    -0.274 OA
HETATM   19  N   UNK N   1      23.420  13.478   0.125  0.00  0.00    -0.370 N 
HETATM   20  H   UNK N   1      23.434  12.706  -0.486  0.00  0.00     0.159 HD
HETATM   21  H   UNK N   1      22.852  14.255  -0.080  0.00  0.00     0.159 HD
ENDBRANCH  16  17
ENDBRANCH  15  16
BRANCH  15  22
HETATM   22  N   UNK N   1      23.262  13.571   3.976  0.00  0.00    -0.346 N 
HETATM   23  C   UNK N   1      23.451  13.354   5.303  0.00  0.00     0.241 C 
HETATM   24  O   UNK N   1      23.876  14.227   6.044  0.00  0.00    -0.271 OA
HETATM   25  H   UNK N   1      22.958  12.789   3.460  0.00  0.00     0.163 HD
BRANCH  23  26
HETATM   26  C   UNK N   1      23.026  12.027   5.856  0.00  0.00     0.181 C 
HETATM   27  C   UNK N   1      23.684  10.931   5.028  0.00  0.00     0.068 C 
HETATM   28  C   UNK N   1      22.557  10.047   4.499  0.00  0.00     0.138 C 
HETATM   29  C   UNK N   1      21.290  10.875   4.624  0.00  0.00     0.158 C 
HETATM   30  N   UNK N   1      21.615  11.882   5.593  0.00  0.00    -0.334 N 
HETATM   31  C   UNK N   1      20.658  12.648   6.193  0.00  0.00     0.243 C 
HETATM   32  O   UNK N   1      19.483  12.524   5.879  0.00  0.00    -0.271 OA
BRANCH  28  33
HETATM   33  O   UNK N   1      22.439   8.928   5.323  0.00  0.00    -0.394 OA
HETATM   34  H   UNK N   1      22.365   8.026   4.973  0.00  0.00     0.210 HD
ENDBRANCH  28  33
BRANCH  31  35
HETATM   35  C   UNK N   1      21.027  13.579   7.321  0.00  0.00     0.181 C 
BRANCH  35  36
HETATM   36  C   UNK N   1      20.717  13.142   8.762  0.00  0.00     0.073 C 
BRANCH  36  37
HETATM   37  C   UNK N   1      21.942  12.790   9.553  0.00  0.00    -0.056 A 
HETATM   38  C   UNK N   1      21.825  12.158  10.801  0.00  0.00     0.010 A 
HETATM   39  C   UNK N   1      22.966  11.856  11.546  0.00  0.00     0.037 A 
HETATM   40  C   UNK N   1      24.230  12.176  11.044  0.00  0.00     0.065 A 
HETATM   41  C   UNK N   1      24.352  12.789   9.794  0.00  0.00     0.037 A 
HETATM   42  C   UNK N   1      23.210  13.092   9.048  0.00  0.00     0.010 A 
BRANCH  40  43
HETATM   43  O   UNK N   1      25.328  11.893  11.763  0.00  0.00    -0.361 OA
HETATM   44  H   UNK N   1      25.895  12.525  12.159  0.00  0.00     0.217 HD
ENDBRANCH  40  43
ENDBRANCH  36  37
ENDBRANCH  35  36
BRANCH  35  45
HETATM   45  N   UNK N   1      20.936  14.999   7.042  0.00  0.00    -0.348 N 
HETATM   46  C   UNK N   1      20.045  15.837   7.630  0.00  0.00     0.214 C 
HETATM   47  O   UNK N   1      19.232  15.421   8.441  0.00  0.00    -0.274 OA
HETATM   48  C   UNK N   1      20.068  17.287   7.292  0.00  0.00     0.117 C 
HETATM   49  H   UNK N   1      21.561  15.380   6.383  0.00  0.00     0.163 HD
ENDBRANCH  35  45
ENDBRANCH  31  35
ENDBRANCH  23  26
ENDBRANCH  15  22
ENDBRANCH  12  15
ENDBRANCH   6  11
ENDBRANCH   3   6
ENDBRANCH   1   2
BRANCH   1  50
HETATM   50  C   UNK N   1      26.257  18.335   3.931  0.00  0.00     0.073 C 
BRANCH  50  51
HETATM   51  C   UNK N   1      26.735  19.502   4.756  0.00  0.00    -0.056 A 
HETATM   52  C   UNK N   1      25.802  20.163   5.564  0.00  0.00     0.007 A 
HETATM   53  C   UNK N   1      26.195  21.243   6.361  0.00  0.00     0.001 A 
HETATM   54  C   UNK N   1      27.527  21.666   6.360  0.00  0.00     0.000 A 
HETATM   55  C   UNK N   1      28.466  21.004   5.564  0.00  0.00     0.001 A 
HETATM   56  C   UNK N   1      28.072  19.924   4.769  0.00  0.00     0.007 A 
ENDBRANCH  50  51
ENDBRANCH   1  50
BRANCH   1  57
HETATM   57  C   UNK N   1      26.972  16.013   4.890  0.00  0.00     0.259 C 
HETATM   58  O   UNK N   1      27.229  15.198   4.019  0.00  0.00    -0.269 OA
HETATM   59  N   UNK N   1      27.663  15.956   6.062  0.00  0.00    -0.264 N 
HETATM   60  H   UNK N   1      28.367  15.276   6.162  0.00  0.00     0.190 HD
BRANCH  59  61
HETATM   61  N   UNK N   1      27.416  16.812   7.111  0.00  0.00    -0.249 N 
HETATM   62  C   UNK N   1      28.293  17.761   7.543  0.00  0.00     0.335 C 
HETATM   63  O   UNK N   1      27.902  18.586   8.351  0.00  0.00    -0.246 OA
HETATM   64  N   UNK N   1      29.578  17.844   7.102  0.00  0.00    -0.329 N 
HETATM   65  H   UNK N   1      30.077  18.663   7.324  0.00  0.00     0.165 HD
HETATM   66  H   UNK N   1      26.553  16.734   7.578  0.00  0.00     0.192 HD
BRANCH  64  67
HETATM   67  C   UNK N   1      30.270  16.833   6.337  0.00  0.00     0.178 C 
BRANCH  67  68
HETATM   68  C   UNK N   1      30.783  17.354   4.984  0.00  0.00     0.038 C 
BRANCH  68  69
HETATM   69  C   UNK N   1      31.066  16.355   3.854  0.00  0.00    -0.020 C 
HETATM   70  C   UNK N   1      32.412  16.696   3.250  0.00  0.00     0.009 C 
HETATM   71  C   UNK N   1      30.040  16.342   2.740  0.00  0.00     0.009 C 
ENDBRANCH  68  69
ENDBRANCH  67  68
BRANCH  67  72
HETATM   72  C   UNK N   1      31.426  16.330   7.128  0.00  0.00     0.241 C 
HETATM   73  O   UNK N   1      31.267  15.397   7.898  0.00  0.00    -0.271 OA
HETATM   74  N   UNK N   1      32.656  16.867   6.910  0.00  0.00    -0.346 N 
HETATM   75  H   UNK N   1      32.700  17.675   6.349  0.00  0.00     0.163 HD
BRANCH  74  76
HETATM   76  C   UNK N   1      33.905  16.358   7.430  0.00  0.00     0.176 C 
BRANCH  76  77
HETATM   77  C   UNK N   1      34.898  15.896   6.347  0.00  0.00     0.036 C 
BRANCH  77  78
HETATM   78  C   UNK N   1      34.609  14.561   5.675  0.00  0.00     0.023 C 
BRANCH  78  79
HETATM   79  C   UNK N   1      35.857  13.947   5.071  0.00  0.00     0.138 C 
BRANCH  79  80
HETATM   80  N   UNK N   1      37.041  14.559   5.616  0.00  0.00    -0.227 N 
HETATM   81  C   UNK N   1      38.301  13.909   5.570  0.00  0.00     0.667 C 
HETATM   82  N   UNK N   1      38.392  12.699   5.145  0.00  0.00    -0.235 N 
HETATM   83  N   UNK N   1      39.465  14.623   5.956  0.00  0.00    -0.231 N 
HETATM   84  H   UNK N   1      37.631  12.237   4.726  0.00  0.00     0.174 HD
ATOM     85  HN  UNK N   1      39.277  12.203   5.247  1.00  0.00     0.174 HD
HETATM   86  C   UNK N   1      40.780  14.042   5.859  0.00  0.00     0.165 C 
HETATM   87  H   UNK N   1      39.371  15.541   6.299  0.00  0.00     0.177 HD
HETATM   88  H   UNK N   1      36.975  15.449   6.032  0.00  0.00     0.177 HD
ENDBRANCH  79  80
ENDBRANCH  78  79
ENDBRANCH  77  78
ENDBRANCH  76  77
BRANCH  76  89
HETATM   89  C   UNK N   1      34.418  17.200   8.585  0.00  0.00     0.241 C 
HETATM   90  O   UNK N   1      34.336  18.417   8.528  0.00  0.00    -0.271 OA
HETATM   91  N   UNK N   1      34.903  16.640   9.715  0.00  0.00    -0.346 N 
HETATM   92  H   UNK N   1      35.186  17.236  10.445  0.00  0.00     0.163 HD
BRANCH  91  93
HETATM   93  C   UNK N   1      35.030  15.217   9.907  0.00  0.00     0.180 C 
BRANCH  93  94
HETATM   94  C   UNK N   1      34.418  14.783  11.251  0.00  0.00     0.075 C 
BRANCH  94  95
HETATM   95  C   UNK N   1      34.917  13.452  11.727  0.00  0.00    -0.028 A 
HETATM   96  C   UNK N   1      34.767  12.223  11.093  0.00  0.00     0.096 A 
HETATM   97  N   UNK N   1      35.367  11.254  11.832  0.00  0.00    -0.365 N 
HETATM   98  C   UNK N   1      35.884  11.873  12.908  0.00  0.00     0.042 A 
HETATM   99  H   UNK N   1      35.414  10.294  11.621  0.00  0.00     0.165 HD
HETATM  100  C   UNK N   1      35.625  13.213  12.877  0.00  0.00    -0.002 A 
HETATM  101  C   UNK N   1      36.603  11.286  13.946  0.00  0.00     0.030 A 
HETATM  102  C   UNK N   1      36.065  14.073  13.882  0.00  0.00     0.014 A 
HETATM  103  C   UNK N   1      36.795  13.513  14.946  0.00  0.00     0.001 A 
HETATM  104  C   UNK N   1      37.064  12.125  14.978  0.00  0.00     0.002 A 
ENDBRANCH  94  95
ENDBRANCH  93  94
BRANCH  93 105
HETATM  105  C   UNK N   1      36.456  14.810   9.675  0.00  0.00     0.238 C 
HETATM  106  O   UNK N   1      36.764  14.106   8.727  0.00  0.00    -0.271 OA
HETATM  107  N   UNK N   1      37.413  15.235  10.525  0.00  0.00    -0.368 N 
HETATM  108  H   UNK N   1      37.379  15.532  11.463  0.00  0.00     0.159 HD
HETATM  109  H   UNK N   1      38.316  15.250  10.134  0.00  0.00     0.159 HD
ENDBRANCH  93 105
ENDBRANCH  91  93
ENDBRANCH  76  89
ENDBRANCH  74  76
ENDBRANCH  67  72
ENDBRANCH  64  67
ENDBRANCH  59  61
ENDBRANCH   1  57
TORSDOF 34
ENDMDL
MODEL 9
REMARK VINA RESULT:      -7.5      1.668      2.331
REMARK WARNING: 32 MAX_TORS EXCEEDED!!!
REMARK  34 active torsions:
REMARK  status: ('A' for Active; 'I' for Inactive)
REMARK    1  A    between atoms: C_2  and  C_3 
REMARK    2  A    between atoms: C_2  and  O_89 
REMARK    3  A    between atoms: C_3  and  C_4 
REMARK    4  A    between atoms: C_3  and  N_57 
REMARK       I    between atoms: C_4  and  N_6 
REMARK    5  A    between atoms: C_7  and  N_6 
REMARK    6  A    between atoms: C_7  and  C_8 
REMARK    7  A    between atoms: C_7  and  C_15 
REMARK    8  A    between atoms: C_8  and  C_9 
REMARK       I    between atoms: C_15  and  N_17 
REMARK    9  A    between atoms: N_17  and  N_18 
REMARK       I    between atoms: N_18  and  C_19 
REMARK       I    between atoms: C_19  and  N_21 
REMARK   10  A    between atoms: C_22  and  N_21 
REMARK   11  A    between atoms: C_22  and  C_23 
REMARK   12  A    between atoms: C_22  and  C_27 
REMARK   13  A    between atoms: C_23  and  C_24 
REMARK       I    between atoms: C_27  and  N_29 
REMARK   14  A    between atoms: C_30  and  N_29 
REMARK   15  A    between atoms: C_30  and  C_31 
REMARK   16  A    between atoms: C_30  and  C_40 
REMARK   17  A    between atoms: C_31  and  C_32 
REMARK   18  A    between atoms: C_32  and  C_33 
REMARK   19  A    between atoms: C_33  and  N_34 
REMARK       I    between atoms: N_34  and  C_35 
REMARK       I    between atoms: C_35  and  N_38 
REMARK       I    between atoms: C_40  and  N_42 
REMARK   20  A    between atoms: C_43  and  N_42 
REMARK   21  A    between atoms: C_43  and  C_44 
REMARK   22  A    between atoms: C_43  and  C_54 
REMARK   23  A    between atoms: C_44  and  C_45 
REMARK       I    between atoms: C_54  and  N_56 
REMARK       I    between atoms: N_57  and  C_58 
REMARK   24  A    between atoms: C_58  and  C_60 
REMARK   25  A    between atoms: C_60  and  C_61 
REMARK   26  A    between atoms: C_60  and  N_65 
REMARK   27  A    between atoms: C_61  and  C_62 
REMARK       I    between atoms: C_62  and  N_64 
REMARK       I    between atoms: N_65  and  C_66 
REMARK   28  A    between atoms: C_68  and  C_66 
REMARK   29  A    between atoms: C_70  and  O_88 
REMARK       I    between atoms: N_72  and  C_73 
REMARK   30  A    between atoms: C_73  and  C_75 
REMARK   31  A    between atoms: C_75  and  C_76 
REMARK   32  A    between atoms: C_75  and  N_84 
REMARK   33  A    between atoms: C_76  and  C_77 
REMARK   34  A    between atoms: C_80  and  O_83 
REMARK       I    between atoms: N_84  and  C_85 
ROOT
HETATM    1  C   UNK N   1      24.066  17.629   4.612  0.00  0.00     0.182 C 
ENDROOT
BRANCH   1   2
HETATM    2  N   UNK N   1      23.080  18.112   5.556  0.00  0.00    -0.346 N 
HETATM    3  C   UNK N   1      21.750  18.243   5.296  0.00  0.00     0.243 C 
HETATM    4  O   UNK N   1      21.019  18.650   6.184  0.00  0.00    -0.271 OA
HETATM    5  H   UNK N   1      23.395  18.366   6.453  0.00  0.00     0.163 HD
BRANCH   3   6
HETATM    6  C   UNK N   1      21.124  17.907   3.951  0.00  0.00     0.205 C 
BRANCH   6   7
HETATM    7  C   UNK N   1      20.486  19.177   3.371  0.00  0.00     0.146 C 
HETATM    8  C   UNK N   1      20.604  19.204   1.859  0.00  0.00     0.042 C 
BRANCH   7   9
HETATM    9  O   UNK N   1      21.095  20.321   3.891  0.00  0.00    -0.393 OA
HETATM   10  H   UNK N   1      21.680  21.030   4.201  0.00  0.00     0.210 HD
ENDBRANCH   7   9
ENDBRANCH   6   7
BRANCH   6  11
HETATM   11  N   UNK N   1      20.116  16.870   4.054  0.00  0.00    -0.344 N 
HETATM   12  C   UNK N   1      20.183  15.626   3.508  0.00  0.00     0.241 C 
HETATM   13  O   UNK N   1      19.292  14.832   3.760  0.00  0.00    -0.271 OA
HETATM   14  H   UNK N   1      19.306  17.087   4.568  0.00  0.00     0.163 HD
BRANCH  12  15
HETATM   15  C   UNK N   1      21.266  15.184   2.565  0.00  0.00     0.185 C 
BRANCH  15  16
HETATM   16  C   UNK N   1      21.054  15.389   1.071  0.00  0.00     0.137 C 
BRANCH  16  17
HETATM   17  C   UNK N   1      19.598  15.507   0.762  0.00  0.00     0.217 C 
HETATM   18  O   UNK N   1      19.146  16.566   0.363  0.00  0.00    -0.274 OA
HETATM   19  N   UNK N   1      18.780  14.452   0.936  0.00  0.00    -0.370 N 
HETATM   20  H   UNK N   1      17.803  14.572   0.916  0.00  0.00     0.159 HD
HETATM   21  H   UNK N   1      19.161  13.556   1.083  0.00  0.00     0.159 HD
ENDBRANCH  16  17
ENDBRANCH  15  16
BRANCH  15  22
HETATM   22  N   UNK N   1      21.858  13.938   2.995  0.00  0.00    -0.346 N 
HETATM   23  C   UNK N   1      21.429  12.666   2.792  0.00  0.00     0.241 C 
HETATM   24  O   UNK N   1      20.379  12.424   2.215  0.00  0.00    -0.271 OA
HETATM   25  H   UNK N   1      22.693  14.024   3.509  0.00  0.00     0.163 HD
BRANCH  23  26
HETATM   26  C   UNK N   1      22.339  11.552   3.215  0.00  0.00     0.181 C 
HETATM   27  C   UNK N   1      22.515  10.606   2.035  0.00  0.00     0.068 C 
HETATM   28  C   UNK N   1      22.089   9.221   2.518  0.00  0.00     0.138 C 
HETATM   29  C   UNK N   1      21.260   9.458   3.768  0.00  0.00     0.158 C 
HETATM   30  N   UNK N   1      21.635  10.771   4.204  0.00  0.00    -0.334 N 
HETATM   31  C   UNK N   1      21.326  11.241   5.448  0.00  0.00     0.243 C 
HETATM   32  O   UNK N   1      20.669  10.556   6.219  0.00  0.00    -0.271 OA
BRANCH  28  33
HETATM   33  O   UNK N   1      23.229   8.499   2.872  0.00  0.00    -0.394 OA
HETATM   34  H   UNK N   1      23.949   8.319   2.248  0.00  0.00     0.210 HD
ENDBRANCH  28  33
BRANCH  31  35
HETATM   35  C   UNK N   1      21.879  12.561   5.921  0.00  0.00     0.181 C 
BRANCH  35  36
HETATM   36  C   UNK N   1      23.397  12.685   6.133  0.00  0.00     0.073 C 
BRANCH  36  37
HETATM   37  C   UNK N   1      23.808  12.566   7.571  0.00  0.00    -0.056 A 
HETATM   38  C   UNK N   1      23.308  11.525   8.369  0.00  0.00     0.010 A 
HETATM   39  C   UNK N   1      23.672  11.432   9.714  0.00  0.00     0.037 A 
HETATM   40  C   UNK N   1      24.543  12.376  10.266  0.00  0.00     0.065 A 
HETATM   41  C   UNK N   1      25.056  13.404   9.470  0.00  0.00     0.037 A 
HETATM   42  C   UNK N   1      24.692  13.497   8.124  0.00  0.00     0.010 A 
BRANCH  40  43
HETATM   43  O   UNK N   1      24.886  12.293  11.561  0.00  0.00    -0.361 OA
HETATM   44  H   UNK N   1      25.633  12.703  11.951  0.00  0.00     0.217 HD
ENDBRANCH  40  43
ENDBRANCH  36  37
ENDBRANCH  35  36
BRANCH  35  45
HETATM   45  N   UNK N   1      21.036  13.331   6.814  0.00  0.00    -0.348 N 
HETATM   46  C   UNK N   1      21.091  14.681   6.941  0.00  0.00     0.214 C 
HETATM   47  O   UNK N   1      21.893  15.341   6.300  0.00  0.00    -0.274 OA
HETATM   48  C   UNK N   1      20.148  15.370   7.866  0.00  0.00     0.117 C 
HETATM   49  H   UNK N   1      20.382  12.843   7.364  0.00  0.00     0.163 HD
ENDBRANCH  35  45
ENDBRANCH  31  35
ENDBRANCH  23  26
ENDBRANCH  15  22
ENDBRANCH  12  15
ENDBRANCH   6  11
ENDBRANCH   3   6
ENDBRANCH   1   2
BRANCH   1  50
HETATM   50  C   UNK N   1      24.811  18.689   3.784  0.00  0.00     0.073 C 
BRANCH  50  51
HETATM   51  C   UNK N   1      25.975  19.430   4.388  0.00  0.00    -0.056 A 
HETATM   52  C   UNK N   1      25.705  20.414   5.346  0.00  0.00     0.007 A 
HETATM   53  C   UNK N   1      26.749  21.123   5.949  0.00  0.00     0.001 A 
HETATM   54  C   UNK N   1      28.074  20.847   5.601  0.00  0.00     0.000 A 
HETATM   55  C   UNK N   1      28.353  19.859   4.654  0.00  0.00     0.001 A 
HETATM   56  C   UNK N   1      27.309  19.151   4.053  0.00  0.00     0.007 A 
ENDBRANCH  50  51
ENDBRANCH   1  50
BRANCH   1  57
HETATM   57  C   UNK N   1      24.810  16.351   4.950  0.00  0.00     0.259 C 
HETATM   58  O   UNK N   1      25.138  16.169   6.112  0.00  0.00    -0.269 OA
HETATM   59  N   UNK N   1      25.157  15.419   4.020  0.00  0.00    -0.264 N 
HETATM   60  H   UNK N   1      25.639  14.614   4.315  0.00  0.00     0.190 HD
BRANCH  59  61
HETATM   61  N   UNK N   1      24.859  15.559   2.684  0.00  0.00    -0.249 N 
HETATM   62  C   UNK N   1      24.941  14.548   1.774  0.00  0.00     0.335 C 
HETATM   63  O   UNK N   1      24.476  14.730   0.662  0.00  0.00    -0.246 OA
HETATM   64  N   UNK N   1      25.500  13.339   2.053  0.00  0.00    -0.329 N 
HETATM   65  H   UNK N   1      25.349  12.613   1.404  0.00  0.00     0.165 HD
HETATM   66  H   UNK N   1      24.568  16.444   2.365  0.00  0.00     0.192 HD
BRANCH  64  67
HETATM   67  C   UNK N   1      26.293  13.029   3.220  0.00  0.00     0.178 C 
BRANCH  67  68
HETATM   68  C   UNK N   1      26.082  11.591   3.723  0.00  0.00     0.038 C 
BRANCH  68  69
HETATM   69  C   UNK N   1      26.949  10.462   3.150  0.00  0.00    -0.020 C 
HETATM   70  C   UNK N   1      26.263   9.924   1.912  0.00  0.00     0.009 C 
HETATM   71  C   UNK N   1      27.194   9.302   4.093  0.00  0.00     0.009 C 
ENDBRANCH  68  69
ENDBRANCH  67  68
BRANCH  67  72
HETATM   72  C   UNK N   1      27.732  13.218   2.894  0.00  0.00     0.241 C 
HETATM   73  O   UNK N   1      28.098  13.165   1.730  0.00  0.00    -0.271 OA
HETATM   74  N   UNK N   1      28.598  13.532   3.895  0.00  0.00    -0.346 N 
HETATM   75  H   UNK N   1      28.260  13.467   4.817  0.00  0.00     0.163 HD
BRANCH  74  76
HETATM   76  C   UNK N   1      29.971  13.953   3.724  0.00  0.00     0.176 C 
BRANCH  76  77
HETATM   77  C   UNK N   1      30.784  13.073   2.756  0.00  0.00     0.036 C 
BRANCH  77  78
HETATM   78  C   UNK N   1      31.527  11.891   3.362  0.00  0.00     0.023 C 
BRANCH  78  79
HETATM   79  C   UNK N   1      30.683  10.631   3.363  0.00  0.00     0.138 C 
BRANCH  79  80
HETATM   80  N   UNK N   1      31.389   9.545   3.993  0.00  0.00    -0.227 N 
HETATM   81  C   UNK N   1      31.046   9.091   5.292  0.00  0.00     0.667 C 
HETATM   82  N   UNK N   1      30.172   9.724   5.991  0.00  0.00    -0.235 N 
HETATM   83  N   UNK N   1      31.648   7.909   5.796  0.00  0.00    -0.231 N 
HETATM   84  H   UNK N   1      29.628  10.449   5.609  0.00  0.00     0.174 HD
ATOM     85  HN  UNK N   1      30.039   9.468   6.969  1.00  0.00     0.174 HD
HETATM   86  C   UNK N   1      31.285   7.358   7.077  0.00  0.00     0.165 C 
HETATM   87  H   UNK N   1      32.331   7.452   5.254  0.00  0.00     0.177 HD
HETATM   88  H   UNK N   1      32.126   9.107   3.511  0.00  0.00     0.177 HD
ENDBRANCH  79  80
ENDBRANCH  78  79
ENDBRANCH  77  78
ENDBRANCH  76  77
BRANCH  76  89
HETATM   89  C   UNK N   1      30.086  15.463   3.617  0.00  0.00     0.241 C 
HETATM   90  O   UNK N   1      29.244  16.091   2.993  0.00  0.00    -0.271 OA
HETATM   91  N   UNK N   1      31.060  16.151   4.254  0.00  0.00    -0.346 N 
HETATM   92  H   UNK N   1      31.062  17.132   4.179  0.00  0.00     0.163 HD
BRANCH  91  93
HETATM   93  C   UNK N   1      32.096  15.524   5.036  0.00  0.00     0.180 C 
BRANCH  93  94
HETATM   94  C   UNK N   1      31.551  15.045   6.394  0.00  0.00     0.075 C 
BRANCH  94  95
HETATM   95  C   UNK N   1      31.382  16.153   7.389  0.00  0.00    -0.028 A 
HETATM   96  C   UNK N   1      32.348  16.663   8.250  0.00  0.00     0.096 A 
HETATM   97  N   UNK N   1      31.813  17.670   8.988  0.00  0.00    -0.365 N 
HETATM   98  C   UNK N   1      30.533  17.784   8.589  0.00  0.00     0.042 A 
HETATM   99  H   UNK N   1      32.269  18.207   9.675  0.00  0.00     0.165 HD
HETATM  100  C   UNK N   1      30.237  16.872   7.617  0.00  0.00    -0.002 A 
HETATM  101  C   UNK N   1      29.588  18.693   9.058  0.00  0.00     0.030 A 
HETATM  102  C   UNK N   1      28.973  16.797   7.037  0.00  0.00     0.014 A 
HETATM  103  C   UNK N   1      27.993  17.701   7.487  0.00  0.00     0.001 A 
HETATM  104  C   UNK N   1      28.300  18.647   8.494  0.00  0.00     0.002 A 
ENDBRANCH  94  95
ENDBRANCH  93  94
BRANCH  93 105
HETATM  105  C   UNK N   1      33.292  16.429   5.092  0.00  0.00     0.238 C 
HETATM  106  O   UNK N   1      33.192  17.619   4.841  0.00  0.00    -0.271 OA
HETATM  107  N   UNK N   1      34.493  15.920   5.430  0.00  0.00    -0.368 N 
HETATM  108  H   UNK N   1      34.862  15.009   5.382  0.00  0.00     0.159 HD
HETATM  109  H   UNK N   1      35.120  16.586   5.795  0.00  0.00     0.159 HD
ENDBRANCH  93 105
ENDBRANCH  91  93
ENDBRANCH  76  89
ENDBRANCH  74  76
ENDBRANCH  67  72
ENDBRANCH  64  67
ENDBRANCH  59  61
ENDBRANCH   1  57
TORSDOF 34
ENDMDL
