REMARK  8 active torsions:
REMARK  status: ('A' for Active; 'I' for Inactive)
REMARK    1  A    between atoms: C_2  and  C_18 
REMARK    2  A    between atoms: C_6  and  N_9 
REMARK    3  A    between atoms: C_12  and  C_15 
REMARK    4  A    between atoms: C_15  and  O_17 
REMARK       I    between atoms: C_18  and  N_20 
REMARK    5  A    between atoms: N_20  and  C_21 
REMARK    6  A    between atoms: C_24  and  C_39 
REMARK    7  A    between atoms: C_25  and  N_27 
REMARK    8  A    between atoms: N_30  and  C_33 
ROOT
HETATM    1  C   UNK N   1       2.195  -3.564   0.214  0.00  0.00     0.255 C 
HETATM    2  N   UNK N   1       2.741  -4.615  -0.397  0.00  0.00    -0.357 N 
ATOM      3  HN  UNK N   1       3.745  -4.717  -0.540  1.00  0.00     0.162 HD
HETATM    4  C   UNK N   1       1.831  -5.543  -0.813  0.00  0.00     0.081 C 
HETATM    5  C   UNK N   1       0.478  -5.162  -0.615  0.00  0.00     0.099 C 
HETATM    6  S   UNK N   1       0.548  -3.660   0.047  0.00  0.00    -0.064 SA
ENDROOT
BRANCH   1   7
HETATM    7  N   UNK N   1       2.681  -3.298   1.522  0.00  0.00    -0.327 N 
HETATM    8  C   UNK N   1       2.307  -2.211   2.201  0.00  0.00     0.255 C 
HETATM    9  O   UNK N   1       2.260  -2.234   3.423  0.00  0.00    -0.268 OA
HETATM   10  H   UNK N   1       3.310  -3.931   1.939  0.00  0.00     0.165 HD
BRANCH   8  11
HETATM   11  C   UNK N   1       2.027  -1.018   1.461  0.00  0.00     0.049 A 
HETATM   12  C   UNK N   1       2.979  -0.633   0.525  0.00  0.00     0.046 A 
HETATM   13  C   UNK N   1       2.766   0.452  -0.280  0.00  0.00     0.079 A 
HETATM   14  C   UNK N   1       1.535   1.137  -0.185  0.00  0.00     0.125 A 
HETATM   15 Cl   UNK N   1       4.076   0.884  -1.379  0.00  0.00    -0.080 Cl
HETATM   16  N   UNK N   1       0.594   0.696   0.720  0.00  0.00    -0.350 N 
HETATM   17  C   UNK N   1       0.824  -0.345   1.549  0.00  0.00     0.106 A 
ATOM     18  HN  UNK N   1      -0.306   1.173   0.766  1.00  0.00     0.166 HD
BRANCH  14  19
HETATM   19  N   UNK N   1       1.267   2.324  -0.916  0.00  0.00    -0.366 N 
HETATM   20  C   UNK N   1      -0.012   2.953  -0.726  0.00  0.00     0.125 C 
HETATM   21  C   UNK N   1       0.034   3.682   0.621  0.00  0.00     0.035 C 
HETATM   22  C   UNK N   1       1.272   4.604   0.726  0.00  0.00     0.087 C 
HETATM   23  C   UNK N   1       2.571   3.913   0.269  0.00  0.00     0.035 C 
HETATM   24  C   UNK N   1       2.362   3.246  -1.092  0.00  0.00     0.125 C 
BRANCH  22  25
HETATM   25  C   UNK N   1       1.101   5.879  -0.038  0.00  0.00     0.143 C 
HETATM   26  O   UNK N   1       1.956   6.745   0.044  0.00  0.00    -0.650 OA
BRANCH  25  27
HETATM   27  O   UNK N   1       0.022   6.078  -0.819  0.00  0.00    -0.776 OA
HETATM   28  H   UNK N   1      -0.233   6.797  -1.362  0.00  0.00     0.167 HD
ENDBRANCH  25  27
ENDBRANCH  22  25
ENDBRANCH  14  19
ENDBRANCH   8  11
ENDBRANCH   1   7
BRANCH   4  29
HETATM   29  C   UNK N   1       2.369  -6.887  -1.011  0.00  0.00     0.035 A 
HETATM   30  C   UNK N   1       3.691  -7.149  -0.667  0.00  0.00     0.045 A 
HETATM   31  C   UNK N   1       4.002  -8.516  -0.648  0.00  0.00     0.042 A 
HETATM   32  C   UNK N   1       2.935  -9.362  -0.981  0.00  0.00     0.074 A 
HETATM   33 Cl   UNK N   1       5.579  -9.065  -0.130  0.00  0.00    -0.084 Cl
HETATM   34  S   UNK N   1       1.643  -8.350  -1.288  0.00  0.00    -0.098 SA
ENDBRANCH   4  29
BRANCH   5  35
HETATM   35  N   UNK N   1      -0.555  -6.054  -0.246  0.00  0.00    -0.370 N 
HETATM   36  C   UNK N   1      -0.148  -6.982   0.804  0.00  0.00     0.154 C 
HETATM   37  C   UNK N   1      -1.243  -7.926   1.226  0.00  0.00     0.292 C 
HETATM   38  N   UNK N   1      -2.252  -7.960   0.185  0.00  0.00     0.096 N 
HETATM   39  C   UNK N   1      -2.921  -6.660   0.228  0.00  0.00     0.292 C 
HETATM   40  C   UNK N   1      -1.932  -5.566  -0.227  0.00  0.00     0.154 C 
BRANCH  38  41
HETATM   41  C   UNK N   1      -3.120  -9.102   0.444  0.00  0.00     0.223 C 
HETATM   42  C   UNK N   1      -2.316 -10.372   0.114  0.00  0.00     0.036 C 
HETATM   43  C   UNK N   1      -3.156 -11.628   0.268  0.00  0.00     0.002 C 
HETATM   44  C   UNK N   1      -4.381 -11.536  -0.631  0.00  0.00     0.000 C 
HETATM   45  C   UNK N   1      -5.205 -10.311  -0.252  0.00  0.00     0.002 C 
HETATM   46  C   UNK N   1      -4.369  -9.053  -0.442  0.00  0.00     0.036 C 
ENDBRANCH  38  41
ENDBRANCH   5  35
TORSDOF 8
