MODEL 1
REMARK VINA RESULT:      -8.3      0.000      0.000
REMARK  14 active torsions:
REMARK  status: ('A' for Active; 'I' for Inactive)
REMARK    1  A    between atoms: C_3  and  C_37 
REMARK    2  A    between atoms: N_6  and  C_22 
REMARK    3  A    between atoms: N_9  and  C_10 
REMARK    4  A    between atoms: C_10  and  C_11 
REMARK    5  A    between atoms: C_12  and  C_18 
REMARK    6  A    between atoms: C_22  and  C_23 
REMARK    7  A    between atoms: C_23  and  C_24 
REMARK    8  A    between atoms: C_23  and  N_30 
REMARK    9  A    between atoms: N_30  and  C_31 
REMARK   10  A    between atoms: C_31  and  C_32 
REMARK   11  A    between atoms: C_32  and  C_33 
REMARK   12  A    between atoms: C_33  and  C_34 
REMARK   13  A    between atoms: C_34  and  O_36 
REMARK   14  A    between atoms: C_41  and  O_44 
ROOT
HETATM    1  C   UNK N   1      22.935  15.370   6.668  0.00  0.00     0.069 C 
HETATM    2  C   UNK N   1      24.194  15.647   5.895  0.00  0.00     0.029 A 
HETATM    3  C   UNK N   1      24.169  16.521   4.771  0.00  0.00     0.068 A 
HETATM    4  C   UNK N   1      25.401  16.822   4.156  0.00  0.00     0.264 A 
HETATM    5  O   UNK N   1      25.428  17.536   3.167  0.00  0.00    -0.267 OA
HETATM    6  N   UNK N   1      26.575  16.287   4.627  0.00  0.00    -0.263 N 
HETATM    7  C   UNK N   1      26.564  15.399   5.676  0.00  0.00     0.332 A 
HETATM    8  O   UNK N   1      27.619  14.901   6.026  0.00  0.00    -0.246 OA
HETATM    9  N   UNK N   1      25.377  15.080   6.325  0.00  0.00    -0.298 N 
ENDROOT
BRANCH   6  10
HETATM   10  C   UNK N   1      27.853  16.604   3.962  0.00  0.00     0.166 C 
BRANCH  10  11
HETATM   11  C   UNK N   1      28.770  17.562   4.752  0.00  0.00     0.128 C 
BRANCH  11  12
HETATM   12  C   UNK N   1      28.138  18.815   5.278  0.00  0.00    -0.034 A 
HETATM   13  C   UNK N   1      27.657  19.799   4.402  0.00  0.00     0.009 A 
HETATM   14  C   UNK N   1      27.062  20.958   4.910  0.00  0.00     0.001 A 
HETATM   15  C   UNK N   1      26.945  21.135   6.291  0.00  0.00     0.000 A 
HETATM   16  C   UNK N   1      27.419  20.153   7.165  0.00  0.00     0.001 A 
HETATM   17  C   UNK N   1      28.013  18.993   6.660  0.00  0.00     0.009 A 
ENDBRANCH  11  12
BRANCH  11  18
HETATM   18  N   UNK N   1      29.623  16.906   5.738  0.00  0.00    -0.411 N 
HETATM   19  H   UNK N   1      29.305  16.353   6.533  0.00  0.00     0.153 HD
BRANCH  18  20
HETATM   20  C   UNK N   1      31.015  17.181   5.382  0.00  0.00     0.115 C 
BRANCH  20  21
HETATM   21  C   UNK N   1      31.995  16.582   6.390  0.00  0.00     0.029 C 
BRANCH  21  22
HETATM   22  C   UNK N   1      32.319  17.598   7.476  0.00  0.00     0.111 C 
BRANCH  22  23
HETATM   23  C   UNK N   1      33.766  17.967   7.455  0.00  0.00     0.139 C 
HETATM   24  O   UNK N   1      34.389  17.932   6.406  0.00  0.00    -0.650 OA
BRANCH  23  25
HETATM   25  O   UNK N   1      34.394  18.301   8.598  0.00  0.00    -0.776 OA
HETATM   26  H   UNK N   1      35.321  18.189   8.674  0.00  0.00     0.167 HD
ENDBRANCH  23  25
ENDBRANCH  22  23
ENDBRANCH  21  22
ENDBRANCH  20  21
ENDBRANCH  18  20
ENDBRANCH  11  18
ENDBRANCH  10  11
ENDBRANCH   6  10
BRANCH   3  27
HETATM   27  C   UNK N   1      22.901  17.153   4.210  0.00  0.00     0.023 A 
HETATM   28  C   UNK N   1      22.587  18.466   4.608  0.00  0.00     0.016 A 
HETATM   29  C   UNK N   1      21.470  19.133   4.118  0.00  0.00     0.004 A 
HETATM   30  C   UNK N   1      20.636  18.507   3.203  0.00  0.00     0.040 A 
HETATM   31  C   UNK N   1      20.906  17.212   2.759  0.00  0.00     0.107 A 
HETATM   32  C   UNK N   1      22.047  16.523   3.261  0.00  0.00     0.160 A 
HETATM   33  F   UNK N   1      22.348  15.297   2.773  0.00  0.00    -0.202 F 
BRANCH  31  34
HETATM   34  O   UNK N   1      20.055  16.679   1.843  0.00  0.00    -0.353 OA
HETATM   35  C   UNK N   1      20.018  17.005   0.507  0.00  0.00     0.210 C 
ENDBRANCH  31  34
ENDBRANCH   3  27
BRANCH   9  36
HETATM   36  C   UNK N   1      25.297  14.162   7.498  0.00  0.00     0.176 C 
BRANCH  36  37
HETATM   37  C   UNK N   1      24.718  12.769   7.335  0.00  0.00     0.014 A 
HETATM   38  C   UNK N   1      24.132  12.091   8.437  0.00  0.00     0.058 A 
HETATM   39  C   UNK N   1      23.640  10.789   8.258  0.00  0.00     0.017 A 
HETATM   40  C   UNK N   1      23.719  10.159   7.018  0.00  0.00     0.004 A 
HETATM   41  C   UNK N   1      24.336  10.803   5.949  0.00  0.00     0.043 A 
HETATM   42  C   UNK N   1      24.848  12.092   6.104  0.00  0.00     0.125 A 
HETATM   43  F   UNK N   1      25.474  12.684   5.056  0.00  0.00    -0.205 F 
BRANCH  38  44
HETATM   44  C   UNK N   1      24.045  12.717   9.811  0.00  0.00     0.418 C 
HETATM   45  F   UNK N   1      23.128  13.753   9.806  0.00  0.00    -0.166 F 
HETATM   46  F   UNK N   1      25.272  13.237  10.195  0.00  0.00    -0.166 F 
HETATM   47  F   UNK N   1      23.658  11.768  10.737  0.00  0.00    -0.166 F 
ENDBRANCH  38  44
ENDBRANCH  36  37
ENDBRANCH   9  36
TORSDOF 14
ENDMDL
MODEL 2
REMARK VINA RESULT:      -8.2      2.455      3.992
REMARK  14 active torsions:
REMARK  status: ('A' for Active; 'I' for Inactive)
REMARK    1  A    between atoms: C_3  and  C_37 
REMARK    2  A    between atoms: N_6  and  C_22 
REMARK    3  A    between atoms: N_9  and  C_10 
REMARK    4  A    between atoms: C_10  and  C_11 
REMARK    5  A    between atoms: C_12  and  C_18 
REMARK    6  A    between atoms: C_22  and  C_23 
REMARK    7  A    between atoms: C_23  and  C_24 
REMARK    8  A    between atoms: C_23  and  N_30 
REMARK    9  A    between atoms: N_30  and  C_31 
REMARK   10  A    between atoms: C_31  and  C_32 
REMARK   11  A    between atoms: C_32  and  C_33 
REMARK   12  A    between atoms: C_33  and  C_34 
REMARK   13  A    between atoms: C_34  and  O_36 
REMARK   14  A    between atoms: C_41  and  O_44 
ROOT
HETATM    1  C   UNK N   1      21.174  15.608   6.599  0.00  0.00     0.069 C 
HETATM    2  C   UNK N   1      22.604  15.697   6.143  0.00  0.00     0.029 A 
HETATM    3  C   UNK N   1      22.958  16.541   5.052  0.00  0.00     0.068 A 
HETATM    4  C   UNK N   1      24.329  16.661   4.743  0.00  0.00     0.264 A 
HETATM    5  O   UNK N   1      24.681  17.343   3.795  0.00  0.00    -0.267 OA
HETATM    6  N   UNK N   1      25.278  15.984   5.470  0.00  0.00    -0.263 N 
HETATM    7  C   UNK N   1      24.905  15.130   6.479  0.00  0.00     0.332 A 
HETATM    8  O   UNK N   1      25.772  14.503   7.060  0.00  0.00    -0.246 OA
HETATM    9  N   UNK N   1      23.567  14.987   6.831  0.00  0.00    -0.298 N 
ENDROOT
BRANCH   6  10
HETATM   10  C   UNK N   1      26.706  16.113   5.123  0.00  0.00     0.166 C 
BRANCH  10  11
HETATM   11  C   UNK N   1      27.357  17.445   5.556  0.00  0.00     0.128 C 
BRANCH  11  12
HETATM   12  C   UNK N   1      28.340  17.376   6.685  0.00  0.00    -0.034 A 
HETATM   13  C   UNK N   1      29.700  17.135   6.439  0.00  0.00     0.009 A 
HETATM   14  C   UNK N   1      30.605  17.084   7.504  0.00  0.00     0.001 A 
HETATM   15  C   UNK N   1      30.154  17.274   8.813  0.00  0.00     0.000 A 
HETATM   16  C   UNK N   1      28.800  17.520   9.059  0.00  0.00     0.001 A 
HETATM   17  C   UNK N   1      27.894  17.573   7.996  0.00  0.00     0.009 A 
ENDBRANCH  11  12
BRANCH  11  18
HETATM   18  N   UNK N   1      27.827  18.274   4.450  0.00  0.00    -0.411 N 
HETATM   19  H   UNK N   1      28.285  17.940   3.602  0.00  0.00     0.153 HD
BRANCH  18  20
HETATM   20  C   UNK N   1      27.525  19.667   4.775  0.00  0.00     0.115 C 
BRANCH  20  21
HETATM   21  C   UNK N   1      26.769  20.369   3.647  0.00  0.00     0.029 C 
BRANCH  21  22
HETATM   22  C   UNK N   1      25.289  20.471   3.990  0.00  0.00     0.111 C 
BRANCH  22  23
HETATM   23  C   UNK N   1      24.481  20.832   2.787  0.00  0.00     0.139 C 
HETATM   24  O   UNK N   1      24.911  20.599   1.669  0.00  0.00    -0.650 OA
BRANCH  23  25
HETATM   25  O   UNK N   1      23.294  21.452   2.933  0.00  0.00    -0.776 OA
HETATM   26  H   UNK N   1      22.497  20.976   2.806  0.00  0.00     0.167 HD
ENDBRANCH  23  25
ENDBRANCH  22  23
ENDBRANCH  21  22
ENDBRANCH  20  21
ENDBRANCH  18  20
ENDBRANCH  11  18
ENDBRANCH  10  11
ENDBRANCH   6  10
BRANCH   3  27
HETATM   27  C   UNK N   1      21.953  17.324   4.217  0.00  0.00     0.023 A 
HETATM   28  C   UNK N   1      21.778  18.691   4.506  0.00  0.00     0.016 A 
HETATM   29  C   UNK N   1      20.909  19.490   3.773  0.00  0.00     0.004 A 
HETATM   30  C   UNK N   1      20.193  18.946   2.716  0.00  0.00     0.040 A 
HETATM   31  C   UNK N   1      20.337  17.600   2.373  0.00  0.00     0.107 A 
HETATM   32  C   UNK N   1      21.223  16.777   3.124  0.00  0.00     0.160 A 
HETATM   33  F   UNK N   1      21.419  15.493   2.742  0.00  0.00    -0.202 F 
BRANCH  31  34
HETATM   34  O   UNK N   1      19.621  17.151   1.309  0.00  0.00    -0.353 OA
HETATM   35  C   UNK N   1      20.071  17.097   0.011  0.00  0.00     0.210 C 
ENDBRANCH  31  34
ENDBRANCH   3  27
BRANCH   9  36
HETATM   36  C   UNK N   1      23.094  14.115   7.944  0.00  0.00     0.176 C 
BRANCH  36  37
HETATM   37  C   UNK N   1      23.226  12.607   7.838  0.00  0.00     0.014 A 
HETATM   38  C   UNK N   1      23.765  11.846   8.910  0.00  0.00     0.058 A 
HETATM   39  C   UNK N   1      23.907  10.458   8.762  0.00  0.00     0.017 A 
HETATM   40  C   UNK N   1      23.526   9.822   7.582  0.00  0.00     0.004 A 
HETATM   41  C   UNK N   1      23.041  10.571   6.513  0.00  0.00     0.043 A 
HETATM   42  C   UNK N   1      22.906  11.955   6.628  0.00  0.00     0.125 A 
HETATM   43  F   UNK N   1      22.463  12.666   5.560  0.00  0.00    -0.205 F 
BRANCH  38  44
HETATM   44  C   UNK N   1      24.221  12.488  10.201  0.00  0.00     0.418 C 
HETATM   45  F   UNK N   1      25.183  13.448   9.942  0.00  0.00    -0.166 F 
HETATM   46  F   UNK N   1      24.779  11.545  11.051  0.00  0.00    -0.166 F 
HETATM   47  F   UNK N   1      23.146  13.077  10.839  0.00  0.00    -0.166 F 
ENDBRANCH  38  44
ENDBRANCH  36  37
ENDBRANCH   9  36
TORSDOF 14
ENDMDL
MODEL 3
REMARK VINA RESULT:      -8.1      3.683      7.783
REMARK  14 active torsions:
REMARK  status: ('A' for Active; 'I' for Inactive)
REMARK    1  A    between atoms: C_3  and  C_37 
REMARK    2  A    between atoms: N_6  and  C_22 
REMARK    3  A    between atoms: N_9  and  C_10 
REMARK    4  A    between atoms: C_10  and  C_11 
REMARK    5  A    between atoms: C_12  and  C_18 
REMARK    6  A    between atoms: C_22  and  C_23 
REMARK    7  A    between atoms: C_23  and  C_24 
REMARK    8  A    between atoms: C_23  and  N_30 
REMARK    9  A    between atoms: N_30  and  C_31 
REMARK   10  A    between atoms: C_31  and  C_32 
REMARK   11  A    between atoms: C_32  and  C_33 
REMARK   12  A    between atoms: C_33  and  C_34 
REMARK   13  A    between atoms: C_34  and  O_36 
REMARK   14  A    between atoms: C_41  and  O_44 
ROOT
HETATM    1  C   UNK N   1      24.583  17.541   3.913  0.00  0.00     0.069 C 
HETATM    2  C   UNK N   1      23.939  16.486   4.770  0.00  0.00     0.029 A 
HETATM    3  C   UNK N   1      22.553  16.192   4.625  0.00  0.00     0.068 A 
HETATM    4  C   UNK N   1      22.035  15.121   5.382  0.00  0.00     0.264 A 
HETATM    5  O   UNK N   1      20.846  14.853   5.322  0.00  0.00    -0.267 OA
HETATM    6  N   UNK N   1      22.842  14.397   6.225  0.00  0.00    -0.263 N 
HETATM    7  C   UNK N   1      24.162  14.740   6.391  0.00  0.00     0.332 A 
HETATM    8  O   UNK N   1      24.829  14.110   7.191  0.00  0.00    -0.246 OA
HETATM    9  N   UNK N   1      24.724  15.779   5.658  0.00  0.00    -0.298 N 
ENDROOT
BRANCH   6  10
HETATM   10  C   UNK N   1      22.278  13.287   7.018  0.00  0.00     0.166 C 
BRANCH  10  11
HETATM   11  C   UNK N   1      21.586  13.719   8.329  0.00  0.00     0.128 C 
BRANCH  11  12
HETATM   12  C   UNK N   1      22.079  13.079   9.591  0.00  0.00    -0.034 A 
HETATM   13  C   UNK N   1      21.180  12.663  10.584  0.00  0.00     0.009 A 
HETATM   14  C   UNK N   1      21.658  12.059  11.751  0.00  0.00     0.001 A 
HETATM   15  C   UNK N   1      23.031  11.867  11.928  0.00  0.00     0.000 A 
HETATM   16  C   UNK N   1      23.927  12.276  10.937  0.00  0.00     0.001 A 
HETATM   17  C   UNK N   1      23.453  12.879   9.769  0.00  0.00     0.009 A 
ENDBRANCH  11  12
BRANCH  11  18
HETATM   18  N   UNK N   1      21.397  15.160   8.466  0.00  0.00    -0.411 N 
HETATM   19  H   UNK N   1      22.106  15.875   8.310  0.00  0.00     0.153 HD
BRANCH  18  20
HETATM   20  C   UNK N   1      20.011  15.394   8.867  0.00  0.00     0.115 C 
BRANCH  20  21
HETATM   21  C   UNK N   1      19.425  16.642   8.208  0.00  0.00     0.029 C 
BRANCH  21  22
HETATM   22  C   UNK N   1      18.776  17.536   9.255  0.00  0.00     0.111 C 
BRANCH  22  23
HETATM   23  C   UNK N   1      19.514  18.826   9.396  0.00  0.00     0.139 C 
HETATM   24  O   UNK N   1      20.315  19.168   8.541  0.00  0.00    -0.650 OA
BRANCH  23  25
HETATM   25  O   UNK N   1      19.326  19.596  10.485  0.00  0.00    -0.776 OA
HETATM   26  H   UNK N   1      20.059  19.865  11.002  0.00  0.00     0.167 HD
ENDBRANCH  23  25
ENDBRANCH  22  23
ENDBRANCH  21  22
ENDBRANCH  20  21
ENDBRANCH  18  20
ENDBRANCH  11  18
ENDBRANCH  10  11
ENDBRANCH   6  10
BRANCH   3  27
HETATM   27  C   UNK N   1      21.611  16.952   3.700  0.00  0.00     0.023 A 
HETATM   28  C   UNK N   1      21.065  18.163   4.165  0.00  0.00     0.016 A 
HETATM   29  C   UNK N   1      20.225  18.940   3.376  0.00  0.00     0.004 A 
HETATM   30  C   UNK N   1      19.913  18.532   2.088  0.00  0.00     0.040 A 
HETATM   31  C   UNK N   1      20.438  17.348   1.566  0.00  0.00     0.107 A 
HETATM   32  C   UNK N   1      21.295  16.547   2.373  0.00  0.00     0.160 A 
HETATM   33  F   UNK N   1      21.863  15.440   1.838  0.00  0.00    -0.202 F 
BRANCH  31  34
HETATM   34  O   UNK N   1      20.105  17.032   0.287  0.00  0.00    -0.353 OA
HETATM   35  C   UNK N   1      19.104  16.165  -0.084  0.00  0.00     0.210 C 
ENDBRANCH  31  34
ENDBRANCH   3  27
BRANCH   9  36
HETATM   36  C   UNK N   1      26.158  16.176   5.752  0.00  0.00     0.176 C 
BRANCH  36  37
HETATM   37  C   UNK N   1      27.118  15.830   4.629  0.00  0.00     0.014 A 
HETATM   38  C   UNK N   1      28.202  16.689   4.306  0.00  0.00     0.058 A 
HETATM   39  C   UNK N   1      29.048  16.355   3.238  0.00  0.00     0.017 A 
HETATM   40  C   UNK N   1      28.837  15.196   2.494  0.00  0.00     0.004 A 
HETATM   41  C   UNK N   1      27.748  14.377   2.778  0.00  0.00     0.043 A 
HETATM   42  C   UNK N   1      26.881  14.694   3.825  0.00  0.00     0.125 A 
HETATM   43  F   UNK N   1      25.808  13.897   4.058  0.00  0.00    -0.205 F 
BRANCH  38  44
HETATM   44  C   UNK N   1      28.461  17.974   5.062  0.00  0.00     0.418 C 
HETATM   45  F   UNK N   1      29.633  18.559   4.619  0.00  0.00    -0.166 F 
HETATM   46  F   UNK N   1      28.594  17.728   6.420  0.00  0.00    -0.166 F 
HETATM   47  F   UNK N   1      27.410  18.851   4.873  0.00  0.00    -0.166 F 
ENDBRANCH  38  44
ENDBRANCH  36  37
ENDBRANCH   9  36
TORSDOF 14
ENDMDL
MODEL 4
REMARK VINA RESULT:      -8.0      3.346      7.724
REMARK  14 active torsions:
REMARK  status: ('A' for Active; 'I' for Inactive)
REMARK    1  A    between atoms: C_3  and  C_37 
REMARK    2  A    between atoms: N_6  and  C_22 
REMARK    3  A    between atoms: N_9  and  C_10 
REMARK    4  A    between atoms: C_10  and  C_11 
REMARK    5  A    between atoms: C_12  and  C_18 
REMARK    6  A    between atoms: C_22  and  C_23 
REMARK    7  A    between atoms: C_23  and  C_24 
REMARK    8  A    between atoms: C_23  and  N_30 
REMARK    9  A    between atoms: N_30  and  C_31 
REMARK   10  A    between atoms: C_31  and  C_32 
REMARK   11  A    between atoms: C_32  and  C_33 
REMARK   12  A    between atoms: C_33  and  C_34 
REMARK   13  A    between atoms: C_34  and  O_36 
REMARK   14  A    between atoms: C_41  and  O_44 
ROOT
HETATM    1  C   UNK N   1      24.825  17.833   3.736  0.00  0.00     0.069 C 
HETATM    2  C   UNK N   1      24.467  16.657   4.602  0.00  0.00     0.029 A 
HETATM    3  C   UNK N   1      23.274  15.919   4.351  0.00  0.00     0.068 A 
HETATM    4  C   UNK N   1      23.050  14.765   5.131  0.00  0.00     0.264 A 
HETATM    5  O   UNK N   1      22.025  14.120   4.980  0.00  0.00    -0.267 OA
HETATM    6  N   UNK N   1      23.950  14.377   6.092  0.00  0.00    -0.263 N 
HETATM    7  C   UNK N   1      25.063  15.140   6.354  0.00  0.00     0.332 A 
HETATM    8  O   UNK N   1      25.806  14.793   7.254  0.00  0.00    -0.246 OA
HETATM    9  N   UNK N   1      25.336  16.279   5.605  0.00  0.00    -0.298 N 
ENDROOT
BRANCH   6  10
HETATM   10  C   UNK N   1      23.692  13.173   6.905  0.00  0.00     0.166 C 
BRANCH  10  11
HETATM   11  C   UNK N   1      22.648  13.365   8.027  0.00  0.00     0.128 C 
BRANCH  11  12
HETATM   12  C   UNK N   1      23.017  12.847   9.383  0.00  0.00    -0.034 A 
HETATM   13  C   UNK N   1      24.361  12.663   9.741  0.00  0.00     0.009 A 
HETATM   14  C   UNK N   1      24.687  12.187  11.014  0.00  0.00     0.001 A 
HETATM   15  C   UNK N   1      23.675  11.895  11.932  0.00  0.00     0.000 A 
HETATM   16  C   UNK N   1      22.335  12.082  11.579  0.00  0.00     0.001 A 
HETATM   17  C   UNK N   1      22.006  12.559  10.307  0.00  0.00     0.009 A 
ENDBRANCH  11  12
BRANCH  11  18
HETATM   18  N   UNK N   1      22.053  14.697   8.076  0.00  0.00    -0.411 N 
HETATM   19  H   UNK N   1      22.561  15.580   8.106  0.00  0.00     0.153 HD
BRANCH  18  20
HETATM   20  C   UNK N   1      20.599  14.540   8.075  0.00  0.00     0.115 C 
BRANCH  20  21
HETATM   21  C   UNK N   1      19.876  15.880   7.947  0.00  0.00     0.029 C 
BRANCH  21  22
HETATM   22  C   UNK N   1      19.978  16.398   6.519  0.00  0.00     0.111 C 
BRANCH  22  23
HETATM   23  C   UNK N   1      18.923  15.796   5.650  0.00  0.00     0.139 C 
HETATM   24  O   UNK N   1      17.744  15.964   5.916  0.00  0.00    -0.650 OA
BRANCH  23  25
HETATM   25  O   UNK N   1      19.271  15.033   4.596  0.00  0.00    -0.776 OA
HETATM   26  H   UNK N   1      18.702  14.968   3.855  0.00  0.00     0.167 HD
ENDBRANCH  23  25
ENDBRANCH  22  23
ENDBRANCH  21  22
ENDBRANCH  20  21
ENDBRANCH  18  20
ENDBRANCH  11  18
ENDBRANCH  10  11
ENDBRANCH   6  10
BRANCH   3  27
HETATM   27  C   UNK N   1      22.244  16.294   3.293  0.00  0.00     0.023 A 
HETATM   28  C   UNK N   1      21.986  15.367   2.266  0.00  0.00     0.016 A 
HETATM   29  C   UNK N   1      21.038  15.610   1.280  0.00  0.00     0.004 A 
HETATM   30  C   UNK N   1      20.308  16.790   1.297  0.00  0.00     0.040 A 
HETATM   31  C   UNK N   1      20.509  17.740   2.300  0.00  0.00     0.107 A 
HETATM   32  C   UNK N   1      21.483  17.496   3.310  0.00  0.00     0.160 A 
HETATM   33  F   UNK N   1      21.622  18.384   4.323  0.00  0.00    -0.202 F 
BRANCH  31  34
HETATM   34  O   UNK N   1      19.736  18.857   2.261  0.00  0.00    -0.353 OA
HETATM   35  C   UNK N   1      20.195  20.136   2.054  0.00  0.00     0.210 C 
ENDBRANCH  31  34
ENDBRANCH   3  27
BRANCH   9  36
HETATM   36  C   UNK N   1      26.547  17.127   5.801  0.00  0.00     0.176 C 
BRANCH  36  37
HETATM   37  C   UNK N   1      27.931  16.526   5.644  0.00  0.00     0.014 A 
HETATM   38  C   UNK N   1      28.923  16.711   6.643  0.00  0.00     0.058 A 
HETATM   39  C   UNK N   1      30.203  16.171   6.446  0.00  0.00     0.017 A 
HETATM   40  C   UNK N   1      30.509  15.459   5.288  0.00  0.00     0.004 A 
HETATM   41  C   UNK N   1      29.552  15.317   4.287  0.00  0.00     0.043 A 
HETATM   42  C   UNK N   1      28.276  15.858   4.450  0.00  0.00     0.125 A 
HETATM   43  F   UNK N   1      27.374  15.735   3.444  0.00  0.00    -0.205 F 
BRANCH  38  44
HETATM   44  C   UNK N   1      28.654  17.499   7.906  0.00  0.00     0.418 C 
HETATM   45  F   UNK N   1      29.782  17.515   8.707  0.00  0.00    -0.166 F 
HETATM   46  F   UNK N   1      27.623  16.924   8.634  0.00  0.00    -0.166 F 
HETATM   47  F   UNK N   1      28.300  18.795   7.586  0.00  0.00    -0.166 F 
ENDBRANCH  38  44
ENDBRANCH  36  37
ENDBRANCH   9  36
TORSDOF 14
ENDMDL
MODEL 5
REMARK VINA RESULT:      -8.0      3.043      7.691
REMARK  14 active torsions:
REMARK  status: ('A' for Active; 'I' for Inactive)
REMARK    1  A    between atoms: C_3  and  C_37 
REMARK    2  A    between atoms: N_6  and  C_22 
REMARK    3  A    between atoms: N_9  and  C_10 
REMARK    4  A    between atoms: C_10  and  C_11 
REMARK    5  A    between atoms: C_12  and  C_18 
REMARK    6  A    between atoms: C_22  and  C_23 
REMARK    7  A    between atoms: C_23  and  C_24 
REMARK    8  A    between atoms: C_23  and  N_30 
REMARK    9  A    between atoms: N_30  and  C_31 
REMARK   10  A    between atoms: C_31  and  C_32 
REMARK   11  A    between atoms: C_32  and  C_33 
REMARK   12  A    between atoms: C_33  and  C_34 
REMARK   13  A    between atoms: C_34  and  O_36 
REMARK   14  A    between atoms: C_41  and  O_44 
ROOT
HETATM    1  C   UNK N   1      25.926  15.269   7.187  0.00  0.00     0.069 C 
HETATM    2  C   UNK N   1      25.125  15.150   5.920  0.00  0.00     0.029 A 
HETATM    3  C   UNK N   1      25.412  15.992   4.808  0.00  0.00     0.068 A 
HETATM    4  C   UNK N   1      24.696  15.758   3.616  0.00  0.00     0.264 A 
HETATM    5  O   UNK N   1      24.879  16.476   2.646  0.00  0.00    -0.267 OA
HETATM    6  N   UNK N   1      23.759  14.757   3.539  0.00  0.00    -0.263 N 
HETATM    7  C   UNK N   1      23.459  13.998   4.644  0.00  0.00     0.332 A 
HETATM    8  O   UNK N   1      22.581  13.159   4.552  0.00  0.00    -0.246 OA
HETATM    9  N   UNK N   1      24.146  14.180   5.840  0.00  0.00    -0.298 N 
ENDROOT
BRANCH   6  10
HETATM   10  C   UNK N   1      23.012  14.535   2.286  0.00  0.00     0.166 C 
BRANCH  10  11
HETATM   11  C   UNK N   1      21.683  15.316   2.182  0.00  0.00     0.128 C 
BRANCH  11  12
HETATM   12  C   UNK N   1      20.564  14.639   1.451  0.00  0.00    -0.034 A 
HETATM   13  C   UNK N   1      20.389  13.249   1.532  0.00  0.00     0.009 A 
HETATM   14  C   UNK N   1      19.333  12.636   0.852  0.00  0.00     0.001 A 
HETATM   15  C   UNK N   1      18.450  13.408   0.091  0.00  0.00     0.000 A 
HETATM   16  C   UNK N   1      18.619  14.793   0.014  0.00  0.00     0.001 A 
HETATM   17  C   UNK N   1      19.673  15.409   0.695  0.00  0.00     0.009 A 
ENDBRANCH  11  12
BRANCH  11  18
HETATM   18  N   UNK N   1      21.248  15.936   3.429  0.00  0.00    -0.411 N 
HETATM   19  H   UNK N   1      20.854  15.451   4.235  0.00  0.00     0.153 HD
BRANCH  18  20
HETATM   20  C   UNK N   1      21.476  17.376   3.318  0.00  0.00     0.115 C 
BRANCH  20  21
HETATM   21  C   UNK N   1      20.228  18.121   2.848  0.00  0.00     0.029 C 
BRANCH  21  22
HETATM   22  C   UNK N   1      20.620  19.353   2.045  0.00  0.00     0.111 C 
BRANCH  22  23
HETATM   23  C   UNK N   1      20.817  20.536   2.935  0.00  0.00     0.139 C 
HETATM   24  O   UNK N   1      20.297  20.564   4.038  0.00  0.00    -0.650 OA
BRANCH  23  25
HETATM   25  O   UNK N   1      21.537  21.590   2.506  0.00  0.00    -0.776 OA
HETATM   26  H   UNK N   1      21.103  22.360   2.194  0.00  0.00     0.167 HD
ENDBRANCH  23  25
ENDBRANCH  22  23
ENDBRANCH  21  22
ENDBRANCH  20  21
ENDBRANCH  18  20
ENDBRANCH  11  18
ENDBRANCH  10  11
ENDBRANCH   6  10
BRANCH   3  27
HETATM   27  C   UNK N   1      26.445  17.111   4.829  0.00  0.00     0.023 A 
HETATM   28  C   UNK N   1      27.789  16.772   4.581  0.00  0.00     0.016 A 
HETATM   29  C   UNK N   1      28.793  17.733   4.545  0.00  0.00     0.004 A 
HETATM   30  C   UNK N   1      28.480  19.069   4.747  0.00  0.00     0.040 A 
HETATM   31  C   UNK N   1      27.162  19.467   4.981  0.00  0.00     0.107 A 
HETATM   32  C   UNK N   1      26.131  18.486   5.023  0.00  0.00     0.160 A 
HETATM   33  F   UNK N   1      24.845  18.882   5.174  0.00  0.00    -0.202 F 
BRANCH  31  34
HETATM   34  O   UNK N   1      26.934  20.797   5.143  0.00  0.00    -0.353 OA
HETATM   35  C   UNK N   1      26.873  21.453   6.350  0.00  0.00     0.210 C 
ENDBRANCH  31  34
ENDBRANCH   3  27
BRANCH   9  36
HETATM   36  C   UNK N   1      23.906  13.363   7.064  0.00  0.00     0.176 C 
BRANCH  36  37
HETATM   37  C   UNK N   1      22.771  13.718   8.006  0.00  0.00     0.014 A 
HETATM   38  C   UNK N   1      22.450  12.882   9.108  0.00  0.00     0.058 A 
HETATM   39  C   UNK N   1      21.370  13.223   9.936  0.00  0.00     0.017 A 
HETATM   40  C   UNK N   1      20.614  14.368   9.690  0.00  0.00     0.004 A 
HETATM   41  C   UNK N   1      20.896  15.163   8.583  0.00  0.00     0.043 A 
HETATM   42  C   UNK N   1      21.955  14.837   7.734  0.00  0.00     0.125 A 
HETATM   43  F   UNK N   1      22.188  15.610   6.643  0.00  0.00    -0.205 F 
BRANCH  38  44
HETATM   44  C   UNK N   1      23.219  11.614   9.405  0.00  0.00     0.418 C 
HETATM   45  F   UNK N   1      24.553  11.907   9.626  0.00  0.00    -0.166 F 
HETATM   46  F   UNK N   1      23.149  10.733   8.335  0.00  0.00    -0.166 F 
HETATM   47  F   UNK N   1      22.694  10.995  10.522  0.00  0.00    -0.166 F 
ENDBRANCH  38  44
ENDBRANCH  36  37
ENDBRANCH   9  36
TORSDOF 14
ENDMDL
MODEL 6
REMARK VINA RESULT:      -7.9      2.900      7.309
REMARK  14 active torsions:
REMARK  status: ('A' for Active; 'I' for Inactive)
REMARK    1  A    between atoms: C_3  and  C_37 
REMARK    2  A    between atoms: N_6  and  C_22 
REMARK    3  A    between atoms: N_9  and  C_10 
REMARK    4  A    between atoms: C_10  and  C_11 
REMARK    5  A    between atoms: C_12  and  C_18 
REMARK    6  A    between atoms: C_22  and  C_23 
REMARK    7  A    between atoms: C_23  and  C_24 
REMARK    8  A    between atoms: C_23  and  N_30 
REMARK    9  A    between atoms: N_30  and  C_31 
REMARK   10  A    between atoms: C_31  and  C_32 
REMARK   11  A    between atoms: C_32  and  C_33 
REMARK   12  A    between atoms: C_33  and  C_34 
REMARK   13  A    between atoms: C_34  and  O_36 
REMARK   14  A    between atoms: C_41  and  O_44 
ROOT
HETATM    1  C   UNK N   1      20.788  14.366   6.422  0.00  0.00     0.069 C 
HETATM    2  C   UNK N   1      22.180  14.847   6.118  0.00  0.00     0.029 A 
HETATM    3  C   UNK N   1      23.304  14.227   6.735  0.00  0.00     0.068 A 
HETATM    4  C   UNK N   1      24.585  14.653   6.326  0.00  0.00     0.264 A 
HETATM    5  O   UNK N   1      25.579  14.179   6.852  0.00  0.00    -0.267 OA
HETATM    6  N   UNK N   1      24.733  15.630   5.372  0.00  0.00    -0.263 N 
HETATM    7  C   UNK N   1      23.632  16.253   4.837  0.00  0.00     0.332 A 
HETATM    8  O   UNK N   1      23.807  17.154   4.037  0.00  0.00    -0.246 OA
HETATM    9  N   UNK N   1      22.348  15.860   5.196  0.00  0.00    -0.298 N 
ENDROOT
BRANCH   6  10
HETATM   10  C   UNK N   1      26.081  16.070   4.967  0.00  0.00     0.166 C 
BRANCH  10  11
HETATM   11  C   UNK N   1      26.725  17.117   5.902  0.00  0.00     0.128 C 
BRANCH  11  12
HETATM   12  C   UNK N   1      28.151  16.878   6.297  0.00  0.00    -0.034 A 
HETATM   13  C   UNK N   1      28.939  15.943   5.609  0.00  0.00     0.009 A 
HETATM   14  C   UNK N   1      30.270  15.739   5.984  0.00  0.00     0.001 A 
HETATM   15  C   UNK N   1      30.816  16.468   7.044  0.00  0.00     0.000 A 
HETATM   16  C   UNK N   1      30.034  17.403   7.728  0.00  0.00     0.001 A 
HETATM   17  C   UNK N   1      28.703  17.609   7.353  0.00  0.00     0.009 A 
ENDBRANCH  11  12
BRANCH  11  18
HETATM   18  N   UNK N   1      26.471  18.503   5.522  0.00  0.00    -0.411 N 
HETATM   19  H   UNK N   1      25.984  19.200   6.085  0.00  0.00     0.153 HD
BRANCH  18  20
HETATM   20  C   UNK N   1      27.039  18.715   4.191  0.00  0.00     0.115 C 
BRANCH  20  21
HETATM   21  C   UNK N   1      26.714  20.103   3.643  0.00  0.00     0.029 C 
BRANCH  21  22
HETATM   22  C   UNK N   1      25.298  20.504   4.030  0.00  0.00     0.111 C 
BRANCH  22  23
HETATM   23  C   UNK N   1      24.467  20.784   2.821  0.00  0.00     0.139 C 
HETATM   24  O   UNK N   1      24.913  20.559   1.707  0.00  0.00    -0.650 OA
BRANCH  23  25
HETATM   25  O   UNK N   1      23.240  21.324   2.955  0.00  0.00    -0.776 OA
HETATM   26  H   UNK N   1      22.493  20.887   2.597  0.00  0.00     0.167 HD
ENDBRANCH  23  25
ENDBRANCH  22  23
ENDBRANCH  21  22
ENDBRANCH  20  21
ENDBRANCH  18  20
ENDBRANCH  11  18
ENDBRANCH  10  11
ENDBRANCH   6  10
BRANCH   3  27
HETATM   27  C   UNK N   1      23.203  13.133   7.790  0.00  0.00     0.023 A 
HETATM   28  C   UNK N   1      23.667  11.847   7.453  0.00  0.00     0.016 A 
HETATM   29  C   UNK N   1      23.647  10.798   8.365  0.00  0.00     0.004 A 
HETATM   30  C   UNK N   1      23.168  11.007   9.650  0.00  0.00     0.040 A 
HETATM   31  C   UNK N   1      22.710  12.265  10.047  0.00  0.00     0.107 A 
HETATM   32  C   UNK N   1      22.726  13.341   9.115  0.00  0.00     0.160 A 
HETATM   33  F   UNK N   1      22.352  14.577   9.524  0.00  0.00    -0.202 F 
BRANCH  31  34
HETATM   34  O   UNK N   1      22.282  12.394  11.330  0.00  0.00    -0.353 OA
HETATM   35  C   UNK N   1      22.960  11.955  12.443  0.00  0.00     0.210 C 
ENDBRANCH  31  34
ENDBRANCH   3  27
BRANCH   9  36
HETATM   36  C   UNK N   1      21.108  16.459   4.622  0.00  0.00     0.176 C 
BRANCH  36  37
HETATM   37  C   UNK N   1      20.762  16.235   3.162  0.00  0.00     0.014 A 
HETATM   38  C   UNK N   1      20.476  17.331   2.304  0.00  0.00     0.058 A 
HETATM   39  C   UNK N   1      20.123  17.084   0.969  0.00  0.00     0.017 A 
HETATM   40  C   UNK N   1      20.051  15.782   0.478  0.00  0.00     0.004 A 
HETATM   41  C   UNK N   1      20.284  14.704   1.328  0.00  0.00     0.043 A 
HETATM   42  C   UNK N   1      20.621  14.922   2.665  0.00  0.00     0.125 A 
HETATM   43  F   UNK N   1      20.809  13.854   3.480  0.00  0.00    -0.205 F 
BRANCH  38  44
HETATM   44  C   UNK N   1      20.512  18.763   2.792  0.00  0.00     0.418 C 
HETATM   45  F   UNK N   1      19.240  19.179   3.141  0.00  0.00    -0.166 F 
HETATM   46  F   UNK N   1      20.980  19.610   1.799  0.00  0.00    -0.166 F 
HETATM   47  F   UNK N   1      21.345  18.866   3.889  0.00  0.00    -0.166 F 
ENDBRANCH  38  44
ENDBRANCH  36  37
ENDBRANCH   9  36
TORSDOF 14
ENDMDL
MODEL 7
REMARK VINA RESULT:      -7.8      3.602      7.873
REMARK  14 active torsions:
REMARK  status: ('A' for Active; 'I' for Inactive)
REMARK    1  A    between atoms: C_3  and  C_37 
REMARK    2  A    between atoms: N_6  and  C_22 
REMARK    3  A    between atoms: N_9  and  C_10 
REMARK    4  A    between atoms: C_10  and  C_11 
REMARK    5  A    between atoms: C_12  and  C_18 
REMARK    6  A    between atoms: C_22  and  C_23 
REMARK    7  A    between atoms: C_23  and  C_24 
REMARK    8  A    between atoms: C_23  and  N_30 
REMARK    9  A    between atoms: N_30  and  C_31 
REMARK   10  A    between atoms: C_31  and  C_32 
REMARK   11  A    between atoms: C_32  and  C_33 
REMARK   12  A    between atoms: C_33  and  C_34 
REMARK   13  A    between atoms: C_34  and  O_36 
REMARK   14  A    between atoms: C_41  and  O_44 
ROOT
HETATM    1  C   UNK N   1      26.275  15.920   2.069  0.00  0.00     0.069 C 
HETATM    2  C   UNK N   1      25.919  15.355   3.417  0.00  0.00     0.029 A 
HETATM    3  C   UNK N   1      25.093  14.198   3.514  0.00  0.00     0.068 A 
HETATM    4  C   UNK N   1      24.885  13.657   4.800  0.00  0.00     0.264 A 
HETATM    5  O   UNK N   1      24.155  12.689   4.941  0.00  0.00    -0.267 OA
HETATM    6  N   UNK N   1      25.457  14.231   5.909  0.00  0.00    -0.263 N 
HETATM    7  C   UNK N   1      26.200  15.381   5.793  0.00  0.00     0.332 A 
HETATM    8  O   UNK N   1      26.642  15.891   6.807  0.00  0.00    -0.246 OA
HETATM    9  N   UNK N   1      26.446  15.946   4.547  0.00  0.00    -0.298 N 
ENDROOT
BRANCH   6  10
HETATM   10  C   UNK N   1      25.217  13.657   7.246  0.00  0.00     0.166 C 
BRANCH  10  11
HETATM   11  C   UNK N   1      23.740  13.672   7.698  0.00  0.00     0.128 C 
BRANCH  11  12
HETATM   12  C   UNK N   1      23.448  13.107   9.055  0.00  0.00    -0.034 A 
HETATM   13  C   UNK N   1      22.131  13.028   9.532  0.00  0.00     0.009 A 
HETATM   14  C   UNK N   1      21.875  12.490  10.796  0.00  0.00     0.001 A 
HETATM   15  C   UNK N   1      22.932  12.028  11.585  0.00  0.00     0.000 A 
HETATM   16  C   UNK N   1      24.244  12.100  11.110  0.00  0.00     0.001 A 
HETATM   17  C   UNK N   1      24.502  12.637   9.846  0.00  0.00     0.009 A 
ENDBRANCH  11  12
BRANCH  11  18
HETATM   18  N   UNK N   1      23.047  14.932   7.452  0.00  0.00    -0.411 N 
HETATM   19  H   UNK N   1      23.291  15.839   7.849  0.00  0.00     0.153 HD
BRANCH  18  20
HETATM   20  C   UNK N   1      21.938  14.663   6.537  0.00  0.00     0.115 C 
BRANCH  20  21
HETATM   21  C   UNK N   1      21.698  15.821   5.570  0.00  0.00     0.029 C 
BRANCH  21  22
HETATM   22  C   UNK N   1      22.432  17.066   6.047  0.00  0.00     0.111 C 
BRANCH  22  23
HETATM   23  C   UNK N   1      21.547  18.268   5.994  0.00  0.00     0.139 C 
HETATM   24  O   UNK N   1      21.016  18.680   7.013  0.00  0.00    -0.650 OA
BRANCH  23  25
HETATM   25  O   UNK N   1      21.302  18.875   4.817  0.00  0.00    -0.776 OA
HETATM   26  H   UNK N   1      21.247  18.369   4.031  0.00  0.00     0.167 HD
ENDBRANCH  23  25
ENDBRANCH  22  23
ENDBRANCH  21  22
ENDBRANCH  20  21
ENDBRANCH  18  20
ENDBRANCH  11  18
ENDBRANCH  10  11
ENDBRANCH   6  10
BRANCH   3  27
HETATM   27  C   UNK N   1      24.440  13.512   2.321  0.00  0.00     0.023 A 
HETATM   28  C   UNK N   1      25.152  12.477   1.684  0.00  0.00     0.016 A 
HETATM   29  C   UNK N   1      24.618  11.773   0.612  0.00  0.00     0.004 A 
HETATM   30  C   UNK N   1      23.347  12.077   0.147  0.00  0.00     0.040 A 
HETATM   31  C   UNK N   1      22.588  13.082   0.749  0.00  0.00     0.107 A 
HETATM   32  C   UNK N   1      23.132  13.809   1.846  0.00  0.00     0.160 A 
HETATM   33  F   UNK N   1      22.365  14.731   2.475  0.00  0.00    -0.202 F 
BRANCH  31  34
HETATM   34  O   UNK N   1      21.342  13.302   0.252  0.00  0.00    -0.353 OA
HETATM   35  C   UNK N   1      20.173  13.228   0.973  0.00  0.00     0.210 C 
ENDBRANCH  31  34
ENDBRANCH   3  27
BRANCH   9  36
HETATM   36  C   UNK N   1      27.281  17.164   4.342  0.00  0.00     0.176 C 
BRANCH  36  37
HETATM   37  C   UNK N   1      27.087  18.378   5.232  0.00  0.00     0.014 A 
HETATM   38  C   UNK N   1      26.061  19.322   4.962  0.00  0.00     0.058 A 
HETATM   39  C   UNK N   1      25.935  20.451   5.786  0.00  0.00     0.017 A 
HETATM   40  C   UNK N   1      26.800  20.655   6.858  0.00  0.00     0.004 A 
HETATM   41  C   UNK N   1      27.836  19.756   7.096  0.00  0.00     0.043 A 
HETATM   42  C   UNK N   1      27.995  18.633   6.282  0.00  0.00     0.125 A 
HETATM   43  F   UNK N   1      29.033  17.791   6.514  0.00  0.00    -0.205 F 
BRANCH  38  44
HETATM   44  C   UNK N   1      25.112  19.165   3.795  0.00  0.00     0.418 C 
HETATM   45  F   UNK N   1      24.367  18.008   3.940  0.00  0.00    -0.166 F 
HETATM   46  F   UNK N   1      25.810  19.075   2.601  0.00  0.00    -0.166 F 
HETATM   47  F   UNK N   1      24.262  20.252   3.730  0.00  0.00    -0.166 F 
ENDBRANCH  38  44
ENDBRANCH  36  37
ENDBRANCH   9  36
TORSDOF 14
ENDMDL
MODEL 8
REMARK VINA RESULT:      -7.8      2.105      6.016
REMARK  14 active torsions:
REMARK  status: ('A' for Active; 'I' for Inactive)
REMARK    1  A    between atoms: C_3  and  C_37 
REMARK    2  A    between atoms: N_6  and  C_22 
REMARK    3  A    between atoms: N_9  and  C_10 
REMARK    4  A    between atoms: C_10  and  C_11 
REMARK    5  A    between atoms: C_12  and  C_18 
REMARK    6  A    between atoms: C_22  and  C_23 
REMARK    7  A    between atoms: C_23  and  C_24 
REMARK    8  A    between atoms: C_23  and  N_30 
REMARK    9  A    between atoms: N_30  and  C_31 
REMARK   10  A    between atoms: C_31  and  C_32 
REMARK   11  A    between atoms: C_32  and  C_33 
REMARK   12  A    between atoms: C_33  and  C_34 
REMARK   13  A    between atoms: C_34  and  O_36 
REMARK   14  A    between atoms: C_41  and  O_44 
ROOT
HETATM    1  C   UNK N   1      22.035  15.297   6.644  0.00  0.00     0.069 C 
HETATM    2  C   UNK N   1      23.383  15.520   6.016  0.00  0.00     0.029 A 
HETATM    3  C   UNK N   1      24.479  14.676   6.351  0.00  0.00     0.068 A 
HETATM    4  C   UNK N   1      25.686  14.871   5.649  0.00  0.00     0.264 A 
HETATM    5  O   UNK N   1      26.666  14.198   5.925  0.00  0.00    -0.267 OA
HETATM    6  N   UNK N   1      25.792  15.841   4.682  0.00  0.00    -0.263 N 
HETATM    7  C   UNK N   1      24.737  16.681   4.420  0.00  0.00     0.332 A 
HETATM    8  O   UNK N   1      24.889  17.566   3.598  0.00  0.00    -0.246 OA
HETATM    9  N   UNK N   1      23.521  16.521   5.076  0.00  0.00    -0.298 N 
ENDROOT
BRANCH   6  10
HETATM   10  C   UNK N   1      27.067  16.038   3.966  0.00  0.00     0.166 C 
BRANCH  10  11
HETATM   11  C   UNK N   1      28.150  16.787   4.773  0.00  0.00     0.128 C 
BRANCH  11  12
HETATM   12  C   UNK N   1      27.848  18.205   5.147  0.00  0.00    -0.034 A 
HETATM   13  C   UNK N   1      27.810  18.602   6.493  0.00  0.00     0.009 A 
HETATM   14  C   UNK N   1      27.536  19.932   6.823  0.00  0.00     0.001 A 
HETATM   15  C   UNK N   1      27.300  20.868   5.813  0.00  0.00     0.000 A 
HETATM   16  C   UNK N   1      27.341  20.477   4.472  0.00  0.00     0.001 A 
HETATM   17  C   UNK N   1      27.617  19.147   4.139  0.00  0.00     0.009 A 
ENDBRANCH  11  12
BRANCH  11  18
HETATM   18  N   UNK N   1      28.715  16.021   5.880  0.00  0.00    -0.411 N 
HETATM   19  H   UNK N   1      28.245  15.799   6.757  0.00  0.00     0.153 HD
BRANCH  18  20
HETATM   20  C   UNK N   1      30.074  15.631   5.509  0.00  0.00     0.115 C 
BRANCH  20  21
HETATM   21  C   UNK N   1      31.057  15.801   6.667  0.00  0.00     0.029 C 
BRANCH  21  22
HETATM   22  C   UNK N   1      31.364  17.276   6.885  0.00  0.00     0.111 C 
BRANCH  22  23
HETATM   23  C   UNK N   1      31.414  17.607   8.340  0.00  0.00     0.139 C 
HETATM   24  O   UNK N   1      30.567  18.336   8.829  0.00  0.00    -0.650 OA
BRANCH  23  25
HETATM   25  O   UNK N   1      32.416  17.135   9.106  0.00  0.00    -0.776 OA
HETATM   26  H   UNK N   1      32.759  17.656   9.804  0.00  0.00     0.167 HD
ENDBRANCH  23  25
ENDBRANCH  22  23
ENDBRANCH  21  22
ENDBRANCH  20  21
ENDBRANCH  18  20
ENDBRANCH  11  18
ENDBRANCH  10  11
ENDBRANCH   6  10
BRANCH   3  27
HETATM   27  C   UNK N   1      24.420  13.577   7.405  0.00  0.00     0.023 A 
HETATM   28  C   UNK N   1      24.818  13.900   8.717  0.00  0.00     0.016 A 
HETATM   29  C   UNK N   1      24.763  12.971   9.749  0.00  0.00     0.004 A 
HETATM   30  C   UNK N   1      24.297  11.688   9.501  0.00  0.00     0.040 A 
HETATM   31  C   UNK N   1      23.873  11.315   8.225  0.00  0.00     0.107 A 
HETATM   32  C   UNK N   1      23.932  12.262   7.163  0.00  0.00     0.160 A 
HETATM   33  F   UNK N   1      23.450  11.922   5.944  0.00  0.00    -0.202 F 
BRANCH  31  34
HETATM   34  O   UNK N   1      23.405  10.048   8.070  0.00  0.00    -0.353 OA
HETATM   35  C   UNK N   1      23.987   9.074   7.295  0.00  0.00     0.210 C 
ENDBRANCH  31  34
ENDBRANCH   3  27
BRANCH   9  36
HETATM   36  C   UNK N   1      22.320  17.365   4.810  0.00  0.00     0.176 C 
BRANCH  36  37
HETATM   37  C   UNK N   1      21.588  17.249   3.486  0.00  0.00     0.014 A 
HETATM   38  C   UNK N   1      21.136  18.407   2.800  0.00  0.00     0.058 A 
HETATM   39  C   UNK N   1      20.429  18.260   1.597  0.00  0.00     0.017 A 
HETATM   40  C   UNK N   1      20.169  16.996   1.071  0.00  0.00     0.004 A 
HETATM   41  C   UNK N   1      20.570  15.858   1.765  0.00  0.00     0.043 A 
HETATM   42  C   UNK N   1      21.259  15.976   2.973  0.00  0.00     0.125 A 
HETATM   43  F   UNK N   1      21.608  14.851   3.646  0.00  0.00    -0.205 F 
BRANCH  38  44
HETATM   44  C   UNK N   1      21.366  19.801   3.339  0.00  0.00     0.418 C 
HETATM   45  F   UNK N   1      20.855  20.742   2.463  0.00  0.00    -0.166 F 
HETATM   46  F   UNK N   1      22.721  20.053   3.491  0.00  0.00    -0.166 F 
HETATM   47  F   UNK N   1      20.751  19.938   4.568  0.00  0.00    -0.166 F 
ENDBRANCH  38  44
ENDBRANCH  36  37
ENDBRANCH   9  36
TORSDOF 14
ENDMDL
MODEL 9
REMARK VINA RESULT:      -7.8      3.532      8.741
REMARK  14 active torsions:
REMARK  status: ('A' for Active; 'I' for Inactive)
REMARK    1  A    between atoms: C_3  and  C_37 
REMARK    2  A    between atoms: N_6  and  C_22 
REMARK    3  A    between atoms: N_9  and  C_10 
REMARK    4  A    between atoms: C_10  and  C_11 
REMARK    5  A    between atoms: C_12  and  C_18 
REMARK    6  A    between atoms: C_22  and  C_23 
REMARK    7  A    between atoms: C_23  and  C_24 
REMARK    8  A    between atoms: C_23  and  N_30 
REMARK    9  A    between atoms: N_30  and  C_31 
REMARK   10  A    between atoms: C_31  and  C_32 
REMARK   11  A    between atoms: C_32  and  C_33 
REMARK   12  A    between atoms: C_33  and  C_34 
REMARK   13  A    between atoms: C_34  and  O_36 
REMARK   14  A    between atoms: C_41  and  O_44 
ROOT
HETATM    1  C   UNK N   1      25.769  15.103   6.912  0.00  0.00     0.069 C 
HETATM    2  C   UNK N   1      24.507  15.397   6.150  0.00  0.00     0.029 A 
HETATM    3  C   UNK N   1      23.334  14.622   6.377  0.00  0.00     0.068 A 
HETATM    4  C   UNK N   1      22.157  15.016   5.709  0.00  0.00     0.264 A 
HETATM    5  O   UNK N   1      21.135  14.363   5.842  0.00  0.00    -0.267 OA
HETATM    6  N   UNK N   1      22.150  16.105   4.873  0.00  0.00    -0.263 N 
HETATM    7  C   UNK N   1      23.310  16.800   4.625  0.00  0.00     0.332 A 
HETATM    8  O   UNK N   1      23.275  17.723   3.832  0.00  0.00    -0.246 OA
HETATM    9  N   UNK N   1      24.494  16.459   5.269  0.00  0.00    -0.298 N 
ENDROOT
BRANCH   6  10
HETATM   10  C   UNK N   1      20.911  16.495   4.174  0.00  0.00     0.166 C 
BRANCH  10  11
HETATM   11  C   UNK N   1      21.035  16.573   2.636  0.00  0.00     0.128 C 
BRANCH  11  12
HETATM   12  C   UNK N   1      20.835  15.294   1.882  0.00  0.00    -0.034 A 
HETATM   13  C   UNK N   1      19.548  14.860   1.532  0.00  0.00     0.009 A 
HETATM   14  C   UNK N   1      19.380  13.669   0.819  0.00  0.00     0.001 A 
HETATM   15  C   UNK N   1      20.495  12.911   0.454  0.00  0.00     0.000 A 
HETATM   16  C   UNK N   1      21.779  13.344   0.797  0.00  0.00     0.001 A 
HETATM   17  C   UNK N   1      21.949  14.535   1.508  0.00  0.00     0.009 A 
ENDBRANCH  11  12
BRANCH  11  18
HETATM   18  N   UNK N   1      20.334  17.700   2.030  0.00  0.00    -0.411 N 
HETATM   19  H   UNK N   1      20.303  17.922   1.035  0.00  0.00     0.153 HD
BRANCH  18  20
HETATM   20  C   UNK N   1      19.685  18.454   3.102  0.00  0.00     0.115 C 
BRANCH  20  21
HETATM   21  C   UNK N   1      20.159  19.906   3.151  0.00  0.00     0.029 C 
BRANCH  21  22
HETATM   22  C   UNK N   1      21.321  20.113   2.190  0.00  0.00     0.111 C 
BRANCH  22  23
HETATM   23  C   UNK N   1      20.865  20.761   0.924  0.00  0.00     0.139 C 
HETATM   24  O   UNK N   1      20.704  21.970   0.880  0.00  0.00    -0.650 OA
BRANCH  23  25
HETATM   25  O   UNK N   1      20.592  20.009  -0.159  0.00  0.00    -0.776 OA
HETATM   26  H   UNK N   1      20.296  19.126  -0.056  0.00  0.00     0.167 HD
ENDBRANCH  23  25
ENDBRANCH  22  23
ENDBRANCH  21  22
ENDBRANCH  20  21
ENDBRANCH  18  20
ENDBRANCH  11  18
ENDBRANCH  10  11
ENDBRANCH   6  10
BRANCH   3  27
HETATM   27  C   UNK N   1      23.277  13.411   7.300  0.00  0.00     0.023 A 
HETATM   28  C   UNK N   1      23.815  12.198   6.831  0.00  0.00     0.016 A 
HETATM   29  C   UNK N   1      23.838  11.052   7.617  0.00  0.00     0.004 A 
HETATM   30  C   UNK N   1      23.329  11.089   8.908  0.00  0.00     0.040 A 
HETATM   31  C   UNK N   1      22.797  12.268   9.434  0.00  0.00     0.107 A 
HETATM   32  C   UNK N   1      22.768  13.442   8.629  0.00  0.00     0.160 A 
HETATM   33  F   UNK N   1      22.322  14.602   9.167  0.00  0.00    -0.202 F 
BRANCH  31  34
HETATM   34  O   UNK N   1      22.344  12.227  10.714  0.00  0.00    -0.353 OA
HETATM   35  C   UNK N   1      21.024  12.303  11.094  0.00  0.00     0.210 C 
ENDBRANCH  31  34
ENDBRANCH   3  27
BRANCH   9  36
HETATM   36  C   UNK N   1      25.777  17.196   5.084  0.00  0.00     0.176 C 
BRANCH  36  37
HETATM   37  C   UNK N   1      26.873  16.610   4.213  0.00  0.00     0.014 A 
HETATM   38  C   UNK N   1      28.241  16.882   4.482  0.00  0.00     0.058 A 
HETATM   39  C   UNK N   1      29.225  16.352   3.634  0.00  0.00     0.017 A 
HETATM   40  C   UNK N   1      28.877  15.566   2.537  0.00  0.00     0.004 A 
HETATM   41  C   UNK N   1      27.535  15.337   2.244  0.00  0.00     0.043 A 
HETATM   42  C   UNK N   1      26.535  15.866   3.062  0.00  0.00     0.125 A 
HETATM   43  F   UNK N   1      25.235  15.657   2.735  0.00  0.00    -0.205 F 
BRANCH  38  44
HETATM   44  C   UNK N   1      28.674  17.751   5.642  0.00  0.00     0.418 C 
HETATM   45  F   UNK N   1      30.055  17.803   5.708  0.00  0.00    -0.166 F 
HETATM   46  F   UNK N   1      28.210  17.237   6.843  0.00  0.00    -0.166 F 
HETATM   47  F   UNK N   1      28.173  19.029   5.485  0.00  0.00    -0.166 F 
ENDBRANCH  38  44
ENDBRANCH  36  37
ENDBRANCH   9  36
TORSDOF 14
ENDMDL
