REMARK  2 active torsions:
REMARK  status: ('A' for Active; 'I' for Inactive)
REMARK    1  A    between atoms: C_9  and  C_12 
REMARK    2  A    between atoms: C_12  and  O_13 
ROOT
HETATM    1  C   UNK N   1      16.336  -4.583   0.000  0.00  0.00     0.001 A 
HETATM    2  C   UNK N   1      16.361  -3.185   0.000  0.00  0.00     0.002 A 
HETATM    3  C   UNK N   1      15.115  -5.267  -0.000  0.00  0.00     0.018 A 
HETATM    4  C   UNK N   1      15.166  -2.463   0.000  0.00  0.00     0.030 A 
HETATM    5  C   UNK N   1      13.910  -4.550  -0.000  0.00  0.00     0.041 A 
HETATM    6  C   UNK N   1      13.943  -3.138   0.000  0.00  0.00     0.047 A 
HETATM    7  C   UNK N   1      11.494  -4.441  -0.000  0.00  0.00     0.092 A 
HETATM    8  C   UNK N   1      12.665  -5.201  -0.000  0.00  0.00     0.186 A 
HETATM    9  C   UNK N   1      11.572  -3.043  -0.000  0.00  0.00     0.111 A 
HETATM   10  N   UNK N   1      12.787  -2.430   0.000  0.00  0.00    -0.350 N 
HETATM   11  O   UNK N   1      12.594  -6.418  -0.000  0.00  0.00    -0.287 OA
HETATM   12  H   UNK N   1      12.827  -1.446   0.000  0.00  0.00     0.166 HD
ENDROOT
BRANCH   9  13
HETATM   13  C   UNK N   1      10.354  -2.224  -0.000  0.00  0.00     0.193 C 
HETATM   14  O   UNK N   1      10.437  -1.007  -0.000  0.00  0.00    -0.645 OA
BRANCH  13  15
HETATM   15  O   UNK N   1       9.140  -2.810   0.000  0.00  0.00    -0.772 OA
HETATM   16  H   UNK N   1       8.366  -2.282   0.000  0.00  0.00     0.167 HD
ENDBRANCH  13  15
ENDBRANCH   9  13
TORSDOF 2
