MODEL 1
REMARK VINA RESULT:      -8.8      0.000      0.000
REMARK  8 active torsions:
REMARK  status: ('A' for Active; 'I' for Inactive)
REMARK    1  A    between atoms: C_4  and  O_10 
REMARK    2  A    between atoms: C_7  and  N_8 
REMARK    3  A    between atoms: O_10  and  C_11 
REMARK    4  A    between atoms: C_18  and  C_21 
REMARK    5  A    between atoms: C_21  and  O_22 
REMARK    6  A    between atoms: O_22  and  C_23 
REMARK    7  A    between atoms: C_26  and  C_29 
REMARK    8  A    between atoms: C_29  and  C_30 
ROOT
HETATM    1  C   UNK N   1      35.048  13.064  12.759  0.00  0.00     0.078 A 
HETATM    2  C   UNK N   1      35.809  14.116  13.344  0.00  0.00     0.039 A 
HETATM    3  C   UNK N   1      36.126  15.268  12.604  0.00  0.00     0.035 A 
HETATM    4  C   UNK N   1      35.649  15.329  11.301  0.00  0.00     0.060 A 
HETATM    5  C   UNK N   1      35.015  14.272  10.716  0.00  0.00     0.065 A 
HETATM    6  C   UNK N   1      34.708  13.108  11.400  0.00  0.00     0.069 A 
HETATM    7  N   UNK N   1      34.585  14.640   9.512  0.00  0.00    -0.337 N 
HETATM    8  C   UNK N   1      34.894  15.949   9.408  0.00  0.00     0.108 A 
HETATM    9  N   UNK N   1      35.579  16.407  10.493  0.00  0.00    -0.342 N 
ATOM     10  HN  UNK N   1      35.951  17.342  10.656  1.00  0.00     0.167 HD
HETATM   11  C   UNK N   1      33.774  13.854   8.593  0.00  0.00     0.158 C 
ENDROOT
BRANCH   8  12
HETATM   12  C   UNK N   1      34.248  16.811   8.374  0.00  0.00     0.252 C 
BRANCH  12  13
HETATM   13  O   UNK N   1      33.234  17.626   8.793  0.00  0.00    -0.344 OA
BRANCH  13  14
HETATM   14  C   UNK N   1      31.975  17.548   8.336  0.00  0.00     0.069 A 
HETATM   15  C   UNK N   1      30.982  18.237   9.030  0.00  0.00     0.037 A 
HETATM   16  C   UNK N   1      29.686  18.267   8.541  0.00  0.00     0.010 A 
HETATM   17  C   UNK N   1      29.382  17.633   7.333  0.00  0.00    -0.056 A 
HETATM   18  C   UNK N   1      30.362  16.902   6.654  0.00  0.00     0.010 A 
HETATM   19  C   UNK N   1      31.659  16.842   7.167  0.00  0.00     0.037 A 
BRANCH  17  20
HETATM   20  C   UNK N   1      28.083  17.923   6.657  0.00  0.00     0.063 C 
BRANCH  20  21
HETATM   21  C   UNK N   1      28.244  18.856   5.427  0.00  0.00     0.153 A 
HETATM   22  C   UNK N   1      27.569  20.209   5.561  0.00  0.00     0.239 A 
HETATM   23  O   UNK N   1      27.857  21.006   6.441  0.00  0.00    -0.272 OA
HETATM   24  N   UNK N   1      26.583  20.466   4.691  0.00  0.00    -0.287 N 
HETATM   25  C   UNK N   1      26.383  19.479   3.814  0.00  0.00     0.287 A 
HETATM   26  H   UNK N   1      26.060  21.301   4.698  0.00  0.00     0.172 HD
HETATM   27  O   UNK N   1      25.510  19.548   2.965  0.00  0.00    -0.260 OA
HETATM   28  S   UNK N   1      27.473  18.067   3.954  0.00  0.00    -0.054 SA
ENDBRANCH  20  21
ENDBRANCH  17  20
ENDBRANCH  13  14
ENDBRANCH  12  13
ENDBRANCH   8  12
BRANCH   1  29
HETATM   29  O   UNK N   1      34.286  12.305  13.578  0.00  0.00    -0.311 OA
BRANCH  29  30
HETATM   30  C   UNK N   1      34.819  11.994  14.805  0.00  0.00     0.077 A 
HETATM   31  C   UNK N   1      35.378  10.713  15.032  0.00  0.00     0.046 A 
HETATM   32  C   UNK N   1      35.827  10.322  16.281  0.00  0.00    -0.033 A 
HETATM   33  C   UNK N   1      36.369   8.941  16.452  0.00  0.00     0.050 C 
HETATM   34  C   UNK N   1      35.736  11.212  17.354  0.00  0.00     0.037 A 
HETATM   35  C   UNK N   1      35.216  12.508  17.144  0.00  0.00    -0.033 A 
HETATM   36  C   UNK N   1      34.763  12.896  15.870  0.00  0.00     0.046 A 
HETATM   37  C   UNK N   1      35.114  13.471  18.274  0.00  0.00     0.050 C 
BRANCH  34  38
HETATM   38  N   UNK N   1      36.156  10.808  18.641  0.00  0.00    -0.398 N 
HETATM   39  H   UNK N   1      35.625  10.970  19.455  0.00  0.00     0.156 HD
HETATM   40  H   UNK N   1      37.020  10.343  18.730  0.00  0.00     0.156 HD
ENDBRANCH  34  38
ENDBRANCH  29  30
ENDBRANCH   1  29
TORSDOF 8
ENDMDL
MODEL 2
REMARK VINA RESULT:      -8.7      2.917      4.869
REMARK  8 active torsions:
REMARK  status: ('A' for Active; 'I' for Inactive)
REMARK    1  A    between atoms: C_4  and  O_10 
REMARK    2  A    between atoms: C_7  and  N_8 
REMARK    3  A    between atoms: O_10  and  C_11 
REMARK    4  A    between atoms: C_18  and  C_21 
REMARK    5  A    between atoms: C_21  and  O_22 
REMARK    6  A    between atoms: O_22  and  C_23 
REMARK    7  A    between atoms: C_26  and  C_29 
REMARK    8  A    between atoms: C_29  and  C_30 
ROOT
HETATM    1  C   UNK N   1      35.395  10.662  16.512  0.00  0.00     0.078 A 
HETATM    2  C   UNK N   1      34.422  10.071  15.657  0.00  0.00     0.039 A 
HETATM    3  C   UNK N   1      33.995  10.730  14.492  0.00  0.00     0.035 A 
HETATM    4  C   UNK N   1      34.578  11.961  14.217  0.00  0.00     0.060 A 
HETATM    5  C   UNK N   1      35.427  12.568  15.096  0.00  0.00     0.065 A 
HETATM    6  C   UNK N   1      35.852  11.966  16.269  0.00  0.00     0.069 A 
HETATM    7  N   UNK N   1      35.905  13.676  14.538  0.00  0.00    -0.337 N 
HETATM    8  C   UNK N   1      35.400  13.692  13.287  0.00  0.00     0.108 A 
HETATM    9  N   UNK N   1      34.550  12.652  13.060  0.00  0.00    -0.342 N 
ATOM     10  HN  UNK N   1      34.018  12.445  12.214  1.00  0.00     0.167 HD
HETATM   11  C   UNK N   1      36.916  14.569  15.087  0.00  0.00     0.158 C 
ENDROOT
BRANCH   8  12
HETATM   12  C   UNK N   1      35.994  14.562  12.230  0.00  0.00     0.252 C 
BRANCH  12  13
HETATM   13  O   UNK N   1      35.668  14.274  10.934  0.00  0.00    -0.344 OA
BRANCH  13  14
HETATM   14  C   UNK N   1      34.977  15.100  10.136  0.00  0.00     0.069 A 
HETATM   15  C   UNK N   1      33.890  14.579   9.436  0.00  0.00     0.037 A 
HETATM   16  C   UNK N   1      33.086  15.416   8.677  0.00  0.00     0.010 A 
HETATM   17  C   UNK N   1      33.348  16.788   8.640  0.00  0.00    -0.056 A 
HETATM   18  C   UNK N   1      34.463  17.312   9.303  0.00  0.00     0.010 A 
HETATM   19  C   UNK N   1      35.293  16.463  10.037  0.00  0.00     0.037 A 
BRANCH  17  20
HETATM   20  C   UNK N   1      32.319  17.717   8.087  0.00  0.00     0.063 C 
BRANCH  20  21
HETATM   21  C   UNK N   1      30.870  17.255   8.395  0.00  0.00     0.153 A 
HETATM   22  C   UNK N   1      30.043  16.894   7.173  0.00  0.00     0.239 A 
HETATM   23  O   UNK N   1      30.364  16.006   6.399  0.00  0.00    -0.272 OA
HETATM   24  N   UNK N   1      28.960  17.650   6.948  0.00  0.00    -0.287 N 
HETATM   25  C   UNK N   1      28.771  18.591   7.877  0.00  0.00     0.287 A 
HETATM   26  H   UNK N   1      28.363  17.523   6.175  0.00  0.00     0.172 HD
HETATM   27  O   UNK N   1      27.839  19.375   7.810  0.00  0.00    -0.260 OA
HETATM   28  S   UNK N   1      29.953  18.621   9.220  0.00  0.00    -0.054 SA
ENDBRANCH  20  21
ENDBRANCH  17  20
ENDBRANCH  13  14
ENDBRANCH  12  13
ENDBRANCH   8  12
BRANCH   1  29
HETATM   29  O   UNK N   1      36.188   9.838  17.233  0.00  0.00    -0.311 OA
BRANCH  29  30
HETATM   30  C   UNK N   1      35.941   9.768  18.582  0.00  0.00     0.077 A 
HETATM   31  C   UNK N   1      34.636   9.480  19.050  0.00  0.00     0.046 A 
HETATM   32  C   UNK N   1      34.320   9.506  20.397  0.00  0.00    -0.033 A 
HETATM   33  C   UNK N   1      32.913   9.229  20.812  0.00  0.00     0.050 C 
HETATM   34  C   UNK N   1      35.311   9.820  21.330  0.00  0.00     0.037 A 
HETATM   35  C   UNK N   1      36.629  10.075  20.890  0.00  0.00    -0.033 A 
HETATM   36  C   UNK N   1      36.940  10.044  19.518  0.00  0.00     0.046 A 
HETATM   37  C   UNK N   1      37.700  10.407  21.868  0.00  0.00     0.050 C 
BRANCH  34  38
HETATM   38  N   UNK N   1      34.990   9.887  22.704  0.00  0.00    -0.398 N 
HETATM   39  H   UNK N   1      35.456  10.482  23.336  0.00  0.00     0.156 HD
HETATM   40  H   UNK N   1      34.265   9.314  23.046  0.00  0.00     0.156 HD
ENDBRANCH  34  38
ENDBRANCH  29  30
ENDBRANCH   1  29
TORSDOF 8
ENDMDL
MODEL 3
REMARK VINA RESULT:      -8.7      2.281      3.687
REMARK  8 active torsions:
REMARK  status: ('A' for Active; 'I' for Inactive)
REMARK    1  A    between atoms: C_4  and  O_10 
REMARK    2  A    between atoms: C_7  and  N_8 
REMARK    3  A    between atoms: O_10  and  C_11 
REMARK    4  A    between atoms: C_18  and  C_21 
REMARK    5  A    between atoms: C_21  and  O_22 
REMARK    6  A    between atoms: O_22  and  C_23 
REMARK    7  A    between atoms: C_26  and  C_29 
REMARK    8  A    between atoms: C_29  and  C_30 
ROOT
HETATM    1  C   UNK N   1      35.859  10.280  14.554  0.00  0.00     0.078 A 
HETATM    2  C   UNK N   1      37.086  10.842  15.010  0.00  0.00     0.039 A 
HETATM    3  C   UNK N   1      37.802  11.746  14.208  0.00  0.00     0.035 A 
HETATM    4  C   UNK N   1      37.247  12.070  12.976  0.00  0.00     0.060 A 
HETATM    5  C   UNK N   1      36.129  11.446  12.503  0.00  0.00     0.065 A 
HETATM    6  C   UNK N   1      35.409  10.528  13.249  0.00  0.00     0.069 A 
HETATM    7  N   UNK N   1      35.770  12.017  11.357  0.00  0.00    -0.337 N 
HETATM    8  C   UNK N   1      36.631  13.040  11.182  0.00  0.00     0.108 A 
HETATM    9  N   UNK N   1      37.580  13.090  12.159  0.00  0.00    -0.342 N 
ATOM     10  HN  UNK N   1      38.359  13.742  12.249  1.00  0.00     0.167 HD
HETATM   11  C   UNK N   1      34.580  11.728  10.570  0.00  0.00     0.158 C 
ENDROOT
BRANCH   8  12
HETATM   12  C   UNK N   1      36.331  14.142  10.221  0.00  0.00     0.252 C 
BRANCH  12  13
HETATM   13  O   UNK N   1      35.446  15.099  10.632  0.00  0.00    -0.344 OA
BRANCH  13  14
HETATM   14  C   UNK N   1      34.523  15.656   9.834  0.00  0.00     0.069 A 
HETATM   15  C   UNK N   1      33.355  14.939   9.584  0.00  0.00     0.037 A 
HETATM   16  C   UNK N   1      32.330  15.514   8.847  0.00  0.00     0.010 A 
HETATM   17  C   UNK N   1      32.458  16.826   8.383  0.00  0.00    -0.056 A 
HETATM   18  C   UNK N   1      33.645  17.535   8.591  0.00  0.00     0.010 A 
HETATM   19  C   UNK N   1      34.690  16.942   9.301  0.00  0.00     0.037 A 
BRANCH  17  20
HETATM   20  C   UNK N   1      31.255  17.544   7.869  0.00  0.00     0.063 C 
BRANCH  20  21
HETATM   21  C   UNK N   1      30.619  16.839   6.641  0.00  0.00     0.153 A 
HETATM   22  C   UNK N   1      31.145  17.306   5.295  0.00  0.00     0.239 A 
HETATM   23  O   UNK N   1      32.320  17.213   4.978  0.00  0.00    -0.272 OA
HETATM   24  N   UNK N   1      30.254  17.892   4.483  0.00  0.00    -0.287 N 
HETATM   25  C   UNK N   1      29.021  17.934   4.996  0.00  0.00     0.287 A 
HETATM   26  H   UNK N   1      30.486  18.253   3.597  0.00  0.00     0.172 HD
HETATM   27  O   UNK N   1      28.096  18.450   4.391  0.00  0.00    -0.260 OA
HETATM   28  S   UNK N   1      28.811  17.182   6.606  0.00  0.00    -0.054 SA
ENDBRANCH  20  21
ENDBRANCH  17  20
ENDBRANCH  13  14
ENDBRANCH  12  13
ENDBRANCH   8  12
BRANCH   1  29
HETATM   29  O   UNK N   1      34.942   9.925  15.482  0.00  0.00    -0.311 OA
BRANCH  29  30
HETATM   30  C   UNK N   1      35.000  10.581  16.688  0.00  0.00     0.077 A 
HETATM   31  C   UNK N   1      35.047  11.996  16.724  0.00  0.00     0.046 A 
HETATM   32  C   UNK N   1      35.215  12.692  17.908  0.00  0.00    -0.033 A 
HETATM   33  C   UNK N   1      35.294  14.182  17.863  0.00  0.00     0.050 C 
HETATM   34  C   UNK N   1      35.337  11.987  19.108  0.00  0.00     0.037 A 
HETATM   35  C   UNK N   1      35.256  10.578  19.101  0.00  0.00    -0.033 A 
HETATM   36  C   UNK N   1      35.084   9.880  17.892  0.00  0.00     0.046 A 
HETATM   37  C   UNK N   1      35.380   9.809  20.370  0.00  0.00     0.050 C 
BRANCH  34  38
HETATM   38  N   UNK N   1      35.547  12.687  20.318  0.00  0.00    -0.398 N 
HETATM   39  H   UNK N   1      36.194  13.424  20.407  0.00  0.00     0.156 HD
HETATM   40  H   UNK N   1      35.021  12.427  21.109  0.00  0.00     0.156 HD
ENDBRANCH  34  38
ENDBRANCH  29  30
ENDBRANCH   1  29
TORSDOF 8
ENDMDL
MODEL 4
REMARK VINA RESULT:      -8.6      4.173     12.387
REMARK  8 active torsions:
REMARK  status: ('A' for Active; 'I' for Inactive)
REMARK    1  A    between atoms: C_4  and  O_10 
REMARK    2  A    between atoms: C_7  and  N_8 
REMARK    3  A    between atoms: O_10  and  C_11 
REMARK    4  A    between atoms: C_18  and  C_21 
REMARK    5  A    between atoms: C_21  and  O_22 
REMARK    6  A    between atoms: O_22  and  C_23 
REMARK    7  A    between atoms: C_26  and  C_29 
REMARK    8  A    between atoms: C_29  and  C_30 
ROOT
HETATM    1  C   UNK N   1      33.481  15.795   7.269  0.00  0.00     0.078 A 
HETATM    2  C   UNK N   1      32.754  14.572   7.203  0.00  0.00     0.039 A 
HETATM    3  C   UNK N   1      32.956  13.565   8.162  0.00  0.00     0.035 A 
HETATM    4  C   UNK N   1      33.876  13.832   9.169  0.00  0.00     0.060 A 
HETATM    5  C   UNK N   1      34.645  14.959   9.163  0.00  0.00     0.065 A 
HETATM    6  C   UNK N   1      34.498  15.964   8.220  0.00  0.00     0.069 A 
HETATM    7  N   UNK N   1      35.357  15.002  10.284  0.00  0.00    -0.337 N 
HETATM    8  C   UNK N   1      34.954  13.934  11.003  0.00  0.00     0.108 A 
HETATM    9  N   UNK N   1      34.049  13.169  10.330  0.00  0.00    -0.342 N 
ATOM     10  HN  UNK N   1      33.609  12.300  10.633  1.00  0.00     0.167 HD
HETATM   11  C   UNK N   1      36.230  16.079  10.728  0.00  0.00     0.158 C 
ENDROOT
BRANCH   8  12
HETATM   12  C   UNK N   1      35.235  13.842  12.466  0.00  0.00     0.252 C 
BRANCH  12  13
HETATM   13  O   UNK N   1      34.411  13.042  13.208  0.00  0.00    -0.344 OA
BRANCH  13  14
HETATM   14  C   UNK N   1      34.846  12.179  14.138  0.00  0.00     0.069 A 
HETATM   15  C   UNK N   1      36.169  12.283  14.562  0.00  0.00     0.037 A 
HETATM   16  C   UNK N   1      36.634  11.480  15.592  0.00  0.00     0.010 A 
HETATM   17  C   UNK N   1      35.765  10.587  16.226  0.00  0.00    -0.056 A 
HETATM   18  C   UNK N   1      34.449  10.445  15.775  0.00  0.00     0.010 A 
HETATM   19  C   UNK N   1      33.991  11.228  14.715  0.00  0.00     0.037 A 
BRANCH  17  20
HETATM   20  C   UNK N   1      36.172   9.957  17.516  0.00  0.00     0.063 C 
BRANCH  20  21
HETATM   21  C   UNK N   1      35.126  10.173  18.642  0.00  0.00     0.153 A 
HETATM   22  C   UNK N   1      35.353  11.410  19.494  0.00  0.00     0.239 A 
HETATM   23  O   UNK N   1      35.365  12.538  19.029  0.00  0.00    -0.272 OA
HETATM   24  N   UNK N   1      35.606  11.194  20.792  0.00  0.00    -0.287 N 
HETATM   25  C   UNK N   1      35.580   9.901  21.128  0.00  0.00     0.287 A 
HETATM   26  H   UNK N   1      35.791  11.917  21.435  0.00  0.00     0.172 HD
HETATM   27  O   UNK N   1      35.806   9.533  22.268  0.00  0.00    -0.260 OA
HETATM   28  S   UNK N   1      35.183   8.754  19.812  0.00  0.00    -0.054 SA
ENDBRANCH  20  21
ENDBRANCH  17  20
ENDBRANCH  13  14
ENDBRANCH  12  13
ENDBRANCH   8  12
BRANCH   1  29
HETATM   29  O   UNK N   1      32.899  16.905   6.762  0.00  0.00    -0.311 OA
BRANCH  29  30
HETATM   30  C   UNK N   1      31.570  17.093   7.056  0.00  0.00     0.077 A 
HETATM   31  C   UNK N   1      31.194  17.717   8.271  0.00  0.00     0.046 A 
HETATM   32  C   UNK N   1      29.870  17.829   8.656  0.00  0.00    -0.033 A 
HETATM   33  C   UNK N   1      29.553  18.464   9.968  0.00  0.00     0.050 C 
HETATM   34  C   UNK N   1      28.867  17.320   7.826  0.00  0.00     0.037 A 
HETATM   35  C   UNK N   1      29.216  16.727   6.593  0.00  0.00    -0.033 A 
HETATM   36  C   UNK N   1      30.566  16.619   6.211  0.00  0.00     0.046 A 
HETATM   37  C   UNK N   1      28.162  16.182   5.694  0.00  0.00     0.050 C 
BRANCH  34  38
HETATM   38  N   UNK N   1      27.515  17.395   8.228  0.00  0.00    -0.398 N 
HETATM   39  H   UNK N   1      27.232  17.767   9.095  0.00  0.00     0.156 HD
HETATM   40  H   UNK N   1      26.822  17.060   7.613  0.00  0.00     0.156 HD
ENDBRANCH  34  38
ENDBRANCH  29  30
ENDBRANCH   1  29
TORSDOF 8
ENDMDL
MODEL 5
REMARK VINA RESULT:      -8.6      1.199      2.367
REMARK  8 active torsions:
REMARK  status: ('A' for Active; 'I' for Inactive)
REMARK    1  A    between atoms: C_4  and  O_10 
REMARK    2  A    between atoms: C_7  and  N_8 
REMARK    3  A    between atoms: O_10  and  C_11 
REMARK    4  A    between atoms: C_18  and  C_21 
REMARK    5  A    between atoms: C_21  and  O_22 
REMARK    6  A    between atoms: O_22  and  C_23 
REMARK    7  A    between atoms: C_26  and  C_29 
REMARK    8  A    between atoms: C_29  and  C_30 
ROOT
HETATM    1  C   UNK N   1      35.573  12.673  12.789  0.00  0.00     0.078 A 
HETATM    2  C   UNK N   1      35.093  11.600  11.983  0.00  0.00     0.039 A 
HETATM    3  C   UNK N   1      34.588  11.842  10.695  0.00  0.00     0.035 A 
HETATM    4  C   UNK N   1      34.599  13.159  10.252  0.00  0.00     0.060 A 
HETATM    5  C   UNK N   1      34.959  14.191  11.069  0.00  0.00     0.065 A 
HETATM    6  C   UNK N   1      35.436  13.999  12.355  0.00  0.00     0.069 A 
HETATM    7  N   UNK N   1      34.970  15.317  10.363  0.00  0.00    -0.337 N 
HETATM    8  C   UNK N   1      34.692  14.946   9.096  0.00  0.00     0.108 A 
HETATM    9  N   UNK N   1      34.432  13.612   8.993  0.00  0.00    -0.342 N 
ATOM     10  HN  UNK N   1      34.171  13.083   8.161  1.00  0.00     0.167 HD
HETATM   11  C   UNK N   1      35.394  16.633  10.818  0.00  0.00     0.158 C 
ENDROOT
BRANCH   8  12
HETATM   12  C   UNK N   1      34.983  15.854   7.948  0.00  0.00     0.252 C 
BRANCH  12  13
HETATM   13  O   UNK N   1      34.332  17.056   7.927  0.00  0.00    -0.344 OA
BRANCH  13  14
HETATM   14  C   UNK N   1      33.062  17.211   7.529  0.00  0.00     0.069 A 
HETATM   15  C   UNK N   1      32.766  17.001   6.184  0.00  0.00     0.037 A 
HETATM   16  C   UNK N   1      31.452  17.052   5.744  0.00  0.00     0.010 A 
HETATM   17  C   UNK N   1      30.420  17.283   6.658  0.00  0.00    -0.056 A 
HETATM   18  C   UNK N   1      30.713  17.540   8.002  0.00  0.00     0.010 A 
HETATM   19  C   UNK N   1      32.039  17.524   8.436  0.00  0.00     0.037 A 
BRANCH  17  20
HETATM   20  C   UNK N   1      29.007  17.033   6.250  0.00  0.00     0.063 C 
BRANCH  20  21
HETATM   21  C   UNK N   1      28.411  18.198   5.416  0.00  0.00     0.153 A 
HETATM   22  C   UNK N   1      27.522  19.151   6.196  0.00  0.00     0.239 A 
HETATM   23  O   UNK N   1      27.923  19.791   7.154  0.00  0.00    -0.272 OA
HETATM   24  N   UNK N   1      26.239  19.209   5.813  0.00  0.00    -0.287 N 
HETATM   25  C   UNK N   1      25.965  18.426   4.765  0.00  0.00     0.287 A 
HETATM   26  H   UNK N   1      25.566  19.773   6.259  0.00  0.00     0.172 HD
HETATM   27  O   UNK N   1      24.839  18.350   4.304  0.00  0.00    -0.260 OA
HETATM   28  S   UNK N   1      27.344  17.514   4.081  0.00  0.00    -0.054 SA
ENDBRANCH  20  21
ENDBRANCH  17  20
ENDBRANCH  13  14
ENDBRANCH  12  13
ENDBRANCH   8  12
BRANCH   1  29
HETATM   29  O   UNK N   1      36.539  12.399  13.695  0.00  0.00    -0.311 OA
BRANCH  29  30
HETATM   30  C   UNK N   1      36.121  12.080  14.964  0.00  0.00     0.077 A 
HETATM   31  C   UNK N   1      35.774  13.106  15.875  0.00  0.00     0.046 A 
HETATM   32  C   UNK N   1      35.453  12.835  17.194  0.00  0.00    -0.033 A 
HETATM   33  C   UNK N   1      35.134  13.973  18.106  0.00  0.00     0.050 C 
HETATM   34  C   UNK N   1      35.464  11.513  17.646  0.00  0.00     0.037 A 
HETATM   35  C   UNK N   1      35.772  10.470  16.746  0.00  0.00    -0.033 A 
HETATM   36  C   UNK N   1      36.096  10.756  15.407  0.00  0.00     0.046 A 
HETATM   37  C   UNK N   1      35.786   9.055  17.208  0.00  0.00     0.050 C 
BRANCH  34  38
HETATM   38  N   UNK N   1      35.176  11.229  19.000  0.00  0.00    -0.398 N 
HETATM   39  H   UNK N   1      34.572  11.782  19.548  0.00  0.00     0.156 HD
HETATM   40  H   UNK N   1      35.597  10.441  19.416  0.00  0.00     0.156 HD
ENDBRANCH  34  38
ENDBRANCH  29  30
ENDBRANCH   1  29
TORSDOF 8
ENDMDL
MODEL 6
REMARK VINA RESULT:      -8.5      5.472     10.940
REMARK  8 active torsions:
REMARK  status: ('A' for Active; 'I' for Inactive)
REMARK    1  A    between atoms: C_4  and  O_10 
REMARK    2  A    between atoms: C_7  and  N_8 
REMARK    3  A    between atoms: O_10  and  C_11 
REMARK    4  A    between atoms: C_18  and  C_21 
REMARK    5  A    between atoms: C_21  and  O_22 
REMARK    6  A    between atoms: O_22  and  C_23 
REMARK    7  A    between atoms: C_26  and  C_29 
REMARK    8  A    between atoms: C_29  and  C_30 
ROOT
HETATM    1  C   UNK N   1      25.426  13.888   7.073  0.00  0.00     0.078 A 
HETATM    2  C   UNK N   1      25.539  12.983   5.979  0.00  0.00     0.039 A 
HETATM    3  C   UNK N   1      26.194  13.367   4.796  0.00  0.00     0.035 A 
HETATM    4  C   UNK N   1      26.731  14.648   4.762  0.00  0.00     0.060 A 
HETATM    5  C   UNK N   1      26.525  15.542   5.772  0.00  0.00     0.065 A 
HETATM    6  C   UNK N   1      25.861  15.215   6.942  0.00  0.00     0.069 A 
HETATM    7  N   UNK N   1      27.229  16.643   5.522  0.00  0.00    -0.337 N 
HETATM    8  C   UNK N   1      27.922  16.375   4.396  0.00  0.00     0.108 A 
HETATM    9  N   UNK N   1      27.620  15.151   3.881  0.00  0.00    -0.342 N 
ATOM     10  HN  UNK N   1      27.979  14.718   3.031  1.00  0.00     0.167 HD
HETATM   11  C   UNK N   1      27.376  17.804   6.388  0.00  0.00     0.158 C 
ENDROOT
BRANCH   8  12
HETATM   12  C   UNK N   1      29.101  17.204   4.005  0.00  0.00     0.252 C 
BRANCH  12  13
HETATM   13  O   UNK N   1      30.329  16.611   4.084  0.00  0.00    -0.344 OA
BRANCH  13  14
HETATM   14  C   UNK N   1      31.284  16.983   4.949  0.00  0.00     0.069 A 
HETATM   15  C   UNK N   1      30.976  16.978   6.308  0.00  0.00     0.037 A 
HETATM   16  C   UNK N   1      31.959  17.257   7.245  0.00  0.00     0.010 A 
HETATM   17  C   UNK N   1      33.268  17.513   6.827  0.00  0.00    -0.056 A 
HETATM   18  C   UNK N   1      33.574  17.565   5.463  0.00  0.00     0.010 A 
HETATM   19  C   UNK N   1      32.576  17.319   4.519  0.00  0.00     0.037 A 
BRANCH  17  20
HETATM   20  C   UNK N   1      34.373  17.507   7.829  0.00  0.00     0.063 C 
BRANCH  20  21
HETATM   21  C   UNK N   1      34.279  16.312   8.815  0.00  0.00     0.153 A 
HETATM   22  C   UNK N   1      35.234  16.382   9.994  0.00  0.00     0.239 A 
HETATM   23  O   UNK N   1      35.218  17.296  10.803  0.00  0.00    -0.272 OA
HETATM   24  N   UNK N   1      36.151  15.408  10.069  0.00  0.00    -0.287 N 
HETATM   25  C   UNK N   1      36.042  14.503   9.092  0.00  0.00     0.287 A 
HETATM   26  H   UNK N   1      36.835  15.363  10.776  0.00  0.00     0.172 HD
HETATM   27  O   UNK N   1      36.812  13.562   9.006  0.00  0.00    -0.260 OA
HETATM   28  S   UNK N   1      34.701  14.753   7.933  0.00  0.00    -0.054 SA
ENDBRANCH  20  21
ENDBRANCH  17  20
ENDBRANCH  13  14
ENDBRANCH  12  13
ENDBRANCH   8  12
BRANCH   1  29
HETATM   29  O   UNK N   1      25.351  13.367   8.319  0.00  0.00    -0.311 OA
BRANCH  29  30
HETATM   30  C   UNK N   1      24.094  13.223   8.852  0.00  0.00     0.077 A 
HETATM   31  C   UNK N   1      22.969  13.744   8.167  0.00  0.00     0.046 A 
HETATM   32  C   UNK N   1      21.700  13.718   8.719  0.00  0.00    -0.033 A 
HETATM   33  C   UNK N   1      20.569  14.320   7.953  0.00  0.00     0.050 C 
HETATM   34  C   UNK N   1      21.513  13.158   9.986  0.00  0.00     0.037 A 
HETATM   35  C   UNK N   1      22.613  12.600  10.672  0.00  0.00    -0.033 A 
HETATM   36  C   UNK N   1      23.899  12.631  10.102  0.00  0.00     0.046 A 
HETATM   37  C   UNK N   1      22.434  11.997  12.021  0.00  0.00     0.050 C 
BRANCH  34  38
HETATM   38  N   UNK N   1      20.228  13.161  10.574  0.00  0.00    -0.398 N 
HETATM   39  H   UNK N   1      19.434  13.533  10.127  0.00  0.00     0.156 HD
HETATM   40  H   UNK N   1      20.122  12.772  11.473  0.00  0.00     0.156 HD
ENDBRANCH  34  38
ENDBRANCH  29  30
ENDBRANCH   1  29
TORSDOF 8
ENDMDL
MODEL 7
REMARK VINA RESULT:      -8.4      2.121      2.526
REMARK  8 active torsions:
REMARK  status: ('A' for Active; 'I' for Inactive)
REMARK    1  A    between atoms: C_4  and  O_10 
REMARK    2  A    between atoms: C_7  and  N_8 
REMARK    3  A    between atoms: O_10  and  C_11 
REMARK    4  A    between atoms: C_18  and  C_21 
REMARK    5  A    between atoms: C_21  and  O_22 
REMARK    6  A    between atoms: O_22  and  C_23 
REMARK    7  A    between atoms: C_26  and  C_29 
REMARK    8  A    between atoms: C_29  and  C_30 
ROOT
HETATM    1  C   UNK N   1      36.278  13.486  10.577  0.00  0.00     0.078 A 
HETATM    2  C   UNK N   1      36.233  14.295  11.748  0.00  0.00     0.039 A 
HETATM    3  C   UNK N   1      35.742  15.611  11.693  0.00  0.00     0.035 A 
HETATM    4  C   UNK N   1      35.295  16.063  10.457  0.00  0.00     0.060 A 
HETATM    5  C   UNK N   1      35.441  15.320   9.322  0.00  0.00     0.065 A 
HETATM    6  C   UNK N   1      35.946  14.031   9.328  0.00  0.00     0.069 A 
HETATM    7  N   UNK N   1      34.842  15.949   8.316  0.00  0.00    -0.337 N 
HETATM    8  C   UNK N   1      34.266  17.037   8.867  0.00  0.00     0.108 A 
HETATM    9  N   UNK N   1      34.546  17.153  10.195  0.00  0.00    -0.342 N 
ATOM     10  HN  UNK N   1      34.258  17.891  10.839  1.00  0.00     0.167 HD
HETATM   11  C   UNK N   1      34.673  15.462   6.954  0.00  0.00     0.158 C 
ENDROOT
BRANCH   8  12
HETATM   12  C   UNK N   1      33.194  17.787   8.147  0.00  0.00     0.252 C 
BRANCH  12  13
HETATM   13  O   UNK N   1      31.912  17.341   8.305  0.00  0.00    -0.344 OA
BRANCH  13  14
HETATM   14  C   UNK N   1      31.022  17.257   7.305  0.00  0.00     0.069 A 
HETATM   15  C   UNK N   1      29.669  17.356   7.622  0.00  0.00     0.037 A 
HETATM   16  C   UNK N   1      28.718  17.374   6.613  0.00  0.00     0.010 A 
HETATM   17  C   UNK N   1      29.120  17.325   5.276  0.00  0.00    -0.056 A 
HETATM   18  C   UNK N   1      30.473  17.179   4.951  0.00  0.00     0.010 A 
HETATM   19  C   UNK N   1      31.427  17.124   5.969  0.00  0.00     0.037 A 
BRANCH  17  20
HETATM   20  C   UNK N   1      28.139  17.653   4.201  0.00  0.00     0.063 C 
BRANCH  20  21
HETATM   21  C   UNK N   1      27.037  18.637   4.678  0.00  0.00     0.153 A 
HETATM   22  C   UNK N   1      25.614  18.173   4.422  0.00  0.00     0.239 A 
HETATM   23  O   UNK N   1      25.162  17.141   4.892  0.00  0.00    -0.272 OA
HETATM   24  N   UNK N   1      24.886  18.931   3.590  0.00  0.00    -0.287 N 
HETATM   25  C   UNK N   1      25.542  20.008   3.147  0.00  0.00     0.287 A 
HETATM   26  H   UNK N   1      23.960  18.716   3.333  0.00  0.00     0.172 HD
HETATM   27  O   UNK N   1      25.027  20.792   2.369  0.00  0.00    -0.260 OA
HETATM   28  S   UNK N   1      27.203  20.231   3.772  0.00  0.00    -0.054 SA
ENDBRANCH  20  21
ENDBRANCH  17  20
ENDBRANCH  13  14
ENDBRANCH  12  13
ENDBRANCH   8  12
BRANCH   1  29
HETATM   29  O   UNK N   1      36.178  12.146  10.730  0.00  0.00    -0.311 OA
BRANCH  29  30
HETATM   30  C   UNK N   1      36.120  11.676  12.019  0.00  0.00     0.077 A 
HETATM   31  C   UNK N   1      37.303  11.254  12.673  0.00  0.00     0.046 A 
HETATM   32  C   UNK N   1      37.276  10.673  13.930  0.00  0.00    -0.033 A 
HETATM   33  C   UNK N   1      38.560  10.218  14.540  0.00  0.00     0.050 C 
HETATM   34  C   UNK N   1      36.052  10.499  14.580  0.00  0.00     0.037 A 
HETATM   35  C   UNK N   1      34.863  10.945  13.963  0.00  0.00    -0.033 A 
HETATM   36  C   UNK N   1      34.902  11.535  12.686  0.00  0.00     0.046 A 
HETATM   37  C   UNK N   1      33.550  10.772  14.641  0.00  0.00     0.050 C 
BRANCH  34  38
HETATM   38  N   UNK N   1      36.010   9.872  15.846  0.00  0.00    -0.398 N 
HETATM   39  H   UNK N   1      36.782   9.404  16.239  0.00  0.00     0.156 HD
HETATM   40  H   UNK N   1      35.170   9.905  16.360  0.00  0.00     0.156 HD
ENDBRANCH  34  38
ENDBRANCH  29  30
ENDBRANCH   1  29
TORSDOF 8
ENDMDL
MODEL 8
REMARK VINA RESULT:      -8.4      4.742     13.013
REMARK  8 active torsions:
REMARK  status: ('A' for Active; 'I' for Inactive)
REMARK    1  A    between atoms: C_4  and  O_10 
REMARK    2  A    between atoms: C_7  and  N_8 
REMARK    3  A    between atoms: O_10  and  C_11 
REMARK    4  A    between atoms: C_18  and  C_21 
REMARK    5  A    between atoms: C_21  and  O_22 
REMARK    6  A    between atoms: O_22  and  C_23 
REMARK    7  A    between atoms: C_26  and  C_29 
REMARK    8  A    between atoms: C_29  and  C_30 
ROOT
HETATM    1  C   UNK N   1      34.220  15.394   8.862  0.00  0.00     0.078 A 
HETATM    2  C   UNK N   1      34.786  16.637   9.267  0.00  0.00     0.039 A 
HETATM    3  C   UNK N   1      35.364  16.782  10.539  0.00  0.00     0.035 A 
HETATM    4  C   UNK N   1      35.369  15.660  11.358  0.00  0.00     0.060 A 
HETATM    5  C   UNK N   1      34.730  14.507  11.004  0.00  0.00     0.065 A 
HETATM    6  C   UNK N   1      34.123  14.332   9.772  0.00  0.00     0.069 A 
HETATM    7  N   UNK N   1      34.979  13.577  11.922  0.00  0.00    -0.337 N 
HETATM    8  C   UNK N   1      35.837  14.153  12.790  0.00  0.00     0.108 A 
HETATM    9  N   UNK N   1      36.083  15.458  12.484  0.00  0.00    -0.342 N 
ATOM     10  HN  UNK N   1      36.669  16.124  12.987  1.00  0.00     0.167 HD
HETATM   11  C   UNK N   1      34.577  12.179  11.885  0.00  0.00     0.158 C 
ENDROOT
BRANCH   8  12
HETATM   12  C   UNK N   1      36.641  13.327  13.738  0.00  0.00     0.252 C 
BRANCH  12  13
HETATM   13  O   UNK N   1      36.774  13.800  15.014  0.00  0.00    -0.344 OA
BRANCH  13  14
HETATM   14  C   UNK N   1      36.212  13.224  16.086  0.00  0.00     0.069 A 
HETATM   15  C   UNK N   1      36.145  11.833  16.125  0.00  0.00     0.037 A 
HETATM   16  C   UNK N   1      35.665  11.191  17.255  0.00  0.00     0.010 A 
HETATM   17  C   UNK N   1      35.277  11.939  18.370  0.00  0.00    -0.056 A 
HETATM   18  C   UNK N   1      35.298  13.337  18.322  0.00  0.00     0.010 A 
HETATM   19  C   UNK N   1      35.747  13.984  17.170  0.00  0.00     0.037 A 
BRANCH  17  20
HETATM   20  C   UNK N   1      35.058  11.252  19.676  0.00  0.00     0.063 C 
BRANCH  20  21
HETATM   21  C   UNK N   1      35.424   9.745  19.628  0.00  0.00     0.153 A 
HETATM   22  C   UNK N   1      34.252   8.798  19.815  0.00  0.00     0.239 A 
HETATM   23  O   UNK N   1      33.290   8.783  19.063  0.00  0.00    -0.272 OA
HETATM   24  N   UNK N   1      34.296   8.010  20.898  0.00  0.00    -0.287 N 
HETATM   25  C   UNK N   1      35.406   8.173  21.624  0.00  0.00     0.287 A 
HETATM   26  H   UNK N   1      33.582   7.374  21.133  0.00  0.00     0.172 HD
HETATM   27  O   UNK N   1      35.594   7.543  22.651  0.00  0.00    -0.260 OA
HETATM   28  S   UNK N   1      36.594   9.353  20.994  0.00  0.00    -0.054 SA
ENDBRANCH  20  21
ENDBRANCH  17  20
ENDBRANCH  13  14
ENDBRANCH  12  13
ENDBRANCH   8  12
BRANCH   1  29
HETATM   29  O   UNK N   1      34.220  15.100   7.542  0.00  0.00    -0.311 OA
BRANCH  29  30
HETATM   30  C   UNK N   1      33.336  15.796   6.755  0.00  0.00     0.077 A 
HETATM   31  C   UNK N   1      32.110  16.252   7.297  0.00  0.00     0.046 A 
HETATM   32  C   UNK N   1      31.146  16.862   6.514  0.00  0.00    -0.033 A 
HETATM   33  C   UNK N   1      29.862  17.281   7.149  0.00  0.00     0.050 C 
HETATM   34  C   UNK N   1      31.382  17.041   5.149  0.00  0.00     0.037 A 
HETATM   35  C   UNK N   1      32.612  16.628   4.593  0.00  0.00    -0.033 A 
HETATM   36  C   UNK N   1      33.586  16.010   5.398  0.00  0.00     0.046 A 
HETATM   37  C   UNK N   1      32.884  16.814   3.141  0.00  0.00     0.050 C 
BRANCH  34  38
HETATM   38  N   UNK N   1      30.388  17.627   4.333  0.00  0.00    -0.398 N 
HETATM   39  H   UNK N   1      30.579  18.011   3.446  0.00  0.00     0.156 HD
HETATM   40  H   UNK N   1      29.461  17.653   4.666  0.00  0.00     0.156 HD
ENDBRANCH  34  38
ENDBRANCH  29  30
ENDBRANCH   1  29
TORSDOF 8
ENDMDL
MODEL 9
REMARK VINA RESULT:      -8.4      1.763      2.639
REMARK  8 active torsions:
REMARK  status: ('A' for Active; 'I' for Inactive)
REMARK    1  A    between atoms: C_4  and  O_10 
REMARK    2  A    between atoms: C_7  and  N_8 
REMARK    3  A    between atoms: O_10  and  C_11 
REMARK    4  A    between atoms: C_18  and  C_21 
REMARK    5  A    between atoms: C_21  and  O_22 
REMARK    6  A    between atoms: O_22  and  C_23 
REMARK    7  A    between atoms: C_26  and  C_29 
REMARK    8  A    between atoms: C_29  and  C_30 
ROOT
HETATM    1  C   UNK N   1      35.183  12.782  13.190  0.00  0.00     0.078 A 
HETATM    2  C   UNK N   1      35.829  14.018  13.479  0.00  0.00     0.039 A 
HETATM    3  C   UNK N   1      36.400  14.786  12.450  0.00  0.00     0.035 A 
HETATM    4  C   UNK N   1      36.285  14.290  11.157  0.00  0.00     0.060 A 
HETATM    5  C   UNK N   1      35.760  13.056  10.903  0.00  0.00     0.065 A 
HETATM    6  C   UNK N   1      35.213  12.254  11.891  0.00  0.00     0.069 A 
HETATM    7  N   UNK N   1      35.683  12.883   9.587  0.00  0.00    -0.337 N 
HETATM    8  C   UNK N   1      36.090  14.051   9.050  0.00  0.00     0.108 A 
HETATM    9  N   UNK N   1      36.495  14.943   9.997  0.00  0.00    -0.342 N 
ATOM     10  HN  UNK N   1      36.870  15.882   9.860  1.00  0.00     0.167 HD
HETATM   11  C   UNK N   1      35.093  11.753   8.885  0.00  0.00     0.158 C 
ENDROOT
BRANCH   8  12
HETATM   12  C   UNK N   1      35.791  14.388   7.626  0.00  0.00     0.252 C 
BRANCH  12  13
HETATM   13  O   UNK N   1      35.314  15.643   7.372  0.00  0.00    -0.344 OA
BRANCH  13  14
HETATM   14  C   UNK N   1      34.128  16.093   7.807  0.00  0.00     0.069 A 
HETATM   15  C   UNK N   1      33.839  17.446   7.639  0.00  0.00     0.037 A 
HETATM   16  C   UNK N   1      32.588  17.937   7.981  0.00  0.00     0.010 A 
HETATM   17  C   UNK N   1      31.606  17.068   8.465  0.00  0.00    -0.056 A 
HETATM   18  C   UNK N   1      31.904  15.718   8.679  0.00  0.00     0.010 A 
HETATM   19  C   UNK N   1      33.174  15.231   8.368  0.00  0.00     0.037 A 
BRANCH  17  20
HETATM   20  C   UNK N   1      30.189  17.528   8.537  0.00  0.00     0.063 C 
BRANCH  20  21
HETATM   21  C   UNK N   1      29.613  17.911   7.148  0.00  0.00     0.153 A 
HETATM   22  C   UNK N   1      28.188  18.435   7.171  0.00  0.00     0.239 A 
HETATM   23  O   UNK N   1      27.863  19.435   7.791  0.00  0.00    -0.272 OA
HETATM   24  N   UNK N   1      27.278  17.700   6.517  0.00  0.00    -0.287 N 
HETATM   25  C   UNK N   1      27.799  16.627   5.915  0.00  0.00     0.287 A 
HETATM   26  H   UNK N   1      26.320  17.930   6.484  0.00  0.00     0.172 HD
HETATM   27  O   UNK N   1      27.102  15.844   5.292  0.00  0.00    -0.260 OA
HETATM   28  S   UNK N   1      29.569  16.419   6.070  0.00  0.00    -0.054 SA
ENDBRANCH  20  21
ENDBRANCH  17  20
ENDBRANCH  13  14
ENDBRANCH  12  13
ENDBRANCH   8  12
BRANCH   1  29
HETATM   29  O   UNK N   1      34.187  12.382  14.013  0.00  0.00    -0.311 OA
BRANCH  29  30
HETATM   30  C   UNK N   1      34.556  11.956  15.266  0.00  0.00     0.077 A 
HETATM   31  C   UNK N   1      34.690  12.890  16.321  0.00  0.00     0.046 A 
HETATM   32  C   UNK N   1      35.163  12.522  17.569  0.00  0.00    -0.033 A 
HETATM   33  C   UNK N   1      35.312  13.570  18.621  0.00  0.00     0.050 C 
HETATM   34  C   UNK N   1      35.516  11.191  17.804  0.00  0.00     0.037 A 
HETATM   35  C   UNK N   1      35.356  10.234  16.778  0.00  0.00    -0.033 A 
HETATM   36  C   UNK N   1      34.874  10.619  15.513  0.00  0.00     0.046 A 
HETATM   37  C   UNK N   1      35.723   8.810  17.010  0.00  0.00     0.050 C 
BRANCH  34  38
HETATM   38  N   UNK N   1      36.035  10.812  19.062  0.00  0.00    -0.398 N 
HETATM   39  H   UNK N   1      36.320   9.892  19.271  0.00  0.00     0.156 HD
HETATM   40  H   UNK N   1      36.119  11.499  19.763  0.00  0.00     0.156 HD
ENDBRANCH  34  38
ENDBRANCH  29  30
ENDBRANCH   1  29
TORSDOF 8
ENDMDL
