REMARK  8 active torsions:
REMARK  status: ('A' for Active; 'I' for Inactive)
REMARK    1  A    between atoms: O_2  and  C_3 
REMARK    2  A    between atoms: C_8  and  O_9 
REMARK    3  A    between atoms: O_9  and  C_10 
REMARK    4  A    between atoms: C_10  and  C_11 
REMARK    5  A    between atoms: C_11  and  C_12 
REMARK    6  A    between atoms: C_12  and  O_13 
REMARK    7  A    between atoms: O_13  and  C_14 
REMARK    8  A    between atoms: C_19  and  O_20 
ROOT
HETATM    1  C   UNK N   1       0.512 -10.212  -0.329  0.00  0.00     0.053 C 
ENDROOT
BRANCH   1   2
HETATM    2  C   UNK N   1      -0.688 -10.015   0.598  0.00  0.00     0.178 C 
BRANCH   2   3
HETATM    3  O   UNK N   1      -0.985  -8.677   0.744  0.00  0.00    -0.348 OA
BRANCH   3   4
HETATM    4  C   UNK N   1      -2.196  -8.118   0.499  0.00  0.00     0.104 A 
HETATM    5  C   UNK N   1      -3.280  -8.875   0.030  0.00  0.00     0.070 A 
HETATM    6  C   UNK N   1      -4.543  -8.299  -0.181  0.00  0.00     0.050 A 
HETATM    7  C   UNK N   1      -4.714  -6.899   0.056  0.00  0.00     0.061 A 
HETATM    8  N   UNK N   1      -5.552  -9.145  -0.728  0.00  0.00    -0.367 N 
HETATM    9  C   UNK N   1      -3.608  -6.158   0.493  0.00  0.00     0.059 A 
HETATM   10  C   UNK N   1      -5.974  -6.130  -0.170  0.00  0.00     0.257 C 
HETATM   11  C   UNK N   1      -2.364  -6.751   0.732  0.00  0.00     0.102 A 
HETATM   12  N   UNK N   1      -7.209  -6.693  -0.084  0.00  0.00    -0.334 N 
HETATM   13  O   UNK N   1      -5.887  -4.926  -0.390  0.00  0.00    -0.267 OA
HETATM   14  C   UNK N   1      -8.407  -5.923  -0.291  0.00  0.00     0.160 A 
HETATM   15  C   UNK N   1      -7.428  -8.047   0.363  0.00  0.00     0.130 A 
HETATM   16  C   UNK N   1      -9.463  -6.901   0.028  0.00  0.00    -0.069 A 
HETATM   17  C   UNK N   1      -8.944  -8.238   0.413  0.00  0.00     0.065 A 
HETATM   18  C   UNK N   1     -10.759  -6.611  -0.021  0.00  0.00     0.016 C 
HETATM   19  C   UNK N   1      -6.823  -9.032  -0.567  0.00  0.00     0.087 C 
ATOM     20  HN  UNK N   1      -5.233  -9.922  -1.307  1.00  0.00     0.165 HD
BRANCH  11  21
HETATM   21  O   UNK N   1      -1.321  -6.024   1.200  0.00  0.00    -0.353 OA
HETATM   22  C   UNK N   1      -1.415  -4.688   1.521  0.00  0.00     0.210 C 
ENDBRANCH  11  21
ENDBRANCH   3   4
ENDBRANCH   2   3
ENDBRANCH   1   2
BRANCH   1  23
HETATM   23  C   UNK N   1       1.723  -9.371   0.071  0.00  0.00     0.178 C 
BRANCH  23  24
HETATM   24  O   UNK N   1       1.458  -8.052  -0.219  0.00  0.00    -0.348 OA
BRANCH  24  25
HETATM   25  C   UNK N   1       2.374  -7.056  -0.255  0.00  0.00     0.104 A 
HETATM   26  C   UNK N   1       3.739  -7.290  -0.027  0.00  0.00     0.070 A 
HETATM   27  C   UNK N   1       4.686  -6.253  -0.094  0.00  0.00     0.050 A 
HETATM   28  C   UNK N   1       4.240  -4.928  -0.401  0.00  0.00     0.061 A 
HETATM   29  N   UNK N   1       6.054  -6.643  -0.010  0.00  0.00    -0.367 N 
HETATM   30  C   UNK N   1       2.873  -4.730  -0.644  0.00  0.00     0.059 A 
HETATM   31  C   UNK N   1       5.111  -3.730  -0.616  0.00  0.00     0.257 C 
HETATM   32  C   UNK N   1       1.944  -5.771  -0.577  0.00  0.00     0.102 A 
HETATM   33  O   UNK N   1       4.645  -2.795  -1.258  0.00  0.00    -0.267 OA
HETATM   34  N   UNK N   1       6.376  -3.617  -0.129  0.00  0.00    -0.334 N 
HETATM   35  C   UNK N   1       7.189  -2.470  -0.441  0.00  0.00     0.160 A 
HETATM   36  C   UNK N   1       6.963  -4.535   0.814  0.00  0.00     0.130 A 
HETATM   37  C   UNK N   1       8.419  -2.742   0.319  0.00  0.00    -0.069 A 
HETATM   38  C   UNK N   1       9.493  -1.961   0.260  0.00  0.00     0.016 C 
HETATM   39  C   UNK N   1       8.369  -4.003   1.102  0.00  0.00     0.065 A 
HETATM   40  C   UNK N   1       7.070  -5.916   0.291  0.00  0.00     0.087 C 
ATOM     41  HN  UNK N   1       6.252  -7.623  -0.215  1.00  0.00     0.165 HD
BRANCH  32  42
HETATM   42  O   UNK N   1       0.635  -5.559  -0.852  0.00  0.00    -0.353 OA
HETATM   43  C   UNK N   1       0.141  -4.350  -1.287  0.00  0.00     0.210 C 
ENDBRANCH  32  42
ENDBRANCH  24  25
ENDBRANCH  23  24
ENDBRANCH   1  23
TORSDOF 8
