MODEL 1
REMARK VINA RESULT:      -6.6      0.000      0.000
REMARK  26 active torsions:
REMARK  status: ('A' for Active; 'I' for Inactive)
REMARK    1  A    between atoms: C_2  and  C_3 
REMARK    2  A    between atoms: C_3  and  C_4 
REMARK    3  A    between atoms: C_4  and  C_5 
REMARK    4  A    between atoms: C_5  and  C_6 
REMARK    5  A    between atoms: C_6  and  C_7 
REMARK    6  A    between atoms: C_7  and  C_8 
REMARK    7  A    between atoms: C_8  and  C_9 
REMARK    8  A    between atoms: C_9  and  C_10 
REMARK    9  A    between atoms: C_10  and  C_11 
REMARK   10  A    between atoms: C_11  and  C_12 
REMARK   11  A    between atoms: C_12  and  C_13 
REMARK   12  A    between atoms: C_13  and  C_14 
REMARK   13  A    between atoms: C_14  and  C_15 
REMARK   14  A    between atoms: C_15  and  C_16 
REMARK   15  A    between atoms: C_16  and  C_17 
REMARK   16  A    between atoms: C_17  and  C_18 
REMARK   17  A    between atoms: C_18  and  C_19 
REMARK   18  A    between atoms: C_19  and  C_20 
REMARK       I    between atoms: C_20  and  N_22 
REMARK   19  A    between atoms: C_23  and  N_22 
REMARK   20  A    between atoms: C_30  and  O_49 
REMARK   21  A    between atoms: C_34  and  O_48 
REMARK   22  A    between atoms: C_39  and  C_40 
REMARK   23  A    between atoms: C_40  and  C_42 
REMARK   24  A    between atoms: C_42  and  C_43 
REMARK   25  A    between atoms: C_43  and  C_44 
REMARK   26  A    between atoms: C_44  and  O_46 
ROOT
HETATM    1  C   UNK N   1      29.906  13.678   3.235  0.00  0.00     0.084 C 
HETATM    2  C   UNK N   1      29.476  13.694   4.696  0.00  0.00     0.026 C 
HETATM    3  C   UNK N   1      28.762  15.004   5.007  0.00  0.00     0.012 C 
HETATM    4  C   UNK N   1      27.527  15.210   4.121  0.00  0.00    -0.036 C 
HETATM    5  C   UNK N   1      27.892  15.046   2.629  0.00  0.00    -0.002 C 
HETATM    6  C   UNK N   1      28.669  13.763   2.337  0.00  0.00     0.030 C 
HETATM    7  C   UNK N   1      26.660  15.144   1.722  0.00  0.00     0.037 C 
HETATM    8  C   UNK N   1      25.609  14.115   2.134  0.00  0.00     0.123 C 
HETATM    9  C   UNK N   1      25.161  14.307   3.597  0.00  0.00     0.024 C 
HETATM   10  C   UNK N   1      26.395  14.186   4.493  0.00  0.00     0.003 C 
HETATM   11  C   UNK N   1      25.933  14.133   5.956  0.00  0.00     0.038 C 
HETATM   12  C   UNK N   1      25.177  15.391   6.385  0.00  0.00     0.127 C 
HETATM   13  C   UNK N   1      24.101  15.870   5.361  0.00  0.00    -0.010 C 
HETATM   14  C   UNK N   1      24.457  15.654   3.876  0.00  0.00     0.003 C 
HETATM   15  C   UNK N   1      23.110  15.707   3.159  0.00  0.00     0.006 C 
HETATM   16  C   UNK N   1      22.044  15.379   4.198  0.00  0.00     0.006 C 
HETATM   17  C   UNK N   1      22.784  15.096   5.504  0.00  0.00     0.000 C 
HETATM   18  C   UNK N   1      23.843  17.372   5.557  0.00  0.00     0.018 C 
HETATM   19  C   UNK N   1      27.139  16.673   4.290  0.00  0.00     0.016 C 
ENDROOT
BRANCH   1  20
HETATM   20  N   UNK N   1      30.927  14.694   3.009  0.00  0.00    -0.356 N 
HETATM   21  C   UNK N   1      32.280  14.555   3.020  0.00  0.00     0.217 C 
HETATM   22  O   UNK N   1      32.819  13.481   3.249  0.00  0.00    -0.274 OA
HETATM   23  H   UNK N   1      30.593  15.601   2.825  0.00  0.00     0.162 HD
BRANCH  21  24
HETATM   24  C   UNK N   1      33.116  15.780   2.891  0.00  0.00     0.103 C 
BRANCH  24  25
HETATM   25  C   UNK N   1      32.225  17.017   2.922  0.00  0.00     0.009 C 
BRANCH  25  26
HETATM   26  C   UNK N   1      32.121  17.633   4.323  0.00  0.00     0.000 C 
BRANCH  26  27
HETATM   27  C   UNK N   1      33.449  17.614   5.084  0.00  0.00     0.000 C 
BRANCH  27  28
HETATM   28  C   UNK N   1      33.298  17.267   6.559  0.00  0.00     0.000 C 
BRANCH  28  29
HETATM   29  C   UNK N   1      32.436  16.036   6.778  0.00  0.00     0.000 C 
BRANCH  29  30
HETATM   30  C   UNK N   1      31.659  16.183   8.070  0.00  0.00     0.000 C 
BRANCH  30  31
HETATM   31  C   UNK N   1      31.730  17.615   8.548  0.00  0.00     0.000 C 
BRANCH  31  32
HETATM   32  C   UNK N   1      30.340  18.132   8.882  0.00  0.00     0.000 C 
BRANCH  32  33
HETATM   33  C   UNK N   1      29.275  17.510   7.986  0.00  0.00     0.000 C 
BRANCH  33  34
HETATM   34  C   UNK N   1      28.794  18.506   6.936  0.00  0.00     0.000 C 
BRANCH  34  35
HETATM   35  C   UNK N   1      27.777  19.486   7.505  0.00  0.00     0.000 C 
BRANCH  35  36
HETATM   36  C   UNK N   1      27.509  20.651   6.562  0.00  0.00     0.000 C 
BRANCH  36  37
HETATM   37  C   UNK N   1      27.496  20.202   5.105  0.00  0.00     0.000 C 
BRANCH  37  38
HETATM   38  C   UNK N   1      26.115  20.330   4.482  0.00  0.00     0.000 C 
BRANCH  38  39
HETATM   39  C   UNK N   1      26.205  20.552   2.981  0.00  0.00     0.000 C 
BRANCH  39  40
HETATM   40  C   UNK N   1      24.827  20.459   2.347  0.00  0.00    -0.000 C 
BRANCH  40  41
HETATM   41  C   UNK N   1      23.772  20.144   3.394  0.00  0.00    -0.005 C 
HETATM   42  C   UNK N   1      22.392  20.181   2.768  0.00  0.00     0.005 C 
ENDBRANCH  40  41
ENDBRANCH  39  40
ENDBRANCH  38  39
ENDBRANCH  37  38
ENDBRANCH  36  37
ENDBRANCH  35  36
ENDBRANCH  34  35
ENDBRANCH  33  34
ENDBRANCH  32  33
ENDBRANCH  31  32
ENDBRANCH  30  31
ENDBRANCH  29  30
ENDBRANCH  28  29
ENDBRANCH  27  28
ENDBRANCH  26  27
ENDBRANCH  25  26
ENDBRANCH  24  25
ENDBRANCH  21  24
ENDBRANCH   1  20
BRANCH   8  43
HETATM   43  O   UNK N   1      24.532  14.138   1.249  0.00  0.00    -0.395 OA
HETATM   44  H   UNK N   1      24.657  14.422   0.331  0.00  0.00     0.210 HD
ENDBRANCH   8  43
BRANCH  12  45
HETATM   45  O   UNK N   1      26.087  16.383   6.756  0.00  0.00    -0.395 OA
HETATM   46  H   UNK N   1      26.518  16.673   7.576  0.00  0.00     0.210 HD
ENDBRANCH  12  45
BRANCH  17  47
HETATM   47  C   UNK N   1      21.962  15.529   6.736  0.00  0.00    -0.013 C 
HETATM   48  C   UNK N   1      21.834  14.409   7.754  0.00  0.00     0.010 C 
BRANCH  47  49
HETATM   49  C   UNK N   1      20.582  16.056   6.376  0.00  0.00     0.015 C 
BRANCH  49  50
HETATM   50  C   UNK N   1      20.063  16.959   7.489  0.00  0.00     0.110 C 
BRANCH  50  51
HETATM   51  C   UNK N   1      18.746  16.492   8.019  0.00  0.00     0.139 C 
HETATM   52  O   UNK N   1      18.638  16.137   9.181  0.00  0.00    -0.650 OA
BRANCH  51  53
HETATM   53  O   UNK N   1      17.669  16.490   7.214  0.00  0.00    -0.776 OA
HETATM   54  H   UNK N   1      17.569  15.877   6.513  0.00  0.00     0.167 HD
ENDBRANCH  51  53
ENDBRANCH  50  51
ENDBRANCH  49  50
ENDBRANCH  47  49
ENDBRANCH  17  47
TORSDOF 26
ENDMDL
MODEL 2
REMARK VINA RESULT:      -6.5      2.941      8.875
REMARK  26 active torsions:
REMARK  status: ('A' for Active; 'I' for Inactive)
REMARK    1  A    between atoms: C_2  and  C_3 
REMARK    2  A    between atoms: C_3  and  C_4 
REMARK    3  A    between atoms: C_4  and  C_5 
REMARK    4  A    between atoms: C_5  and  C_6 
REMARK    5  A    between atoms: C_6  and  C_7 
REMARK    6  A    between atoms: C_7  and  C_8 
REMARK    7  A    between atoms: C_8  and  C_9 
REMARK    8  A    between atoms: C_9  and  C_10 
REMARK    9  A    between atoms: C_10  and  C_11 
REMARK   10  A    between atoms: C_11  and  C_12 
REMARK   11  A    between atoms: C_12  and  C_13 
REMARK   12  A    between atoms: C_13  and  C_14 
REMARK   13  A    between atoms: C_14  and  C_15 
REMARK   14  A    between atoms: C_15  and  C_16 
REMARK   15  A    between atoms: C_16  and  C_17 
REMARK   16  A    between atoms: C_17  and  C_18 
REMARK   17  A    between atoms: C_18  and  C_19 
REMARK   18  A    between atoms: C_19  and  C_20 
REMARK       I    between atoms: C_20  and  N_22 
REMARK   19  A    between atoms: C_23  and  N_22 
REMARK   20  A    between atoms: C_30  and  O_49 
REMARK   21  A    between atoms: C_34  and  O_48 
REMARK   22  A    between atoms: C_39  and  C_40 
REMARK   23  A    between atoms: C_40  and  C_42 
REMARK   24  A    between atoms: C_42  and  C_43 
REMARK   25  A    between atoms: C_43  and  C_44 
REMARK   26  A    between atoms: C_44  and  O_46 
ROOT
HETATM    1  C   UNK N   1      24.953  13.969   1.821  0.00  0.00     0.084 C 
HETATM    2  C   UNK N   1      25.538  15.370   1.696  0.00  0.00     0.026 C 
HETATM    3  C   UNK N   1      25.878  15.910   3.079  0.00  0.00     0.012 C 
HETATM    4  C   UNK N   1      26.881  15.015   3.816  0.00  0.00    -0.036 C 
HETATM    5  C   UNK N   1      26.396  13.548   3.830  0.00  0.00    -0.002 C 
HETATM    6  C   UNK N   1      25.992  13.035   2.448  0.00  0.00     0.030 C 
HETATM    7  C   UNK N   1      27.426  12.609   4.468  0.00  0.00     0.037 C 
HETATM    8  C   UNK N   1      28.771  12.723   3.753  0.00  0.00     0.123 C 
HETATM    9  C   UNK N   1      29.323  14.162   3.797  0.00  0.00     0.024 C 
HETATM   10  C   UNK N   1      28.297  15.087   3.138  0.00  0.00     0.003 C 
HETATM   11  C   UNK N   1      28.933  16.472   2.958  0.00  0.00     0.038 C 
HETATM   12  C   UNK N   1      29.342  17.115   4.283  0.00  0.00     0.127 C 
HETATM   13  C   UNK N   1      30.099  16.153   5.251  0.00  0.00    -0.010 C 
HETATM   14  C   UNK N   1      29.639  14.681   5.219  0.00  0.00     0.003 C 
HETATM   15  C   UNK N   1      30.814  13.910   5.815  0.00  0.00     0.006 C 
HETATM   16  C   UNK N   1      32.049  14.786   5.642  0.00  0.00     0.006 C 
HETATM   17  C   UNK N   1      31.590  16.044   4.907  0.00  0.00     0.000 C 
HETATM   18  C   UNK N   1      29.936  16.652   6.696  0.00  0.00     0.018 C 
HETATM   19  C   UNK N   1      26.850  15.470   5.268  0.00  0.00     0.016 C 
ENDROOT
BRANCH   1  20
HETATM   20  N   UNK N   1      23.663  14.031   2.498  0.00  0.00    -0.356 N 
HETATM   21  C   UNK N   1      22.450  14.371   1.985  0.00  0.00     0.217 C 
HETATM   22  O   UNK N   1      22.310  14.695   0.814  0.00  0.00    -0.274 OA
HETATM   23  H   UNK N   1      23.671  13.796   3.454  0.00  0.00     0.162 HD
BRANCH  21  24
HETATM   24  C   UNK N   1      21.296  14.487   2.918  0.00  0.00     0.103 C 
BRANCH  24  25
HETATM   25  C   UNK N   1      21.111  13.175   3.673  0.00  0.00     0.009 C 
BRANCH  25  26
HETATM   26  C   UNK N   1      20.554  13.383   5.088  0.00  0.00     0.000 C 
BRANCH  26  27
HETATM   27  C   UNK N   1      21.299  12.569   6.148  0.00  0.00     0.000 C 
BRANCH  27  28
HETATM   28  C   UNK N   1      22.731  12.229   5.757  0.00  0.00     0.000 C 
BRANCH  28  29
HETATM   29  C   UNK N   1      23.722  13.280   6.225  0.00  0.00     0.000 C 
BRANCH  29  30
HETATM   30  C   UNK N   1      24.705  12.656   7.193  0.00  0.00     0.000 C 
BRANCH  30  31
HETATM   31  C   UNK N   1      24.986  13.616   8.326  0.00  0.00     0.000 C 
BRANCH  31  32
HETATM   32  C   UNK N   1      24.764  12.934   9.667  0.00  0.00     0.000 C 
BRANCH  32  33
HETATM   33  C   UNK N   1      23.560  11.999   9.633  0.00  0.00     0.000 C 
BRANCH  33  34
HETATM   34  C   UNK N   1      22.498  12.440  10.634  0.00  0.00     0.000 C 
BRANCH  34  35
HETATM   35  C   UNK N   1      21.243  12.957   9.944  0.00  0.00     0.000 C 
BRANCH  35  36
HETATM   36  C   UNK N   1      21.421  14.370   9.406  0.00  0.00     0.000 C 
BRANCH  36  37
HETATM   37  C   UNK N   1      20.082  15.006   9.047  0.00  0.00     0.000 C 
BRANCH  37  38
HETATM   38  C   UNK N   1      20.227  16.060   7.961  0.00  0.00     0.000 C 
BRANCH  38  39
HETATM   39  C   UNK N   1      21.628  16.058   7.372  0.00  0.00     0.000 C 
BRANCH  39  40
HETATM   40  C   UNK N   1      21.636  16.743   6.016  0.00  0.00    -0.000 C 
BRANCH  40  41
HETATM   41  C   UNK N   1      23.016  16.671   5.383  0.00  0.00    -0.005 C 
HETATM   42  C   UNK N   1      23.489  18.062   5.012  0.00  0.00     0.005 C 
ENDBRANCH  40  41
ENDBRANCH  39  40
ENDBRANCH  38  39
ENDBRANCH  37  38
ENDBRANCH  36  37
ENDBRANCH  35  36
ENDBRANCH  34  35
ENDBRANCH  33  34
ENDBRANCH  32  33
ENDBRANCH  31  32
ENDBRANCH  30  31
ENDBRANCH  29  30
ENDBRANCH  28  29
ENDBRANCH  27  28
ENDBRANCH  26  27
ENDBRANCH  25  26
ENDBRANCH  24  25
ENDBRANCH  21  24
ENDBRANCH   1  20
BRANCH   8  43
HETATM   43  O   UNK N   1      29.678  11.799   4.270  0.00  0.00    -0.395 OA
HETATM   44  H   UNK N   1      30.012  11.077   3.717  0.00  0.00     0.210 HD
ENDBRANCH   8  43
BRANCH  12  45
HETATM   45  O   UNK N   1      28.238  17.746   4.860  0.00  0.00    -0.395 OA
HETATM   46  H   UNK N   1      27.297  17.852   4.648  0.00  0.00     0.210 HD
ENDBRANCH  12  45
BRANCH  17  47
HETATM   47  C   UNK N   1      32.399  17.287   5.333  0.00  0.00    -0.013 C 
HETATM   48  C   UNK N   1      33.113  17.929   4.156  0.00  0.00     0.010 C 
BRANCH  47  49
HETATM   49  C   UNK N   1      33.398  16.996   6.442  0.00  0.00     0.015 C 
BRANCH  49  50
HETATM   50  C   UNK N   1      33.371  18.117   7.474  0.00  0.00     0.110 C 
BRANCH  50  51
HETATM   51  C   UNK N   1      34.569  18.083   8.367  0.00  0.00     0.139 C 
HETATM   52  O   UNK N   1      34.895  17.050   8.927  0.00  0.00    -0.650 OA
BRANCH  51  53
HETATM   53  O   UNK N   1      35.307  19.195   8.530  0.00  0.00    -0.776 OA
HETATM   54  H   UNK N   1      34.921  20.033   8.692  0.00  0.00     0.167 HD
ENDBRANCH  51  53
ENDBRANCH  50  51
ENDBRANCH  49  50
ENDBRANCH  47  49
ENDBRANCH  17  47
TORSDOF 26
ENDMDL
MODEL 3
REMARK VINA RESULT:      -6.2     11.677     15.692
REMARK  26 active torsions:
REMARK  status: ('A' for Active; 'I' for Inactive)
REMARK    1  A    between atoms: C_2  and  C_3 
REMARK    2  A    between atoms: C_3  and  C_4 
REMARK    3  A    between atoms: C_4  and  C_5 
REMARK    4  A    between atoms: C_5  and  C_6 
REMARK    5  A    between atoms: C_6  and  C_7 
REMARK    6  A    between atoms: C_7  and  C_8 
REMARK    7  A    between atoms: C_8  and  C_9 
REMARK    8  A    between atoms: C_9  and  C_10 
REMARK    9  A    between atoms: C_10  and  C_11 
REMARK   10  A    between atoms: C_11  and  C_12 
REMARK   11  A    between atoms: C_12  and  C_13 
REMARK   12  A    between atoms: C_13  and  C_14 
REMARK   13  A    between atoms: C_14  and  C_15 
REMARK   14  A    between atoms: C_15  and  C_16 
REMARK   15  A    between atoms: C_16  and  C_17 
REMARK   16  A    between atoms: C_17  and  C_18 
REMARK   17  A    between atoms: C_18  and  C_19 
REMARK   18  A    between atoms: C_19  and  C_20 
REMARK       I    between atoms: C_20  and  N_22 
REMARK   19  A    between atoms: C_23  and  N_22 
REMARK   20  A    between atoms: C_30  and  O_49 
REMARK   21  A    between atoms: C_34  and  O_48 
REMARK   22  A    between atoms: C_39  and  C_40 
REMARK   23  A    between atoms: C_40  and  C_42 
REMARK   24  A    between atoms: C_42  and  C_43 
REMARK   25  A    between atoms: C_43  and  C_44 
REMARK   26  A    between atoms: C_44  and  O_46 
ROOT
HETATM    1  C   UNK N   1      26.868  24.306  -3.911  0.00  0.00     0.084 C 
HETATM    2  C   UNK N   1      26.887  23.648  -5.284  0.00  0.00     0.026 C 
HETATM    3  C   UNK N   1      28.154  24.051  -6.028  0.00  0.00     0.012 C 
HETATM    4  C   UNK N   1      29.422  23.649  -5.265  0.00  0.00    -0.036 C 
HETATM    5  C   UNK N   1      29.371  24.167  -3.811  0.00  0.00    -0.002 C 
HETATM    6  C   UNK N   1      28.067  23.819  -3.093  0.00  0.00     0.030 C 
HETATM    7  C   UNK N   1      30.576  23.694  -2.990  0.00  0.00     0.037 C 
HETATM    8  C   UNK N   1      30.675  22.170  -3.014  0.00  0.00     0.123 C 
HETATM    9  C   UNK N   1      30.813  21.627  -4.450  0.00  0.00     0.024 C 
HETATM   10  C   UNK N   1      29.595  22.087  -5.253  0.00  0.00     0.003 C 
HETATM   11  C   UNK N   1      29.597  21.358  -6.604  0.00  0.00     0.038 C 
HETATM   12  C   UNK N   1      30.839  21.665  -7.442  0.00  0.00     0.127 C 
HETATM   13  C   UNK N   1      32.179  21.597  -6.644  0.00  0.00    -0.010 C 
HETATM   14  C   UNK N   1      32.103  22.071  -5.178  0.00  0.00     0.003 C 
HETATM   15  C   UNK N   1      33.328  21.441  -4.519  0.00  0.00     0.006 C 
HETATM   16  C   UNK N   1      33.722  20.243  -5.375  0.00  0.00     0.006 C 
HETATM   17  C   UNK N   1      32.696  20.160  -6.504  0.00  0.00     0.000 C 
HETATM   18  C   UNK N   1      33.237  22.461  -7.350  0.00  0.00     0.018 C 
HETATM   19  C   UNK N   1      30.561  24.408  -5.931  0.00  0.00     0.016 C 
ENDROOT
BRANCH   1  20
HETATM   20  N   UNK N   1      26.742  25.751  -4.056  0.00  0.00    -0.356 N 
HETATM   21  C   UNK N   1      25.759  26.461  -4.672  0.00  0.00     0.217 C 
HETATM   22  O   UNK N   1      24.811  25.914  -5.218  0.00  0.00    -0.274 OA
HETATM   23  H   UNK N   1      27.467  26.285  -3.656  0.00  0.00     0.162 HD
BRANCH  21  24
HETATM   24  C   UNK N   1      25.927  27.934  -4.802  0.00  0.00     0.103 C 
BRANCH  24  25
HETATM   25  C   UNK N   1      26.313  28.530  -3.452  0.00  0.00     0.009 C 
BRANCH  25  26
HETATM   26  C   UNK N   1      26.448  30.057  -3.500  0.00  0.00     0.000 C 
BRANCH  26  27
HETATM   27  C   UNK N   1      27.726  30.565  -2.827  0.00  0.00     0.000 C 
BRANCH  27  28
HETATM   28  C   UNK N   1      28.117  29.768  -1.590  0.00  0.00     0.000 C 
BRANCH  28  29
HETATM   29  C   UNK N   1      29.578  29.955  -1.220  0.00  0.00     0.000 C 
BRANCH  29  30
HETATM   30  C   UNK N   1      30.447  29.696  -2.434  0.00  0.00     0.000 C 
BRANCH  30  31
HETATM   31  C   UNK N   1      31.270  28.447  -2.216  0.00  0.00     0.000 C 
BRANCH  31  32
HETATM   32  C   UNK N   1      31.105  27.492  -3.387  0.00  0.00     0.000 C 
BRANCH  32  33
HETATM   33  C   UNK N   1      29.751  27.661  -4.068  0.00  0.00     0.000 C 
BRANCH  33  34
HETATM   34  C   UNK N   1      29.918  27.921  -5.561  0.00  0.00     0.000 C 
BRANCH  34  35
HETATM   35  C   UNK N   1      29.325  29.261  -5.976  0.00  0.00     0.000 C 
BRANCH  35  36
HETATM   36  C   UNK N   1      28.387  29.132  -7.169  0.00  0.00     0.000 C 
BRANCH  36  37
HETATM   37  C   UNK N   1      29.076  28.465  -8.354  0.00  0.00     0.000 C 
BRANCH  37  38
HETATM   38  C   UNK N   1      28.269  27.295  -8.896  0.00  0.00     0.000 C 
BRANCH  38  39
HETATM   39  C   UNK N   1      27.116  26.944  -7.970  0.00  0.00     0.000 C 
BRANCH  39  40
HETATM   40  C   UNK N   1      26.130  26.026  -8.674  0.00  0.00    -0.000 C 
BRANCH  40  41
HETATM   41  C   UNK N   1      26.856  24.883  -9.363  0.00  0.00    -0.005 C 
HETATM   42  C   UNK N   1      25.961  23.662  -9.425  0.00  0.00     0.005 C 
ENDBRANCH  40  41
ENDBRANCH  39  40
ENDBRANCH  38  39
ENDBRANCH  37  38
ENDBRANCH  36  37
ENDBRANCH  35  36
ENDBRANCH  34  35
ENDBRANCH  33  34
ENDBRANCH  32  33
ENDBRANCH  31  32
ENDBRANCH  30  31
ENDBRANCH  29  30
ENDBRANCH  28  29
ENDBRANCH  27  28
ENDBRANCH  26  27
ENDBRANCH  25  26
ENDBRANCH  24  25
ENDBRANCH  21  24
ENDBRANCH   1  20
BRANCH   8  43
HETATM   43  O   UNK N   1      31.712  21.736  -2.188  0.00  0.00    -0.395 OA
HETATM   44  H   UNK N   1      31.584  21.678  -1.229  0.00  0.00     0.210 HD
ENDBRANCH   8  43
BRANCH  12  45
HETATM   45  O   UNK N   1      30.654  22.861  -8.138  0.00  0.00    -0.395 OA
HETATM   46  H   UNK N   1      30.100  23.169  -8.873  0.00  0.00     0.210 HD
ENDBRANCH  12  45
BRANCH  17  47
HETATM   47  C   UNK N   1      33.316  19.613  -7.807  0.00  0.00    -0.013 C 
HETATM   48  C   UNK N   1      32.377  18.661  -8.526  0.00  0.00     0.010 C 
BRANCH  47  49
HETATM   49  C   UNK N   1      34.662  18.939  -7.588  0.00  0.00     0.015 C 
BRANCH  49  50
HETATM   50  C   UNK N   1      34.556  17.451  -7.900  0.00  0.00     0.110 C 
BRANCH  50  51
HETATM   51  C   UNK N   1      35.030  16.607  -6.762  0.00  0.00     0.139 C 
HETATM   52  O   UNK N   1      35.528  17.121  -5.774  0.00  0.00    -0.650 OA
BRANCH  51  53
HETATM   53  O   UNK N   1      34.879  15.271  -6.818  0.00  0.00    -0.776 OA
HETATM   54  H   UNK N   1      35.336  14.741  -7.441  0.00  0.00     0.167 HD
ENDBRANCH  51  53
ENDBRANCH  50  51
ENDBRANCH  49  50
ENDBRANCH  47  49
ENDBRANCH  17  47
TORSDOF 26
ENDMDL
MODEL 4
REMARK VINA RESULT:      -6.1      8.890     13.719
REMARK  26 active torsions:
REMARK  status: ('A' for Active; 'I' for Inactive)
REMARK    1  A    between atoms: C_2  and  C_3 
REMARK    2  A    between atoms: C_3  and  C_4 
REMARK    3  A    between atoms: C_4  and  C_5 
REMARK    4  A    between atoms: C_5  and  C_6 
REMARK    5  A    between atoms: C_6  and  C_7 
REMARK    6  A    between atoms: C_7  and  C_8 
REMARK    7  A    between atoms: C_8  and  C_9 
REMARK    8  A    between atoms: C_9  and  C_10 
REMARK    9  A    between atoms: C_10  and  C_11 
REMARK   10  A    between atoms: C_11  and  C_12 
REMARK   11  A    between atoms: C_12  and  C_13 
REMARK   12  A    between atoms: C_13  and  C_14 
REMARK   13  A    between atoms: C_14  and  C_15 
REMARK   14  A    between atoms: C_15  and  C_16 
REMARK   15  A    between atoms: C_16  and  C_17 
REMARK   16  A    between atoms: C_17  and  C_18 
REMARK   17  A    between atoms: C_18  and  C_19 
REMARK   18  A    between atoms: C_19  and  C_20 
REMARK       I    between atoms: C_20  and  N_22 
REMARK   19  A    between atoms: C_23  and  N_22 
REMARK   20  A    between atoms: C_30  and  O_49 
REMARK   21  A    between atoms: C_34  and  O_48 
REMARK   22  A    between atoms: C_39  and  C_40 
REMARK   23  A    between atoms: C_40  and  C_42 
REMARK   24  A    between atoms: C_42  and  C_43 
REMARK   25  A    between atoms: C_43  and  C_44 
REMARK   26  A    between atoms: C_44  and  O_46 
ROOT
HETATM    1  C   UNK N   1      37.402  12.008  11.473  0.00  0.00     0.084 C 
HETATM    2  C   UNK N   1      37.138  11.548  10.046  0.00  0.00     0.026 C 
HETATM    3  C   UNK N   1      35.652  11.675   9.732  0.00  0.00     0.012 C 
HETATM    4  C   UNK N   1      35.152  13.115   9.893  0.00  0.00    -0.036 C 
HETATM    5  C   UNK N   1      35.539  13.677  11.279  0.00  0.00    -0.002 C 
HETATM    6  C   UNK N   1      37.017  13.483  11.615  0.00  0.00     0.030 C 
HETATM    7  C   UNK N   1      35.144  15.150  11.434  0.00  0.00     0.037 C 
HETATM    8  C   UNK N   1      35.767  15.991  10.321  0.00  0.00     0.123 C 
HETATM    9  C   UNK N   1      35.331  15.507   8.923  0.00  0.00     0.024 C 
HETATM   10  C   UNK N   1      35.749  14.043   8.774  0.00  0.00     0.003 C 
HETATM   11  C   UNK N   1      35.540  13.623   7.312  0.00  0.00     0.038 C 
HETATM   12  C   UNK N   1      34.082  13.729   6.866  0.00  0.00     0.127 C 
HETATM   13  C   UNK N   1      33.382  15.061   7.285  0.00  0.00    -0.010 C 
HETATM   14  C   UNK N   1      33.814  15.636   8.649  0.00  0.00     0.003 C 
HETATM   15  C   UNK N   1      33.412  17.107   8.578  0.00  0.00     0.006 C 
HETATM   16  C   UNK N   1      33.314  17.466   7.100  0.00  0.00     0.006 C 
HETATM   17  C   UNK N   1      33.703  16.210   6.322  0.00  0.00     0.000 C 
HETATM   18  C   UNK N   1      31.862  14.841   7.342  0.00  0.00     0.018 C 
HETATM   19  C   UNK N   1      33.632  13.026   9.897  0.00  0.00     0.016 C 
ENDROOT
BRANCH   1  20
HETATM   20  N   UNK N   1      36.767  11.092  12.414  0.00  0.00    -0.356 N 
HETATM   21  C   UNK N   1      37.158  10.763  13.675  0.00  0.00     0.217 C 
HETATM   22  O   UNK N   1      38.166  11.233  14.183  0.00  0.00    -0.274 OA
HETATM   23  H   UNK N   1      35.947  10.652  12.092  0.00  0.00     0.162 HD
BRANCH  21  24
HETATM   24  C   UNK N   1      36.408   9.694  14.389  0.00  0.00     0.103 C 
BRANCH  24  25
HETATM   25  C   UNK N   1      35.088   9.425  13.675  0.00  0.00     0.009 C 
BRANCH  25  26
HETATM   26  C   UNK N   1      34.121  10.614  13.758  0.00  0.00     0.000 C 
BRANCH  26  27
HETATM   27  C   UNK N   1      33.923  11.124  15.187  0.00  0.00     0.000 C 
BRANCH  27  28
HETATM   28  C   UNK N   1      34.388  12.559  15.389  0.00  0.00     0.000 C 
BRANCH  28  29
HETATM   29  C   UNK N   1      35.528  12.662  16.388  0.00  0.00     0.000 C 
BRANCH  29  30
HETATM   30  C   UNK N   1      35.086  13.486  17.580  0.00  0.00     0.000 C 
BRANCH  30  31
HETATM   31  C   UNK N   1      35.140  12.642  18.832  0.00  0.00     0.000 C 
BRANCH  31  32
HETATM   32  C   UNK N   1      35.701  11.264  18.519  0.00  0.00     0.000 C 
BRANCH  32  33
HETATM   33  C   UNK N   1      34.885  10.158  19.180  0.00  0.00     0.000 C 
BRANCH  33  34
HETATM   34  C   UNK N   1      34.352   9.177  18.142  0.00  0.00     0.000 C 
BRANCH  34  35
HETATM   35  C   UNK N   1      35.399   8.146  17.741  0.00  0.00     0.000 C 
BRANCH  35  36
HETATM   36  C   UNK N   1      35.329   6.889  18.597  0.00  0.00     0.000 C 
BRANCH  36  37
HETATM   37  C   UNK N   1      33.899   6.585  19.030  0.00  0.00     0.000 C 
BRANCH  37  38
HETATM   38  C   UNK N   1      33.814   6.242  20.509  0.00  0.00     0.000 C 
BRANCH  38  39
HETATM   39  C   UNK N   1      33.736   7.497  21.363  0.00  0.00     0.000 C 
BRANCH  39  40
HETATM   40  C   UNK N   1      32.294   7.790  21.744  0.00  0.00    -0.000 C 
BRANCH  40  41
HETATM   41  C   UNK N   1      31.636   8.690  20.712  0.00  0.00    -0.005 C 
HETATM   42  C   UNK N   1      30.574   7.919  19.953  0.00  0.00     0.005 C 
ENDBRANCH  40  41
ENDBRANCH  39  40
ENDBRANCH  38  39
ENDBRANCH  37  38
ENDBRANCH  36  37
ENDBRANCH  35  36
ENDBRANCH  34  35
ENDBRANCH  33  34
ENDBRANCH  32  33
ENDBRANCH  31  32
ENDBRANCH  30  31
ENDBRANCH  29  30
ENDBRANCH  28  29
ENDBRANCH  27  28
ENDBRANCH  26  27
ENDBRANCH  25  26
ENDBRANCH  24  25
ENDBRANCH  21  24
ENDBRANCH   1  20
BRANCH   8  43
HETATM   43  O   UNK N   1      35.489  17.343  10.517  0.00  0.00    -0.395 OA
HETATM   44  H   UNK N   1      36.133  18.019  10.259  0.00  0.00     0.210 HD
ENDBRANCH   8  43
BRANCH  12  45
HETATM   45  O   UNK N   1      33.388  12.580   7.248  0.00  0.00    -0.395 OA
HETATM   46  H   UNK N   1      32.703  12.354   7.898  0.00  0.00     0.210 HD
ENDBRANCH  12  45
BRANCH  17  47
HETATM   47  C   UNK N   1      32.943  16.103   4.983  0.00  0.00    -0.013 C 
HETATM   48  C   UNK N   1      33.850  15.660   3.849  0.00  0.00     0.010 C 
BRANCH  47  49
HETATM   49  C   UNK N   1      32.232  17.392   4.598  0.00  0.00     0.015 C 
BRANCH  49  50
HETATM   50  C   UNK N   1      30.822  17.083   4.109  0.00  0.00     0.110 C 
BRANCH  50  51
HETATM   51  C   UNK N   1      29.784  17.798   4.912  0.00  0.00     0.139 C 
HETATM   52  O   UNK N   1      29.616  17.526   6.089  0.00  0.00    -0.650 OA
BRANCH  51  53
HETATM   53  O   UNK N   1      29.050  18.766   4.336  0.00  0.00    -0.776 OA
HETATM   54  H   UNK N   1      28.114  18.749   4.331  0.00  0.00     0.167 HD
ENDBRANCH  51  53
ENDBRANCH  50  51
ENDBRANCH  49  50
ENDBRANCH  47  49
ENDBRANCH  17  47
TORSDOF 26
ENDMDL
MODEL 5
REMARK VINA RESULT:      -6.0     11.848     16.047
REMARK  26 active torsions:
REMARK  status: ('A' for Active; 'I' for Inactive)
REMARK    1  A    between atoms: C_2  and  C_3 
REMARK    2  A    between atoms: C_3  and  C_4 
REMARK    3  A    between atoms: C_4  and  C_5 
REMARK    4  A    between atoms: C_5  and  C_6 
REMARK    5  A    between atoms: C_6  and  C_7 
REMARK    6  A    between atoms: C_7  and  C_8 
REMARK    7  A    between atoms: C_8  and  C_9 
REMARK    8  A    between atoms: C_9  and  C_10 
REMARK    9  A    between atoms: C_10  and  C_11 
REMARK   10  A    between atoms: C_11  and  C_12 
REMARK   11  A    between atoms: C_12  and  C_13 
REMARK   12  A    between atoms: C_13  and  C_14 
REMARK   13  A    between atoms: C_14  and  C_15 
REMARK   14  A    between atoms: C_15  and  C_16 
REMARK   15  A    between atoms: C_16  and  C_17 
REMARK   16  A    between atoms: C_17  and  C_18 
REMARK   17  A    between atoms: C_18  and  C_19 
REMARK   18  A    between atoms: C_19  and  C_20 
REMARK       I    between atoms: C_20  and  N_22 
REMARK   19  A    between atoms: C_23  and  N_22 
REMARK   20  A    between atoms: C_30  and  O_49 
REMARK   21  A    between atoms: C_34  and  O_48 
REMARK   22  A    between atoms: C_39  and  C_40 
REMARK   23  A    between atoms: C_40  and  C_42 
REMARK   24  A    between atoms: C_42  and  C_43 
REMARK   25  A    between atoms: C_43  and  C_44 
REMARK   26  A    between atoms: C_44  and  O_46 
ROOT
HETATM    1  C   UNK N   1      26.537  24.712  -4.045  0.00  0.00     0.084 C 
HETATM    2  C   UNK N   1      26.529  23.944  -5.360  0.00  0.00     0.026 C 
HETATM    3  C   UNK N   1      27.784  24.278  -6.157  0.00  0.00     0.012 C 
HETATM    4  C   UNK N   1      29.064  23.934  -5.387  0.00  0.00    -0.036 C 
HETATM    5  C   UNK N   1      29.041  24.570  -3.979  0.00  0.00    -0.002 C 
HETATM    6  C   UNK N   1      27.750  24.287  -3.212  0.00  0.00     0.030 C 
HETATM    7  C   UNK N   1      30.259  24.160  -3.144  0.00  0.00     0.037 C 
HETATM    8  C   UNK N   1      30.353  22.638  -3.045  0.00  0.00     0.123 C 
HETATM    9  C   UNK N   1      30.463  21.979  -4.434  0.00  0.00     0.024 C 
HETATM   10  C   UNK N   1      29.232  22.378  -5.250  0.00  0.00     0.003 C 
HETATM   11  C   UNK N   1      29.208  21.541  -6.537  0.00  0.00     0.038 C 
HETATM   12  C   UNK N   1      30.435  21.772  -7.419  0.00  0.00     0.127 C 
HETATM   13  C   UNK N   1      31.789  21.764  -6.643  0.00  0.00    -0.010 C 
HETATM   14  C   UNK N   1      31.741  22.356  -5.219  0.00  0.00     0.003 C 
HETATM   15  C   UNK N   1      32.975  21.776  -4.533  0.00  0.00     0.006 C 
HETATM   16  C   UNK N   1      33.350  20.510  -5.295  0.00  0.00     0.006 C 
HETATM   17  C   UNK N   1      32.303  20.340  -6.395  0.00  0.00     0.000 C 
HETATM   18  C   UNK N   1      32.836  22.562  -7.436  0.00  0.00     0.018 C 
HETATM   19  C   UNK N   1      30.193  24.631  -6.133  0.00  0.00     0.016 C 
ENDROOT
BRANCH   1  20
HETATM   20  N   UNK N   1      26.414  26.141  -4.306  0.00  0.00    -0.356 N 
HETATM   21  C   UNK N   1      26.139  27.144  -3.429  0.00  0.00     0.217 C 
HETATM   22  O   UNK N   1      25.941  26.929  -2.242  0.00  0.00    -0.274 OA
HETATM   23  H   UNK N   1      26.547  26.417  -5.242  0.00  0.00     0.162 HD
BRANCH  21  24
HETATM   24  C   UNK N   1      25.934  28.516  -3.969  0.00  0.00     0.103 C 
BRANCH  24  25
HETATM   25  C   UNK N   1      26.823  28.728  -5.189  0.00  0.00     0.009 C 
BRANCH  25  26
HETATM   26  C   UNK N   1      27.787  29.910  -5.018  0.00  0.00     0.000 C 
BRANCH  26  27
HETATM   27  C   UNK N   1      29.063  29.535  -4.262  0.00  0.00     0.000 C 
BRANCH  27  28
HETATM   28  C   UNK N   1      29.607  28.162  -4.635  0.00  0.00     0.000 C 
BRANCH  28  29
HETATM   29  C   UNK N   1      31.118  28.164  -4.796  0.00  0.00     0.000 C 
BRANCH  29  30
HETATM   30  C   UNK N   1      31.477  27.811  -6.225  0.00  0.00     0.000 C 
BRANCH  30  31
HETATM   31  C   UNK N   1      31.212  28.996  -7.125  0.00  0.00     0.000 C 
BRANCH  31  32
HETATM   32  C   UNK N   1      30.462  28.557  -8.372  0.00  0.00     0.000 C 
BRANCH  32  33
HETATM   33  C   UNK N   1      28.962  28.804  -8.245  0.00  0.00     0.000 C 
BRANCH  33  34
HETATM   34  C   UNK N   1      28.179  27.507  -8.414  0.00  0.00     0.000 C 
BRANCH  34  35
HETATM   35  C   UNK N   1      29.013  26.419  -9.075  0.00  0.00     0.000 C 
BRANCH  35  36
HETATM   36  C   UNK N   1      28.151  25.344  -9.725  0.00  0.00     0.000 C 
BRANCH  36  37
HETATM   37  C   UNK N   1      26.691  25.469  -9.305  0.00  0.00     0.000 C 
BRANCH  37  38
HETATM   38  C   UNK N   1      25.901  24.207  -9.615  0.00  0.00     0.000 C 
BRANCH  38  39
HETATM   39  C   UNK N   1      26.752  22.962  -9.423  0.00  0.00     0.000 C 
BRANCH  39  40
HETATM   40  C   UNK N   1      25.885  21.714  -9.462  0.00  0.00    -0.000 C 
BRANCH  40  41
HETATM   41  C   UNK N   1      25.897  21.008  -8.117  0.00  0.00    -0.005 C 
HETATM   42  C   UNK N   1      24.684  21.417  -7.305  0.00  0.00     0.005 C 
ENDBRANCH  40  41
ENDBRANCH  39  40
ENDBRANCH  38  39
ENDBRANCH  37  38
ENDBRANCH  36  37
ENDBRANCH  35  36
ENDBRANCH  34  35
ENDBRANCH  33  34
ENDBRANCH  32  33
ENDBRANCH  31  32
ENDBRANCH  30  31
ENDBRANCH  29  30
ENDBRANCH  28  29
ENDBRANCH  27  28
ENDBRANCH  26  27
ENDBRANCH  25  26
ENDBRANCH  24  25
ENDBRANCH  21  24
ENDBRANCH   1  20
BRANCH   8  43
HETATM   43  O   UNK N   1      31.403  22.268  -2.205  0.00  0.00    -0.395 OA
HETATM   44  H   UNK N   1      32.161  21.776  -2.555  0.00  0.00     0.210 HD
ENDBRANCH   8  43
BRANCH  12  45
HETATM   45  O   UNK N   1      30.241  22.908  -8.207  0.00  0.00    -0.395 OA
HETATM   46  H   UNK N   1      30.775  23.666  -8.494  0.00  0.00     0.210 HD
ENDBRANCH  12  45
BRANCH  17  47
HETATM   47  C   UNK N   1      32.898  19.686  -7.659  0.00  0.00    -0.013 C 
HETATM   48  C   UNK N   1      31.847  18.932  -8.456  0.00  0.00     0.010 C 
BRANCH  47  49
HETATM   49  C   UNK N   1      34.072  18.766  -7.358  0.00  0.00     0.015 C 
BRANCH  49  50
HETATM   50  C   UNK N   1      34.249  17.761  -8.490  0.00  0.00     0.110 C 
BRANCH  50  51
HETATM   51  C   UNK N   1      34.453  16.373  -7.976  0.00  0.00     0.139 C 
HETATM   52  O   UNK N   1      35.202  16.163  -7.037  0.00  0.00    -0.650 OA
BRANCH  51  53
HETATM   53  O   UNK N   1      33.782  15.352  -8.540  0.00  0.00    -0.776 OA
HETATM   54  H   UNK N   1      33.472  14.621  -8.043  0.00  0.00     0.167 HD
ENDBRANCH  51  53
ENDBRANCH  50  51
ENDBRANCH  49  50
ENDBRANCH  47  49
ENDBRANCH  17  47
TORSDOF 26
ENDMDL
MODEL 6
REMARK VINA RESULT:      -5.9      3.045      9.372
REMARK  26 active torsions:
REMARK  status: ('A' for Active; 'I' for Inactive)
REMARK    1  A    between atoms: C_2  and  C_3 
REMARK    2  A    between atoms: C_3  and  C_4 
REMARK    3  A    between atoms: C_4  and  C_5 
REMARK    4  A    between atoms: C_5  and  C_6 
REMARK    5  A    between atoms: C_6  and  C_7 
REMARK    6  A    between atoms: C_7  and  C_8 
REMARK    7  A    between atoms: C_8  and  C_9 
REMARK    8  A    between atoms: C_9  and  C_10 
REMARK    9  A    between atoms: C_10  and  C_11 
REMARK   10  A    between atoms: C_11  and  C_12 
REMARK   11  A    between atoms: C_12  and  C_13 
REMARK   12  A    between atoms: C_13  and  C_14 
REMARK   13  A    between atoms: C_14  and  C_15 
REMARK   14  A    between atoms: C_15  and  C_16 
REMARK   15  A    between atoms: C_16  and  C_17 
REMARK   16  A    between atoms: C_17  and  C_18 
REMARK   17  A    between atoms: C_18  and  C_19 
REMARK   18  A    between atoms: C_19  and  C_20 
REMARK       I    between atoms: C_20  and  N_22 
REMARK   19  A    between atoms: C_23  and  N_22 
REMARK   20  A    between atoms: C_30  and  O_49 
REMARK   21  A    between atoms: C_34  and  O_48 
REMARK   22  A    between atoms: C_39  and  C_40 
REMARK   23  A    between atoms: C_40  and  C_42 
REMARK   24  A    between atoms: C_42  and  C_43 
REMARK   25  A    between atoms: C_43  and  C_44 
REMARK   26  A    between atoms: C_44  and  O_46 
ROOT
HETATM    1  C   UNK N   1      25.076  13.847   1.518  0.00  0.00     0.084 C 
HETATM    2  C   UNK N   1      25.589  15.281   1.513  0.00  0.00     0.026 C 
HETATM    3  C   UNK N   1      25.852  15.737   2.943  0.00  0.00     0.012 C 
HETATM    4  C   UNK N   1      26.876  14.844   3.653  0.00  0.00    -0.036 C 
HETATM    5  C   UNK N   1      26.470  13.356   3.546  0.00  0.00    -0.002 C 
HETATM    6  C   UNK N   1      26.141  12.925   2.117  0.00  0.00     0.030 C 
HETATM    7  C   UNK N   1      27.526  12.428   4.155  0.00  0.00     0.037 C 
HETATM    8  C   UNK N   1      28.887  12.662   3.502  0.00  0.00     0.123 C 
HETATM    9  C   UNK N   1      29.359  14.120   3.668  0.00  0.00     0.024 C 
HETATM   10  C   UNK N   1      28.308  15.036   3.037  0.00  0.00     0.003 C 
HETATM   11  C   UNK N   1      28.875  16.461   2.978  0.00  0.00     0.038 C 
HETATM   12  C   UNK N   1      29.203  17.027   4.360  0.00  0.00     0.127 C 
HETATM   13  C   UNK N   1      29.977  16.038   5.287  0.00  0.00    -0.010 C 
HETATM   14  C   UNK N   1      29.598  14.551   5.133  0.00  0.00     0.003 C 
HETATM   15  C   UNK N   1      30.791  13.799   5.719  0.00  0.00     0.006 C 
HETATM   16  C   UNK N   1      31.983  14.748   5.655  0.00  0.00     0.006 C 
HETATM   17  C   UNK N   1      31.482  16.030   4.993  0.00  0.00     0.000 C 
HETATM   18  C   UNK N   1      29.738  16.423   6.756  0.00  0.00     0.018 C 
HETATM   19  C   UNK N   1      26.771  15.191   5.132  0.00  0.00     0.016 C 
ENDROOT
BRANCH   1  20
HETATM   20  N   UNK N   1      23.762  13.794   2.148  0.00  0.00    -0.356 N 
HETATM   21  C   UNK N   1      22.542  14.006   1.586  0.00  0.00     0.217 C 
HETATM   22  O   UNK N   1      22.415  14.296   0.404  0.00  0.00    -0.274 OA
HETATM   23  H   UNK N   1      23.758  13.577   3.108  0.00  0.00     0.162 HD
BRANCH  21  24
HETATM   24  C   UNK N   1      21.349  14.024   2.476  0.00  0.00     0.103 C 
BRANCH  24  25
HETATM   25  C   UNK N   1      20.723  15.415   2.470  0.00  0.00     0.009 C 
BRANCH  25  26
HETATM   26  C   UNK N   1      19.732  15.620   3.623  0.00  0.00     0.000 C 
BRANCH  26  27
HETATM   27  C   UNK N   1      19.617  17.082   4.059  0.00  0.00     0.000 C 
BRANCH  27  28
HETATM   28  C   UNK N   1      20.662  17.989   3.423  0.00  0.00     0.000 C 
BRANCH  28  29
HETATM   29  C   UNK N   1      21.477  18.746   4.458  0.00  0.00     0.000 C 
BRANCH  29  30
HETATM   30  C   UNK N   1      22.882  18.181   4.511  0.00  0.00     0.000 C 
BRANCH  30  31
HETATM   31  C   UNK N   1      22.993  17.195   5.651  0.00  0.00     0.000 C 
BRANCH  31  32
HETATM   32  C   UNK N   1      23.163  15.782   5.116  0.00  0.00     0.000 C 
BRANCH  32  33
HETATM   33  C   UNK N   1      22.655  14.738   6.104  0.00  0.00     0.000 C 
BRANCH  33  34
HETATM   34  C   UNK N   1      23.211  13.357   5.775  0.00  0.00     0.000 C 
BRANCH  34  35
HETATM   35  C   UNK N   1      22.269  12.244   6.214  0.00  0.00     0.000 C 
BRANCH  35  36
HETATM   36  C   UNK N   1      22.995  11.136   6.964  0.00  0.00     0.000 C 
BRANCH  36  37
HETATM   37  C   UNK N   1      24.062  11.697   7.898  0.00  0.00     0.000 C 
BRANCH  37  38
HETATM   38  C   UNK N   1      23.638  11.621   9.356  0.00  0.00     0.000 C 
BRANCH  38  39
HETATM   39  C   UNK N   1      23.203  12.981   9.876  0.00  0.00     0.000 C 
BRANCH  39  40
HETATM   40  C   UNK N   1      21.946  12.850  10.720  0.00  0.00    -0.000 C 
BRANCH  40  41
HETATM   41  C   UNK N   1      20.729  13.344   9.955  0.00  0.00    -0.005 C 
HETATM   42  C   UNK N   1      21.015  14.705   9.351  0.00  0.00     0.005 C 
ENDBRANCH  40  41
ENDBRANCH  39  40
ENDBRANCH  38  39
ENDBRANCH  37  38
ENDBRANCH  36  37
ENDBRANCH  35  36
ENDBRANCH  34  35
ENDBRANCH  33  34
ENDBRANCH  32  33
ENDBRANCH  31  32
ENDBRANCH  30  31
ENDBRANCH  29  30
ENDBRANCH  28  29
ENDBRANCH  27  28
ENDBRANCH  26  27
ENDBRANCH  25  26
ENDBRANCH  24  25
ENDBRANCH  21  24
ENDBRANCH   1  20
BRANCH   8  43
HETATM   43  O   UNK N   1      29.824  11.750   3.988  0.00  0.00    -0.395 OA
HETATM   44  H   UNK N   1      30.664  11.615   3.523  0.00  0.00     0.210 HD
ENDBRANCH   8  43
BRANCH  12  45
HETATM   45  O   UNK N   1      28.048  17.558   4.937  0.00  0.00    -0.395 OA
HETATM   46  H   UNK N   1      27.791  18.395   5.355  0.00  0.00     0.210 HD
ENDBRANCH  12  45
BRANCH  17  47
HETATM   47  C   UNK N   1      32.208  17.279   5.535  0.00  0.00    -0.013 C 
HETATM   48  C   UNK N   1      33.191  17.847   4.526  0.00  0.00     0.010 C 
BRANCH  47  49
HETATM   49  C   UNK N   1      32.918  17.028   6.857  0.00  0.00     0.015 C 
BRANCH  49  50
HETATM   50  C   UNK N   1      34.203  17.844   6.921  0.00  0.00     0.110 C 
BRANCH  50  51
HETATM   51  C   UNK N   1      34.552  18.228   8.322  0.00  0.00     0.139 C 
HETATM   52  O   UNK N   1      34.152  17.565   9.264  0.00  0.00    -0.650 OA
BRANCH  51  53
HETATM   53  O   UNK N   1      35.336  19.299   8.542  0.00  0.00    -0.776 OA
HETATM   54  H   UNK N   1      35.325  20.051   7.984  0.00  0.00     0.167 HD
ENDBRANCH  51  53
ENDBRANCH  50  51
ENDBRANCH  49  50
ENDBRANCH  47  49
ENDBRANCH  17  47
TORSDOF 26
ENDMDL
MODEL 7
REMARK VINA RESULT:      -5.9      3.798      7.757
REMARK  26 active torsions:
REMARK  status: ('A' for Active; 'I' for Inactive)
REMARK    1  A    between atoms: C_2  and  C_3 
REMARK    2  A    between atoms: C_3  and  C_4 
REMARK    3  A    between atoms: C_4  and  C_5 
REMARK    4  A    between atoms: C_5  and  C_6 
REMARK    5  A    between atoms: C_6  and  C_7 
REMARK    6  A    between atoms: C_7  and  C_8 
REMARK    7  A    between atoms: C_8  and  C_9 
REMARK    8  A    between atoms: C_9  and  C_10 
REMARK    9  A    between atoms: C_10  and  C_11 
REMARK   10  A    between atoms: C_11  and  C_12 
REMARK   11  A    between atoms: C_12  and  C_13 
REMARK   12  A    between atoms: C_13  and  C_14 
REMARK   13  A    between atoms: C_14  and  C_15 
REMARK   14  A    between atoms: C_15  and  C_16 
REMARK   15  A    between atoms: C_16  and  C_17 
REMARK   16  A    between atoms: C_17  and  C_18 
REMARK   17  A    between atoms: C_18  and  C_19 
REMARK   18  A    between atoms: C_19  and  C_20 
REMARK       I    between atoms: C_20  and  N_22 
REMARK   19  A    between atoms: C_23  and  N_22 
REMARK   20  A    between atoms: C_30  and  O_49 
REMARK   21  A    between atoms: C_34  and  O_48 
REMARK   22  A    between atoms: C_39  and  C_40 
REMARK   23  A    between atoms: C_40  and  C_42 
REMARK   24  A    between atoms: C_42  and  C_43 
REMARK   25  A    between atoms: C_43  and  C_44 
REMARK   26  A    between atoms: C_44  and  O_46 
ROOT
HETATM    1  C   UNK N   1      20.317  17.352   3.533  0.00  0.00     0.084 C 
HETATM    2  C   UNK N   1      20.411  16.038   2.770  0.00  0.00     0.026 C 
HETATM    3  C   UNK N   1      21.808  15.452   2.927  0.00  0.00     0.012 C 
HETATM    4  C   UNK N   1      22.167  15.203   4.396  0.00  0.00    -0.036 C 
HETATM    5  C   UNK N   1      21.935  16.478   5.239  0.00  0.00    -0.002 C 
HETATM    6  C   UNK N   1      20.555  17.097   5.023  0.00  0.00     0.030 C 
HETATM    7  C   UNK N   1      22.184  16.234   6.731  0.00  0.00     0.037 C 
HETATM    8  C   UNK N   1      21.311  15.087   7.240  0.00  0.00     0.123 C 
HETATM    9  C   UNK N   1      21.582  13.777   6.473  0.00  0.00     0.024 C 
HETATM   10  C   UNK N   1      21.309  14.027   4.989  0.00  0.00     0.003 C 
HETATM   11  C   UNK N   1      21.339  12.680   4.254  0.00  0.00     0.038 C 
HETATM   12  C   UNK N   1      22.693  11.978   4.356  0.00  0.00     0.127 C 
HETATM   13  C   UNK N   1      23.298  11.967   5.796  0.00  0.00    -0.010 C 
HETATM   14  C   UNK N   1      23.016  13.224   6.643  0.00  0.00     0.003 C 
HETATM   15  C   UNK N   1      23.240  12.762   8.081  0.00  0.00     0.006 C 
HETATM   16  C   UNK N   1      23.073  11.247   8.088  0.00  0.00     0.006 C 
HETATM   17  C   UNK N   1      22.711  10.844   6.660  0.00  0.00     0.000 C 
HETATM   18  C   UNK N   1      24.824  11.807   5.706  0.00  0.00     0.018 C 
HETATM   19  C   UNK N   1      23.670  14.965   4.419  0.00  0.00     0.016 C 
ENDROOT
BRANCH   1  20
HETATM   20  N   UNK N   1      21.183  18.347   2.911  0.00  0.00    -0.356 N 
HETATM   21  C   UNK N   1      21.332  19.661   3.230  0.00  0.00     0.217 C 
HETATM   22  O   UNK N   1      20.696  20.184   4.135  0.00  0.00    -0.274 OA
HETATM   23  H   UNK N   1      21.732  18.025   2.161  0.00  0.00     0.162 HD
BRANCH  21  24
HETATM   24  C   UNK N   1      22.187  20.507   2.353  0.00  0.00     0.103 C 
BRANCH  24  25
HETATM   25  C   UNK N   1      23.514  20.793   3.049  0.00  0.00     0.009 C 
BRANCH  25  26
HETATM   26  C   UNK N   1      24.232  19.513   3.497  0.00  0.00     0.000 C 
BRANCH  26  27
HETATM   27  C   UNK N   1      25.710  19.488   3.099  0.00  0.00     0.000 C 
BRANCH  27  28
HETATM   28  C   UNK N   1      26.659  19.518   4.290  0.00  0.00     0.000 C 
BRANCH  28  29
HETATM   29  C   UNK N   1      26.668  20.868   4.987  0.00  0.00     0.000 C 
BRANCH  29  30
HETATM   30  C   UNK N   1      27.312  20.730   6.351  0.00  0.00     0.000 C 
BRANCH  30  31
HETATM   31  C   UNK N   1      27.820  19.319   6.536  0.00  0.00     0.000 C 
BRANCH  31  32
HETATM   32  C   UNK N   1      28.183  19.072   7.992  0.00  0.00     0.000 C 
BRANCH  32  33
HETATM   33  C   UNK N   1      28.450  17.596   8.266  0.00  0.00     0.000 C 
BRANCH  33  34
HETATM   34  C   UNK N   1      29.526  17.425   9.333  0.00  0.00     0.000 C 
BRANCH  34  35
HETATM   35  C   UNK N   1      30.775  18.237   9.018  0.00  0.00     0.000 C 
BRANCH  35  36
HETATM   36  C   UNK N   1      31.685  17.534   8.021  0.00  0.00     0.000 C 
BRANCH  36  37
HETATM   37  C   UNK N   1      33.087  18.133   8.023  0.00  0.00     0.000 C 
BRANCH  37  38
HETATM   38  C   UNK N   1      33.934  17.602   6.876  0.00  0.00     0.000 C 
BRANCH  38  39
HETATM   39  C   UNK N   1      33.091  16.816   5.886  0.00  0.00     0.000 C 
BRANCH  39  40
HETATM   40  C   UNK N   1      32.947  17.585   4.583  0.00  0.00    -0.000 C 
BRANCH  40  41
HETATM   41  C   UNK N   1      31.703  17.143   3.831  0.00  0.00    -0.005 C 
HETATM   42  C   UNK N   1      30.461  17.547   4.600  0.00  0.00     0.005 C 
ENDBRANCH  40  41
ENDBRANCH  39  40
ENDBRANCH  38  39
ENDBRANCH  37  38
ENDBRANCH  36  37
ENDBRANCH  35  36
ENDBRANCH  34  35
ENDBRANCH  33  34
ENDBRANCH  32  33
ENDBRANCH  31  32
ENDBRANCH  30  31
ENDBRANCH  29  30
ENDBRANCH  28  29
ENDBRANCH  27  28
ENDBRANCH  26  27
ENDBRANCH  25  26
ENDBRANCH  24  25
ENDBRANCH  21  24
ENDBRANCH   1  20
BRANCH   8  43
HETATM   43  O   UNK N   1      21.467  14.930   8.616  0.00  0.00    -0.395 OA
HETATM   44  H   UNK N   1      21.756  15.675   9.165  0.00  0.00     0.210 HD
ENDBRANCH   8  43
BRANCH  12  45
HETATM   45  O   UNK N   1      23.559  12.478   3.382  0.00  0.00    -0.395 OA
HETATM   46  H   UNK N   1      24.202  12.110   2.756  0.00  0.00     0.210 HD
ENDBRANCH  12  45
BRANCH  17  47
HETATM   47  C   UNK N   1      23.267   9.451   6.297  0.00  0.00    -0.013 C 
HETATM   48  C   UNK N   1      22.209   8.565   5.663  0.00  0.00     0.010 C 
BRANCH  47  49
HETATM   49  C   UNK N   1      23.895   8.733   7.481  0.00  0.00     0.015 C 
BRANCH  49  50
HETATM   50  C   UNK N   1      24.725   7.551   6.994  0.00  0.00     0.110 C 
BRANCH  50  51
HETATM   51  C   UNK N   1      24.498   6.330   7.825  0.00  0.00     0.139 C 
HETATM   52  O   UNK N   1      25.424   5.805   8.421  0.00  0.00    -0.650 OA
BRANCH  51  53
HETATM   53  O   UNK N   1      23.257   5.823   7.936  0.00  0.00    -0.776 OA
HETATM   54  H   UNK N   1      23.011   5.009   7.544  0.00  0.00     0.167 HD
ENDBRANCH  51  53
ENDBRANCH  50  51
ENDBRANCH  49  50
ENDBRANCH  47  49
ENDBRANCH  17  47
TORSDOF 26
ENDMDL
MODEL 8
REMARK VINA RESULT:      -5.9      2.973      9.035
REMARK  26 active torsions:
REMARK  status: ('A' for Active; 'I' for Inactive)
REMARK    1  A    between atoms: C_2  and  C_3 
REMARK    2  A    between atoms: C_3  and  C_4 
REMARK    3  A    between atoms: C_4  and  C_5 
REMARK    4  A    between atoms: C_5  and  C_6 
REMARK    5  A    between atoms: C_6  and  C_7 
REMARK    6  A    between atoms: C_7  and  C_8 
REMARK    7  A    between atoms: C_8  and  C_9 
REMARK    8  A    between atoms: C_9  and  C_10 
REMARK    9  A    between atoms: C_10  and  C_11 
REMARK   10  A    between atoms: C_11  and  C_12 
REMARK   11  A    between atoms: C_12  and  C_13 
REMARK   12  A    between atoms: C_13  and  C_14 
REMARK   13  A    between atoms: C_14  and  C_15 
REMARK   14  A    between atoms: C_15  and  C_16 
REMARK   15  A    between atoms: C_16  and  C_17 
REMARK   16  A    between atoms: C_17  and  C_18 
REMARK   17  A    between atoms: C_18  and  C_19 
REMARK   18  A    between atoms: C_19  and  C_20 
REMARK       I    between atoms: C_20  and  N_22 
REMARK   19  A    between atoms: C_23  and  N_22 
REMARK   20  A    between atoms: C_30  and  O_49 
REMARK   21  A    between atoms: C_34  and  O_48 
REMARK   22  A    between atoms: C_39  and  C_40 
REMARK   23  A    between atoms: C_40  and  C_42 
REMARK   24  A    between atoms: C_42  and  C_43 
REMARK   25  A    between atoms: C_43  and  C_44 
REMARK   26  A    between atoms: C_44  and  O_46 
ROOT
HETATM    1  C   UNK N   1      23.885  12.063   4.506  0.00  0.00     0.084 C 
HETATM    2  C   UNK N   1      25.283  11.462   4.435  0.00  0.00     0.026 C 
HETATM    3  C   UNK N   1      26.104  12.195   3.382  0.00  0.00     0.012 C 
HETATM    4  C   UNK N   1      26.221  13.694   3.684  0.00  0.00    -0.036 C 
HETATM    5  C   UNK N   1      24.825  14.314   3.918  0.00  0.00    -0.002 C 
HETATM    6  C   UNK N   1      23.981  13.533   4.924  0.00  0.00     0.030 C 
HETATM    7  C   UNK N   1      24.912  15.789   4.324  0.00  0.00     0.037 C 
HETATM    8  C   UNK N   1      25.787  15.952   5.566  0.00  0.00     0.123 C 
HETATM    9  C   UNK N   1      27.215  15.419   5.335  0.00  0.00     0.024 C 
HETATM   10  C   UNK N   1      27.116  13.941   4.951  0.00  0.00     0.003 C 
HETATM   11  C   UNK N   1      28.529  13.340   4.956  0.00  0.00     0.038 C 
HETATM   12  C   UNK N   1      29.463  14.012   3.949  0.00  0.00     0.127 C 
HETATM   13  C   UNK N   1      29.400  15.571   3.963  0.00  0.00    -0.010 C 
HETATM   14  C   UNK N   1      28.011  16.177   4.247  0.00  0.00     0.003 C 
HETATM   15  C   UNK N   1      28.312  17.602   4.706  0.00  0.00     0.006 C 
HETATM   16  C   UNK N   1      29.750  17.607   5.211  0.00  0.00     0.006 C 
HETATM   17  C   UNK N   1      30.261  16.173   5.080  0.00  0.00     0.000 C 
HETATM   18  C   UNK N   1      29.866  16.113   2.601  0.00  0.00     0.018 C 
HETATM   19  C   UNK N   1      26.743  14.332   2.405  0.00  0.00     0.016 C 
ENDROOT
BRANCH   1  20
HETATM   20  N   UNK N   1      23.171  11.801   3.262  0.00  0.00    -0.356 N 
HETATM   21  C   UNK N   1      22.599  10.642   2.839  0.00  0.00     0.217 C 
HETATM   22  O   UNK N   1      22.639   9.618   3.508  0.00  0.00    -0.274 OA
HETATM   23  H   UNK N   1      23.093  12.565   2.646  0.00  0.00     0.162 HD
BRANCH  21  24
HETATM   24  C   UNK N   1      22.039  10.593   1.461  0.00  0.00     0.103 C 
BRANCH  24  25
HETATM   25  C   UNK N   1      23.128  10.179   0.477  0.00  0.00     0.009 C 
BRANCH  25  26
HETATM   26  C   UNK N   1      24.067  11.337   0.115  0.00  0.00     0.000 C 
BRANCH  26  27
HETATM   27  C   UNK N   1      23.319  12.591  -0.342  0.00  0.00     0.000 C 
BRANCH  27  28
HETATM   28  C   UNK N   1      23.754  13.856   0.386  0.00  0.00     0.000 C 
BRANCH  28  29
HETATM   29  C   UNK N   1      22.613  14.502   1.154  0.00  0.00     0.000 C 
BRANCH  29  30
HETATM   30  C   UNK N   1      21.302  13.855   0.756  0.00  0.00     0.000 C 
BRANCH  30  31
HETATM   31  C   UNK N   1      20.324  13.936   1.905  0.00  0.00     0.000 C 
BRANCH  31  32
HETATM   32  C   UNK N   1      20.884  14.809   3.017  0.00  0.00     0.000 C 
BRANCH  32  33
HETATM   33  C   UNK N   1      19.780  15.548   3.765  0.00  0.00     0.000 C 
BRANCH  33  34
HETATM   34  C   UNK N   1      19.865  17.051   3.520  0.00  0.00     0.000 C 
BRANCH  34  35
HETATM   35  C   UNK N   1      21.285  17.576   3.686  0.00  0.00     0.000 C 
BRANCH  35  36
HETATM   36  C   UNK N   1      21.400  18.578   4.826  0.00  0.00     0.000 C 
BRANCH  36  37
HETATM   37  C   UNK N   1      21.296  17.896   6.185  0.00  0.00     0.000 C 
BRANCH  37  38
HETATM   38  C   UNK N   1      22.257  16.724   6.308  0.00  0.00     0.000 C 
BRANCH  38  39
HETATM   39  C   UNK N   1      21.645  15.591   7.117  0.00  0.00     0.000 C 
BRANCH  39  40
HETATM   40  C   UNK N   1      20.205  15.914   7.479  0.00  0.00    -0.000 C 
BRANCH  40  41
HETATM   41  C   UNK N   1      19.968  15.728   8.968  0.00  0.00    -0.005 C 
HETATM   42  C   UNK N   1      20.448  14.357   9.401  0.00  0.00     0.005 C 
ENDBRANCH  40  41
ENDBRANCH  39  40
ENDBRANCH  38  39
ENDBRANCH  37  38
ENDBRANCH  36  37
ENDBRANCH  35  36
ENDBRANCH  34  35
ENDBRANCH  33  34
ENDBRANCH  32  33
ENDBRANCH  31  32
ENDBRANCH  30  31
ENDBRANCH  29  30
ENDBRANCH  28  29
ENDBRANCH  27  28
ENDBRANCH  26  27
ENDBRANCH  25  26
ENDBRANCH  24  25
ENDBRANCH  21  24
ENDBRANCH   1  20
BRANCH   8  43
HETATM   43  O   UNK N   1      25.787  17.280   5.992  0.00  0.00    -0.395 OA
HETATM   44  H   UNK N   1      25.093  17.889   5.696  0.00  0.00     0.210 HD
ENDBRANCH   8  43
BRANCH  12  45
HETATM   45  O   UNK N   1      29.276  13.449   2.685  0.00  0.00    -0.395 OA
HETATM   46  H   UNK N   1      29.213  12.553   2.315  0.00  0.00     0.210 HD
ENDBRANCH  12  45
BRANCH  17  47
HETATM   47  C   UNK N   1      31.772  16.127   4.768  0.00  0.00    -0.013 C 
HETATM   48  C   UNK N   1      32.484  15.052   5.570  0.00  0.00     0.010 C 
BRANCH  47  49
HETATM   49  C   UNK N   1      32.464  17.466   4.976  0.00  0.00     0.015 C 
BRANCH  49  50
HETATM   50  C   UNK N   1      33.742  17.271   5.784  0.00  0.00     0.110 C 
BRANCH  50  51
HETATM   51  C   UNK N   1      33.657  17.920   7.127  0.00  0.00     0.139 C 
HETATM   52  O   UNK N   1      32.594  17.979   7.721  0.00  0.00    -0.650 OA
BRANCH  51  53
HETATM   53  O   UNK N   1      34.771  18.418   7.694  0.00  0.00    -0.776 OA
HETATM   54  H   UNK N   1      35.364  18.974   7.230  0.00  0.00     0.167 HD
ENDBRANCH  51  53
ENDBRANCH  50  51
ENDBRANCH  49  50
ENDBRANCH  47  49
ENDBRANCH  17  47
TORSDOF 26
ENDMDL
MODEL 9
REMARK VINA RESULT:      -5.8      5.484      9.569
REMARK  26 active torsions:
REMARK  status: ('A' for Active; 'I' for Inactive)
REMARK    1  A    between atoms: C_2  and  C_3 
REMARK    2  A    between atoms: C_3  and  C_4 
REMARK    3  A    between atoms: C_4  and  C_5 
REMARK    4  A    between atoms: C_5  and  C_6 
REMARK    5  A    between atoms: C_6  and  C_7 
REMARK    6  A    between atoms: C_7  and  C_8 
REMARK    7  A    between atoms: C_8  and  C_9 
REMARK    8  A    between atoms: C_9  and  C_10 
REMARK    9  A    between atoms: C_10  and  C_11 
REMARK   10  A    between atoms: C_11  and  C_12 
REMARK   11  A    between atoms: C_12  and  C_13 
REMARK   12  A    between atoms: C_13  and  C_14 
REMARK   13  A    between atoms: C_14  and  C_15 
REMARK   14  A    between atoms: C_15  and  C_16 
REMARK   15  A    between atoms: C_16  and  C_17 
REMARK   16  A    between atoms: C_17  and  C_18 
REMARK   17  A    between atoms: C_18  and  C_19 
REMARK   18  A    between atoms: C_19  and  C_20 
REMARK       I    between atoms: C_20  and  N_22 
REMARK   19  A    between atoms: C_23  and  N_22 
REMARK   20  A    between atoms: C_30  and  O_49 
REMARK   21  A    between atoms: C_34  and  O_48 
REMARK   22  A    between atoms: C_39  and  C_40 
REMARK   23  A    between atoms: C_40  and  C_42 
REMARK   24  A    between atoms: C_42  and  C_43 
REMARK   25  A    between atoms: C_43  and  C_44 
REMARK   26  A    between atoms: C_44  and  O_46 
ROOT
HETATM    1  C   UNK N   1      34.942  15.364   6.800  0.00  0.00     0.084 C 
HETATM    2  C   UNK N   1      34.465  15.768   5.412  0.00  0.00     0.026 C 
HETATM    3  C   UNK N   1      33.079  15.189   5.156  0.00  0.00     0.012 C 
HETATM    4  C   UNK N   1      32.056  15.666   6.193  0.00  0.00    -0.036 C 
HETATM    5  C   UNK N   1      32.574  15.415   7.627  0.00  0.00    -0.002 C 
HETATM    6  C   UNK N   1      33.992  15.938   7.854  0.00  0.00     0.030 C 
HETATM    7  C   UNK N   1      31.621  15.974   8.689  0.00  0.00     0.037 C 
HETATM    8  C   UNK N   1      31.379  17.466   8.459  0.00  0.00     0.123 C 
HETATM    9  C   UNK N   1      30.781  17.741   7.065  0.00  0.00     0.024 C 
HETATM   10  C   UNK N   1      31.751  17.197   6.014  0.00  0.00     0.003 C 
HETATM   11  C   UNK N   1      31.289  17.676   4.631  0.00  0.00     0.038 C 
HETATM   12  C   UNK N   1      29.892  17.175   4.265  0.00  0.00     0.127 C 
HETATM   13  C   UNK N   1      28.840  17.327   5.409  0.00  0.00    -0.010 C 
HETATM   14  C   UNK N   1      29.382  17.122   6.838  0.00  0.00     0.003 C 
HETATM   15  C   UNK N   1      28.349  17.807   7.730  0.00  0.00     0.006 C 
HETATM   16  C   UNK N   1      27.615  18.818   6.857  0.00  0.00     0.006 C 
HETATM   17  C   UNK N   1      28.257  18.744   5.473  0.00  0.00     0.000 C 
HETATM   18  C   UNK N   1      27.708  16.309   5.198  0.00  0.00     0.018 C 
HETATM   19  C   UNK N   1      30.847  14.755   6.029  0.00  0.00     0.016 C 
ENDROOT
BRANCH   1  20
HETATM   20  N   UNK N   1      35.152  13.922   6.850  0.00  0.00    -0.356 N 
HETATM   21  C   UNK N   1      36.324  13.232   6.809  0.00  0.00     0.217 C 
HETATM   22  O   UNK N   1      37.404  13.797   6.707  0.00  0.00    -0.274 OA
HETATM   23  H   UNK N   1      34.338  13.374   6.923  0.00  0.00     0.162 HD
BRANCH  21  24
HETATM   24  C   UNK N   1      36.266  11.747   6.743  0.00  0.00     0.103 C 
BRANCH  24  25
HETATM   25  C   UNK N   1      35.062  11.242   7.531  0.00  0.00     0.009 C 
BRANCH  25  26
HETATM   26  C   UNK N   1      35.430  10.812   8.957  0.00  0.00     0.000 C 
BRANCH  26  27
HETATM   27  C   UNK N   1      35.754  11.995   9.872  0.00  0.00     0.000 C 
BRANCH  27  28
HETATM   28  C   UNK N   1      34.553  12.885  10.161  0.00  0.00     0.000 C 
BRANCH  28  29
HETATM   29  C   UNK N   1      34.919  14.094  11.004  0.00  0.00     0.000 C 
BRANCH  29  30
HETATM   30  C   UNK N   1      36.180  13.802  11.791  0.00  0.00     0.000 C 
BRANCH  30  31
HETATM   31  C   UNK N   1      35.828  13.519  13.234  0.00  0.00     0.000 C 
BRANCH  31  32
HETATM   32  C   UNK N   1      36.523  14.510  14.153  0.00  0.00     0.000 C 
BRANCH  32  33
HETATM   33  C   UNK N   1      36.636  13.977  15.577  0.00  0.00     0.000 C 
BRANCH  33  34
HETATM   34  C   UNK N   1      35.290  13.465  16.078  0.00  0.00     0.000 C 
BRANCH  34  35
HETATM   35  C   UNK N   1      35.432  12.173  16.872  0.00  0.00     0.000 C 
BRANCH  35  36
HETATM   36  C   UNK N   1      35.820  10.993  15.991  0.00  0.00     0.000 C 
BRANCH  36  37
HETATM   37  C   UNK N   1      34.626  10.089  15.708  0.00  0.00     0.000 C 
BRANCH  37  38
HETATM   38  C   UNK N   1      33.714  10.669  14.638  0.00  0.00     0.000 C 
BRANCH  38  39
HETATM   39  C   UNK N   1      34.306  10.485  13.250  0.00  0.00     0.000 C 
BRANCH  39  40
HETATM   40  C   UNK N   1      34.799   9.060  13.067  0.00  0.00    -0.000 C 
BRANCH  40  41
HETATM   41  C   UNK N   1      36.031   9.026  12.177  0.00  0.00    -0.005 C 
HETATM   42  C   UNK N   1      37.041  10.051  12.651  0.00  0.00     0.005 C 
ENDBRANCH  40  41
ENDBRANCH  39  40
ENDBRANCH  38  39
ENDBRANCH  37  38
ENDBRANCH  36  37
ENDBRANCH  35  36
ENDBRANCH  34  35
ENDBRANCH  33  34
ENDBRANCH  32  33
ENDBRANCH  31  32
ENDBRANCH  30  31
ENDBRANCH  29  30
ENDBRANCH  28  29
ENDBRANCH  27  28
ENDBRANCH  26  27
ENDBRANCH  25  26
ENDBRANCH  24  25
ENDBRANCH  21  24
ENDBRANCH   1  20
BRANCH   8  43
HETATM   43  O   UNK N   1      30.591  17.994   9.481  0.00  0.00    -0.395 OA
HETATM   44  H   UNK N   1      30.867  18.798   9.947  0.00  0.00     0.210 HD
ENDBRANCH   8  43
BRANCH  12  45
HETATM   45  O   UNK N   1      29.976  15.884   3.740  0.00  0.00    -0.395 OA
HETATM   46  H   UNK N   1      30.591  15.394   3.171  0.00  0.00     0.210 HD
ENDBRANCH  12  45
BRANCH  17  47
HETATM   47  C   UNK N   1      27.237  19.026   4.349  0.00  0.00    -0.013 C 
HETATM   48  C   UNK N   1      27.621  20.245   3.529  0.00  0.00     0.010 C 
BRANCH  47  49
HETATM   49  C   UNK N   1      25.814  19.181   4.862  0.00  0.00     0.015 C 
BRANCH  49  50
HETATM   50  C   UNK N   1      24.822  18.800   3.769  0.00  0.00     0.110 C 
BRANCH  50  51
HETATM   51  C   UNK N   1      24.138  19.998   3.195  0.00  0.00     0.139 C 
HETATM   52  O   UNK N   1      24.708  20.707   2.383  0.00  0.00    -0.650 OA
BRANCH  51  53
HETATM   53  O   UNK N   1      22.873  20.277   3.558  0.00  0.00    -0.776 OA
HETATM   54  H   UNK N   1      22.607  20.316   4.455  0.00  0.00     0.167 HD
ENDBRANCH  51  53
ENDBRANCH  50  51
ENDBRANCH  49  50
ENDBRANCH  47  49
ENDBRANCH  17  47
TORSDOF 26
ENDMDL
