REMARK  1 active torsions:
REMARK  status: ('A' for Active; 'I' for Inactive)
REMARK    1  A    between atoms: C_5  and  C_9 
ROOT
HETATM    1  C   UNK N   1       0.543   1.697   0.000  0.00  0.00     0.049 C 
HETATM    2  C   UNK N   1       0.628   0.213   0.000  0.00  0.00    -0.047 A 
HETATM    3  C   UNK N   1       1.868  -0.428  -0.000  0.00  0.00     0.010 A 
HETATM    4  C   UNK N   1       1.927  -1.825  -0.000  0.00  0.00     0.032 A 
HETATM    5  C   UNK N   1       0.733  -2.563   0.000  0.00  0.00     0.059 A 
HETATM    6  N   UNK N   1      -0.461  -1.906   0.000  0.00  0.00    -0.364 N 
ATOM      7  HN  UNK N   1      -1.324  -2.450   0.000  1.00  0.00     0.165 HD
HETATM    8  C   UNK N   1      -0.537  -0.550   0.000  0.00  0.00     0.095 A 
ENDROOT
BRANCH   5   9
HETATM    9  C   UNK N   1       0.733  -4.037  -0.000  0.00  0.00     0.059 A 
HETATM   10  C   UNK N   1       1.927  -4.775   0.000  0.00  0.00     0.032 A 
HETATM   11  C   UNK N   1       1.868  -6.172   0.000  0.00  0.00     0.010 A 
HETATM   12  C   UNK N   1       0.628  -6.813  -0.000  0.00  0.00    -0.047 A 
HETATM   13  C   UNK N   1      -0.537  -6.050  -0.000  0.00  0.00     0.095 A 
HETATM   14  C   UNK N   1       0.543  -8.297  -0.000  0.00  0.00     0.049 C 
HETATM   15  N   UNK N   1      -0.461  -4.694  -0.000  0.00  0.00    -0.364 N 
ATOM     16  HN  UNK N   1      -1.324  -4.150  -0.000  1.00  0.00     0.165 HD
ENDBRANCH   5   9
TORSDOF 1
