MODEL 1
REMARK VINA RESULT:      -6.8      0.000      0.000
REMARK  7 active torsions:
REMARK  status: ('A' for Active; 'I' for Inactive)
REMARK    1  A    between atoms: C_4  and  C_2 
REMARK    2  A    between atoms: C_4  and  C_18 
REMARK    3  A    between atoms: C_7  and  N_9 
REMARK    4  A    between atoms: C_10  and  N_9 
REMARK    5  A    between atoms: C_15  and  O_16 
REMARK    6  A    between atoms: C_18  and  N_19 
REMARK    7  A    between atoms: C_25  and  C_29 
ROOT
HETATM    1  C   UNK N   1      32.253  16.610   5.682  0.00  0.00    -0.020 C 
HETATM    2  C   UNK N   1      31.564  17.673   4.829  0.00  0.00     0.013 C 
HETATM    3  C   UNK N   1      31.936  17.313   3.405  0.00  0.00     0.026 C 
HETATM    4  C   UNK N   1      31.970  15.795   3.381  0.00  0.00     0.077 C 
HETATM    5  C   UNK N   1      32.371  15.380   4.794  0.00  0.00     0.036 C 
ENDROOT
BRANCH   1   6
HETATM    6  C   UNK N   1      33.661  17.063   6.141  0.00  0.00    -0.013 C 
HETATM    7  C   UNK N   1      33.665  17.987   7.349  0.00  0.00     0.010 C 
HETATM    8  C   UNK N   1      34.585  15.883   6.422  0.00  0.00     0.010 C 
ENDBRANCH   1   6
BRANCH   1   9
HETATM    9  C   UNK N   1      31.474  16.234   6.949  0.00  0.00     0.127 C 
BRANCH   9  10
HETATM   10  N   UNK N   1      30.340  17.074   7.333  0.00  0.00    -0.407 N 
HETATM   11  C   UNK N   1      30.269  17.610   8.705  0.00  0.00     0.123 C 
HETATM   12  C   UNK N   1      28.949  18.395   8.976  0.00  0.00     0.077 C 
HETATM   13  C   UNK N   1      28.189  18.684   7.704  0.00  0.00     0.018 A 
HETATM   14  C   UNK N   1      28.235  17.742   6.672  0.00  0.00    -0.017 A 
HETATM   15  N   UNK N   1      27.556  19.871   7.513  0.00  0.00    -0.368 N 
HETATM   16  C   UNK N   1      27.665  18.032   5.441  0.00  0.00     0.028 A 
HETATM   17  C   UNK N   1      29.069  16.541   6.868  0.00  0.00     0.157 C 
HETATM   18  C   UNK N   1      27.033  19.258   5.248  0.00  0.00     0.063 A 
HETATM   19  C   UNK N   1      26.977  20.174   6.313  0.00  0.00     0.104 A 
ATOM     20  HN  UNK N   1      27.512  20.545   8.277  1.00  0.00     0.165 HD
BRANCH  18  21
HETATM   21  C   UNK N   1      26.495  19.595   3.891  0.00  0.00     0.418 C 
HETATM   22  F   UNK N   1      27.469  20.237   3.148  0.00  0.00    -0.166 F 
HETATM   23  F   UNK N   1      26.087  18.457   3.217  0.00  0.00    -0.166 F 
HETATM   24  F   UNK N   1      25.407  20.438   4.035  0.00  0.00    -0.166 F 
ENDBRANCH  18  21
ENDBRANCH   9  10
ENDBRANCH   1   9
BRANCH   4  25
HETATM   25  N   UNK N   1      30.636  15.291   3.059  0.00  0.00    -0.410 N 
HETATM   26  H   UNK N   1      29.948  15.779   2.485  0.00  0.00     0.154 HD
BRANCH  25  27
HETATM   27  C   UNK N   1      30.435  13.980   3.682  0.00  0.00     0.110 C 
HETATM   28  C   UNK N   1      29.071  13.951   4.374  0.00  0.00     0.053 C 
HETATM   29  C   UNK N   1      27.969  13.921   3.310  0.00  0.00     0.169 C 
HETATM   30  O   UNK N   1      28.098  12.757   2.529  0.00  0.00    -0.388 OA
HETATM   31  C   UNK N   1      29.258  12.914   1.744  0.00  0.00     0.201 C 
HETATM   32  C   UNK N   1      30.492  12.846   2.647  0.00  0.00     0.167 C 
BRANCH  32  33
HETATM   33  O   UNK N   1      31.666  12.902   1.892  0.00  0.00    -0.387 OA
HETATM   34  C   UNK N   1      32.583  12.121   2.597  0.00  0.00     0.202 C 
ENDBRANCH  32  33
ENDBRANCH  25  27
ENDBRANCH   4  25
TORSDOF 7
ENDMDL
MODEL 2
REMARK VINA RESULT:      -6.8      1.166      1.990
REMARK  7 active torsions:
REMARK  status: ('A' for Active; 'I' for Inactive)
REMARK    1  A    between atoms: C_4  and  C_2 
REMARK    2  A    between atoms: C_4  and  C_18 
REMARK    3  A    between atoms: C_7  and  N_9 
REMARK    4  A    between atoms: C_10  and  N_9 
REMARK    5  A    between atoms: C_15  and  O_16 
REMARK    6  A    between atoms: C_18  and  N_19 
REMARK    7  A    between atoms: C_25  and  C_29 
ROOT
HETATM    1  C   UNK N   1      31.878  16.545   5.444  0.00  0.00    -0.020 C 
HETATM    2  C   UNK N   1      31.112  17.549   4.587  0.00  0.00     0.013 C 
HETATM    3  C   UNK N   1      31.125  16.946   3.197  0.00  0.00     0.026 C 
HETATM    4  C   UNK N   1      31.022  15.447   3.419  0.00  0.00     0.077 C 
HETATM    5  C   UNK N   1      31.690  15.194   4.769  0.00  0.00     0.036 C 
ENDROOT
BRANCH   1   6
HETATM    6  C   UNK N   1      33.387  16.886   5.521  0.00  0.00    -0.013 C 
HETATM    7  C   UNK N   1      33.812  17.584   6.805  0.00  0.00     0.010 C 
HETATM    8  C   UNK N   1      34.270  15.659   5.314  0.00  0.00     0.010 C 
ENDBRANCH   1   6
BRANCH   1   9
HETATM    9  C   UNK N   1      31.372  16.451   6.889  0.00  0.00     0.127 C 
BRANCH   9  10
HETATM   10  N   UNK N   1      30.218  17.268   7.267  0.00  0.00    -0.407 N 
HETATM   11  C   UNK N   1      30.136  17.813   8.635  0.00  0.00     0.123 C 
HETATM   12  C   UNK N   1      28.798  18.569   8.901  0.00  0.00     0.077 C 
HETATM   13  C   UNK N   1      28.031  18.831   7.626  0.00  0.00     0.018 A 
HETATM   14  C   UNK N   1      28.099  17.881   6.602  0.00  0.00    -0.017 A 
HETATM   15  N   UNK N   1      27.371  20.001   7.426  0.00  0.00    -0.368 N 
HETATM   16  C   UNK N   1      27.522  18.148   5.369  0.00  0.00     0.028 A 
HETATM   17  C   UNK N   1      28.960  16.702   6.807  0.00  0.00     0.157 C 
HETATM   18  C   UNK N   1      26.861  19.357   5.167  0.00  0.00     0.063 A 
HETATM   19  C   UNK N   1      26.784  20.280   6.225  0.00  0.00     0.104 A 
ATOM     20  HN  UNK N   1      27.311  20.680   8.184  1.00  0.00     0.165 HD
BRANCH  18  21
HETATM   21  C   UNK N   1      26.314  19.670   3.807  0.00  0.00     0.418 C 
HETATM   22  F   UNK N   1      27.258  20.366   3.073  0.00  0.00    -0.166 F 
HETATM   23  F   UNK N   1      25.971  18.515   3.127  0.00  0.00    -0.166 F 
HETATM   24  F   UNK N   1      25.183  20.455   3.947  0.00  0.00    -0.166 F 
ENDBRANCH  18  21
ENDBRANCH   9  10
ENDBRANCH   1   9
BRANCH   4  25
HETATM   25  N   UNK N   1      29.611  15.067   3.467  0.00  0.00    -0.410 N 
HETATM   26  H   UNK N   1      28.999  15.186   4.274  0.00  0.00     0.154 HD
BRANCH  25  27
HETATM   27  C   UNK N   1      29.207  14.491   2.181  0.00  0.00     0.110 C 
HETATM   28  C   UNK N   1      29.822  13.098   2.034  0.00  0.00     0.053 C 
HETATM   29  C   UNK N   1      29.121  12.135   2.998  0.00  0.00     0.169 C 
HETATM   30  O   UNK N   1      27.753  12.057   2.676  0.00  0.00    -0.388 OA
HETATM   31  C   UNK N   1      27.175  13.293   3.025  0.00  0.00     0.201 C 
HETATM   32  C   UNK N   1      27.679  14.375   2.068  0.00  0.00     0.167 C 
BRANCH  32  33
HETATM   33  O   UNK N   1      27.054  15.597   2.323  0.00  0.00    -0.387 OA
HETATM   34  C   UNK N   1      25.691  15.343   2.168  0.00  0.00     0.202 C 
ENDBRANCH  32  33
ENDBRANCH  25  27
ENDBRANCH   4  25
TORSDOF 7
ENDMDL
MODEL 3
REMARK VINA RESULT:      -6.8      5.536      8.672
REMARK  7 active torsions:
REMARK  status: ('A' for Active; 'I' for Inactive)
REMARK    1  A    between atoms: C_4  and  C_2 
REMARK    2  A    between atoms: C_4  and  C_18 
REMARK    3  A    between atoms: C_7  and  N_9 
REMARK    4  A    between atoms: C_10  and  N_9 
REMARK    5  A    between atoms: C_15  and  O_16 
REMARK    6  A    between atoms: C_18  and  N_19 
REMARK    7  A    between atoms: C_25  and  C_29 
ROOT
HETATM    1  C   UNK N   1      22.406  17.217   4.447  0.00  0.00    -0.020 C 
HETATM    2  C   UNK N   1      22.419  18.036   5.735  0.00  0.00     0.013 C 
HETATM    3  C   UNK N   1      21.315  17.430   6.579  0.00  0.00     0.026 C 
HETATM    4  C   UNK N   1      21.356  15.944   6.268  0.00  0.00     0.077 C 
HETATM    5  C   UNK N   1      21.865  15.848   4.832  0.00  0.00     0.036 C 
ENDROOT
BRANCH   1   6
HETATM    6  C   UNK N   1      21.497  17.855   3.367  0.00  0.00    -0.013 C 
HETATM    7  C   UNK N   1      20.217  17.083   3.083  0.00  0.00     0.010 C 
HETATM    8  C   UNK N   1      21.136  19.300   3.695  0.00  0.00     0.010 C 
ENDBRANCH   1   6
BRANCH   1   9
HETATM    9  C   UNK N   1      23.792  17.042   3.811  0.00  0.00     0.127 C 
BRANCH   9  10
HETATM   10  N   UNK N   1      24.834  18.006   4.161  0.00  0.00    -0.407 N 
HETATM   11  C   UNK N   1      24.827  19.339   3.528  0.00  0.00     0.123 C 
HETATM   12  C   UNK N   1      26.062  20.202   3.932  0.00  0.00     0.077 C 
HETATM   13  C   UNK N   1      26.816  19.604   5.096  0.00  0.00     0.018 A 
HETATM   14  C   UNK N   1      26.879  18.212   5.204  0.00  0.00    -0.017 A 
HETATM   15  N   UNK N   1      27.338  20.387   6.076  0.00  0.00    -0.368 N 
HETATM   16  C   UNK N   1      27.443  17.627   6.328  0.00  0.00     0.028 A 
HETATM   17  C   UNK N   1      26.158  17.406   4.200  0.00  0.00     0.157 C 
HETATM   18  C   UNK N   1      27.961  18.437   7.336  0.00  0.00     0.063 A 
HETATM   19  C   UNK N   1      27.910  19.834   7.187  0.00  0.00     0.104 A 
ATOM     20  HN  UNK N   1      27.304  21.401   5.980  1.00  0.00     0.165 HD
BRANCH  18  21
HETATM   21  C   UNK N   1      28.492  17.798   8.584  0.00  0.00     0.418 C 
HETATM   22  F   UNK N   1      27.493  17.060   9.192  0.00  0.00    -0.166 F 
HETATM   23  F   UNK N   1      29.563  16.968   8.305  0.00  0.00    -0.166 F 
HETATM   24  F   UNK N   1      28.913  18.789   9.453  0.00  0.00    -0.166 F 
ENDBRANCH  18  21
ENDBRANCH   9  10
ENDBRANCH   1   9
BRANCH   4  25
HETATM   25  N   UNK N   1      22.286  15.289   7.186  0.00  0.00    -0.410 N 
HETATM   26  H   UNK N   1      22.901  15.772   7.841  0.00  0.00     0.154 HD
BRANCH  25  27
HETATM   27  C   UNK N   1      22.203  13.835   7.027  0.00  0.00     0.110 C 
HETATM   28  C   UNK N   1      23.612  13.258   6.881  0.00  0.00     0.053 C 
HETATM   29  C   UNK N   1      24.331  13.345   8.231  0.00  0.00     0.169 C 
HETATM   30  O   UNK N   1      23.633  12.584   9.188  0.00  0.00    -0.388 OA
HETATM   31  C   UNK N   1      22.428  13.261   9.455  0.00  0.00     0.201 C 
HETATM   32  C   UNK N   1      21.515  13.171   8.230  0.00  0.00     0.167 C 
BRANCH  32  33
HETATM   33  O   UNK N   1      20.271  13.750   8.491  0.00  0.00    -0.387 OA
HETATM   34  C   UNK N   1      20.293  14.049   9.854  0.00  0.00     0.202 C 
ENDBRANCH  32  33
ENDBRANCH  25  27
ENDBRANCH   4  25
TORSDOF 7
ENDMDL
MODEL 4
REMARK VINA RESULT:      -6.8      6.399      8.871
REMARK  7 active torsions:
REMARK  status: ('A' for Active; 'I' for Inactive)
REMARK    1  A    between atoms: C_4  and  C_2 
REMARK    2  A    between atoms: C_4  and  C_18 
REMARK    3  A    between atoms: C_7  and  N_9 
REMARK    4  A    between atoms: C_10  and  N_9 
REMARK    5  A    between atoms: C_15  and  O_16 
REMARK    6  A    between atoms: C_18  and  N_19 
REMARK    7  A    between atoms: C_25  and  C_29 
ROOT
HETATM    1  C   UNK N   1      24.645  17.457   4.330  0.00  0.00    -0.020 C 
HETATM    2  C   UNK N   1      24.297  16.466   3.223  0.00  0.00     0.013 C 
HETATM    3  C   UNK N   1      24.798  15.132   3.738  0.00  0.00     0.026 C 
HETATM    4  C   UNK N   1      24.554  15.174   5.236  0.00  0.00     0.077 C 
HETATM    5  C   UNK N   1      24.662  16.648   5.619  0.00  0.00     0.036 C 
ENDROOT
BRANCH   1   6
HETATM    6  C   UNK N   1      26.032  18.110   4.104  0.00  0.00    -0.013 C 
HETATM    7  C   UNK N   1      25.980  19.530   3.563  0.00  0.00     0.010 C 
HETATM    8  C   UNK N   1      26.891  18.096   5.364  0.00  0.00     0.010 C 
ENDBRANCH   1   6
BRANCH   1   9
HETATM    9  C   UNK N   1      23.635  18.602   4.476  0.00  0.00     0.127 C 
BRANCH   9  10
HETATM   10  N   UNK N   1      22.483  18.620   3.576  0.00  0.00    -0.407 N 
HETATM   11  C   UNK N   1      22.028  19.904   3.009  0.00  0.00     0.123 C 
HETATM   12  C   UNK N   1      20.730  19.759   2.158  0.00  0.00     0.077 C 
HETATM   13  C   UNK N   1      20.406  18.314   1.858  0.00  0.00     0.018 A 
HETATM   14  C   UNK N   1      20.714  17.349   2.822  0.00  0.00    -0.017 A 
HETATM   15  N   UNK N   1      19.922  17.935   0.647  0.00  0.00    -0.368 N 
HETATM   16  C   UNK N   1      20.558  16.002   2.531  0.00  0.00     0.028 A 
HETATM   17  C   UNK N   1      21.386  17.794   4.057  0.00  0.00     0.157 C 
HETATM   18  C   UNK N   1      20.077  15.621   1.280  0.00  0.00     0.063 A 
HETATM   19  C   UNK N   1      19.749  16.615   0.342  0.00  0.00     0.104 A 
ATOM     20  HN  UNK N   1      19.683  18.646  -0.044  1.00  0.00     0.165 HD
BRANCH  18  21
HETATM   21  C   UNK N   1      19.992  14.163   0.946  0.00  0.00     0.418 C 
HETATM   22  F   UNK N   1      19.740  13.434   2.094  0.00  0.00    -0.166 F 
HETATM   23  F   UNK N   1      18.990  13.918   0.024  0.00  0.00    -0.166 F 
HETATM   24  F   UNK N   1      21.199  13.753   0.407  0.00  0.00    -0.166 F 
ENDBRANCH  18  21
ENDBRANCH   9  10
ENDBRANCH   1   9
BRANCH   4  25
HETATM   25  N   UNK N   1      23.210  14.670   5.516  0.00  0.00    -0.410 N 
HETATM   26  H   UNK N   1      22.594  14.231   4.831  0.00  0.00     0.154 HD
BRANCH  25  27
HETATM   27  C   UNK N   1      22.881  14.887   6.928  0.00  0.00     0.110 C 
HETATM   28  C   UNK N   1      21.576  15.678   7.029  0.00  0.00     0.053 C 
HETATM   29  C   UNK N   1      20.409  14.778   6.610  0.00  0.00     0.169 C 
HETATM   30  O   UNK N   1      20.330  13.673   7.479  0.00  0.00    -0.388 OA
HETATM   31  C   UNK N   1      21.444  12.854   7.207  0.00  0.00     0.201 C 
HETATM   32  C   UNK N   1      22.717  13.558   7.682  0.00  0.00     0.167 C 
BRANCH  32  33
HETATM   33  O   UNK N   1      23.833  12.735   7.516  0.00  0.00    -0.387 OA
HETATM   34  C   UNK N   1      24.749  13.174   8.474  0.00  0.00     0.202 C 
ENDBRANCH  32  33
ENDBRANCH  25  27
ENDBRANCH   4  25
TORSDOF 7
ENDMDL
MODEL 5
REMARK VINA RESULT:      -6.8      7.900     10.583
REMARK  7 active torsions:
REMARK  status: ('A' for Active; 'I' for Inactive)
REMARK    1  A    between atoms: C_4  and  C_2 
REMARK    2  A    between atoms: C_4  and  C_18 
REMARK    3  A    between atoms: C_7  and  N_9 
REMARK    4  A    between atoms: C_10  and  N_9 
REMARK    5  A    between atoms: C_15  and  O_16 
REMARK    6  A    between atoms: C_18  and  N_19 
REMARK    7  A    between atoms: C_25  and  C_29 
ROOT
HETATM    1  C   UNK N   1      34.356  11.021   8.311  0.00  0.00    -0.020 C 
HETATM    2  C   UNK N   1      34.482  11.771   6.987  0.00  0.00     0.013 C 
HETATM    3  C   UNK N   1      33.358  12.787   7.021  0.00  0.00     0.026 C 
HETATM    4  C   UNK N   1      33.259  13.215   8.475  0.00  0.00     0.077 C 
HETATM    5  C   UNK N   1      33.711  12.000   9.282  0.00  0.00     0.036 C 
ENDROOT
BRANCH   1   6
HETATM    6  C   UNK N   1      33.470   9.757   8.176  0.00  0.00    -0.013 C 
HETATM    7  C   UNK N   1      34.244   8.452   8.073  0.00  0.00     0.010 C 
HETATM    8  C   UNK N   1      32.455   9.638   9.309  0.00  0.00     0.010 C 
ENDBRANCH   1   6
BRANCH   1   9
HETATM    9  C   UNK N   1      35.699  10.560   8.891  0.00  0.00     0.127 C 
BRANCH   9  10
HETATM   10  N   UNK N   1      36.300  11.362   9.956  0.00  0.00    -0.407 N 
HETATM   11  C   UNK N   1      37.324  12.368   9.614  0.00  0.00     0.123 C 
HETATM   12  C   UNK N   1      37.932  13.057  10.873  0.00  0.00     0.077 C 
HETATM   13  C   UNK N   1      37.135  12.765  12.122  0.00  0.00     0.018 A 
HETATM   14  C   UNK N   1      36.526  11.512  12.245  0.00  0.00    -0.017 A 
HETATM   15  N   UNK N   1      36.921  13.719  13.064  0.00  0.00    -0.368 N 
HETATM   16  C   UNK N   1      35.676  11.254  13.310  0.00  0.00     0.028 A 
HETATM   17  C   UNK N   1      36.656  10.566  11.120  0.00  0.00     0.157 C 
HETATM   18  C   UNK N   1      35.448  12.244  14.262  0.00  0.00     0.063 A 
HETATM   19  C   UNK N   1      36.097  13.484  14.128  0.00  0.00     0.104 A 
ATOM     20  HN  UNK N   1      37.383  14.624  12.977  1.00  0.00     0.165 HD
BRANCH  18  21
HETATM   21  C   UNK N   1      34.464  11.985  15.362  0.00  0.00     0.418 C 
HETATM   22  F   UNK N   1      34.084  13.183  15.940  0.00  0.00    -0.166 F 
HETATM   23  F   UNK N   1      33.340  11.334  14.886  0.00  0.00    -0.166 F 
HETATM   24  F   UNK N   1      35.062  11.190  16.324  0.00  0.00    -0.166 F 
ENDBRANCH  18  21
ENDBRANCH   9  10
ENDBRANCH   1   9
BRANCH   4  25
HETATM   25  N   UNK N   1      34.159  14.344   8.702  0.00  0.00    -0.410 N 
HETATM   26  H   UNK N   1      35.065  14.472   8.251  0.00  0.00     0.154 HD
BRANCH  25  27
HETATM   27  C   UNK N   1      33.565  15.266   9.674  0.00  0.00     0.110 C 
HETATM   28  C   UNK N   1      34.449  15.329  10.921  0.00  0.00     0.053 C 
HETATM   29  C   UNK N   1      35.740  16.082  10.584  0.00  0.00     0.169 C 
HETATM   30  O   UNK N   1      35.430  17.397  10.188  0.00  0.00    -0.388 OA
HETATM   31  C   UNK N   1      34.803  17.313   8.929  0.00  0.00     0.201 C 
HETATM   32  C   UNK N   1      33.419  16.682   9.096  0.00  0.00     0.167 C 
BRANCH  32  33
HETATM   33  O   UNK N   1      32.727  16.670   7.882  0.00  0.00    -0.387 OA
HETATM   34  C   UNK N   1      33.386  17.605   7.083  0.00  0.00     0.202 C 
ENDBRANCH  32  33
ENDBRANCH  25  27
ENDBRANCH   4  25
TORSDOF 7
ENDMDL
MODEL 6
REMARK VINA RESULT:      -6.6     11.642     14.570
REMARK  7 active torsions:
REMARK  status: ('A' for Active; 'I' for Inactive)
REMARK    1  A    between atoms: C_4  and  C_2 
REMARK    2  A    between atoms: C_4  and  C_18 
REMARK    3  A    between atoms: C_7  and  N_9 
REMARK    4  A    between atoms: C_10  and  N_9 
REMARK    5  A    between atoms: C_15  and  O_16 
REMARK    6  A    between atoms: C_18  and  N_19 
REMARK    7  A    between atoms: C_25  and  C_29 
ROOT
HETATM    1  C   UNK N   1      26.842  25.765  -5.227  0.00  0.00    -0.020 C 
HETATM    2  C   UNK N   1      28.011  25.993  -6.182  0.00  0.00     0.013 C 
HETATM    3  C   UNK N   1      29.196  26.248  -5.273  0.00  0.00     0.026 C 
HETATM    4  C   UNK N   1      28.970  25.346  -4.072  0.00  0.00     0.077 C 
HETATM    5  C   UNK N   1      27.454  25.219  -3.946  0.00  0.00     0.036 C 
ENDROOT
BRANCH   1   6
HETATM    6  C   UNK N   1      26.080  27.080  -4.925  0.00  0.00    -0.013 C 
HETATM    7  C   UNK N   1      24.721  27.192  -5.599  0.00  0.00     0.010 C 
HETATM    8  C   UNK N   1      25.906  27.317  -3.428  0.00  0.00     0.010 C 
ENDBRANCH   1   6
BRANCH   1   9
HETATM    9  C   UNK N   1      25.804  24.763  -5.748  0.00  0.00     0.127 C 
BRANCH   9  10
HETATM   10  N   UNK N   1      26.084  24.079  -7.011  0.00  0.00    -0.407 N 
HETATM   11  C   UNK N   1      25.736  24.740  -8.283  0.00  0.00     0.123 C 
HETATM   12  C   UNK N   1      26.004  23.834  -9.523  0.00  0.00     0.077 C 
HETATM   13  C   UNK N   1      26.828  22.619  -9.172  0.00  0.00     0.018 A 
HETATM   14  C   UNK N   1      26.651  22.036  -7.913  0.00  0.00    -0.017 A 
HETATM   15  N   UNK N   1      27.794  22.154 -10.006  0.00  0.00    -0.368 N 
HETATM   16  C   UNK N   1      27.483  21.005  -7.502  0.00  0.00     0.028 A 
HETATM   17  C   UNK N   1      25.704  22.676  -6.981  0.00  0.00     0.157 C 
HETATM   18  C   UNK N   1      28.482  20.546  -8.357  0.00  0.00     0.063 A 
HETATM   19  C   UNK N   1      28.617  21.132  -9.628  0.00  0.00     0.104 A 
ATOM     20  HN  UNK N   1      27.904  22.573 -10.929  1.00  0.00     0.165 HD
BRANCH  18  21
HETATM   21  C   UNK N   1      29.429  19.491  -7.872  0.00  0.00     0.418 C 
HETATM   22  F   UNK N   1      30.105  19.948  -6.755  0.00  0.00    -0.166 F 
HETATM   23  F   UNK N   1      28.757  18.325  -7.550  0.00  0.00    -0.166 F 
HETATM   24  F   UNK N   1      30.344  19.213  -8.872  0.00  0.00    -0.166 F 
ENDBRANCH  18  21
ENDBRANCH   9  10
ENDBRANCH   1   9
BRANCH   4  25
HETATM   25  N   UNK N   1      29.573  24.041  -4.334  0.00  0.00    -0.410 N 
HETATM   26  H   UNK N   1      29.209  23.347  -4.988  0.00  0.00     0.154 HD
BRANCH  25  27
HETATM   27  C   UNK N   1      30.780  23.877  -3.519  0.00  0.00     0.110 C 
HETATM   28  C   UNK N   1      30.578  22.719  -2.540  0.00  0.00     0.053 C 
HETATM   29  C   UNK N   1      30.591  21.398  -3.316  0.00  0.00     0.169 C 
HETATM   30  O   UNK N   1      31.837  21.235  -3.951  0.00  0.00    -0.388 OA
HETATM   31  C   UNK N   1      31.899  22.185  -4.989  0.00  0.00     0.201 C 
HETATM   32  C   UNK N   1      32.015  23.587  -4.386  0.00  0.00     0.167 C 
BRANCH  32  33
HETATM   33  O   UNK N   1      32.175  24.549  -5.386  0.00  0.00    -0.387 OA
HETATM   34  C   UNK N   1      33.399  25.157  -5.107  0.00  0.00     0.202 C 
ENDBRANCH  32  33
ENDBRANCH  25  27
ENDBRANCH   4  25
TORSDOF 7
ENDMDL
MODEL 7
REMARK VINA RESULT:      -6.6      4.470      7.164
REMARK  7 active torsions:
REMARK  status: ('A' for Active; 'I' for Inactive)
REMARK    1  A    between atoms: C_4  and  C_2 
REMARK    2  A    between atoms: C_4  and  C_18 
REMARK    3  A    between atoms: C_7  and  N_9 
REMARK    4  A    between atoms: C_10  and  N_9 
REMARK    5  A    between atoms: C_15  and  O_16 
REMARK    6  A    between atoms: C_18  and  N_19 
REMARK    7  A    between atoms: C_25  and  C_29 
ROOT
HETATM    1  C   UNK N   1      26.131  14.965   3.454  0.00  0.00    -0.020 C 
HETATM    2  C   UNK N   1      27.548  14.945   4.023  0.00  0.00     0.013 C 
HETATM    3  C   UNK N   1      28.131  16.288   3.632  0.00  0.00     0.026 C 
HETATM    4  C   UNK N   1      26.968  17.261   3.720  0.00  0.00     0.077 C 
HETATM    5  C   UNK N   1      25.725  16.430   3.405  0.00  0.00     0.036 C 
ENDROOT
BRANCH   1   6
HETATM    6  C   UNK N   1      26.074  14.357   2.031  0.00  0.00    -0.013 C 
HETATM    7  C   UNK N   1      26.228  12.844   1.983  0.00  0.00     0.010 C 
HETATM    8  C   UNK N   1      24.799  14.743   1.287  0.00  0.00     0.010 C 
ENDBRANCH   1   6
BRANCH   1   9
HETATM    9  C   UNK N   1      25.113  14.196   4.305  0.00  0.00     0.127 C 
BRANCH   9  10
HETATM   10  N   UNK N   1      24.041  14.957   4.947  0.00  0.00    -0.407 N 
HETATM   11  C   UNK N   1      23.818  14.808   6.398  0.00  0.00     0.123 C 
HETATM   12  C   UNK N   1      22.575  15.606   6.899  0.00  0.00     0.077 C 
HETATM   13  C   UNK N   1      22.067  16.577   5.860  0.00  0.00     0.018 A 
HETATM   14  C   UNK N   1      22.163  16.220   4.512  0.00  0.00    -0.017 A 
HETATM   15  N   UNK N   1      21.619  17.812   6.207  0.00  0.00    -0.368 N 
HETATM   16  C   UNK N   1      21.834  17.138   3.525  0.00  0.00     0.028 A 
HETATM   17  C   UNK N   1      22.805  14.934   4.180  0.00  0.00     0.157 C 
HETATM   18  C   UNK N   1      21.392  18.408   3.889  0.00  0.00     0.063 A 
HETATM   19  C   UNK N   1      21.278  18.728   5.253  0.00  0.00     0.104 A 
ATOM     20  HN  UNK N   1      21.535  18.058   7.192  1.00  0.00     0.165 HD
BRANCH  18  21
HETATM   21  C   UNK N   1      21.119  19.419   2.817  0.00  0.00     0.418 C 
HETATM   22  F   UNK N   1      20.150  20.306   3.247  0.00  0.00    -0.166 F 
HETATM   23  F   UNK N   1      22.265  20.122   2.488  0.00  0.00    -0.166 F 
HETATM   24  F   UNK N   1      20.662  18.764   1.686  0.00  0.00    -0.166 F 
ENDBRANCH  18  21
ENDBRANCH   9  10
ENDBRANCH   1   9
BRANCH   4  25
HETATM   25  N   UNK N   1      26.894  17.796   5.079  0.00  0.00    -0.410 N 
HETATM   26  H   UNK N   1      26.114  17.657   5.722  0.00  0.00     0.154 HD
BRANCH  25  27
HETATM   27  C   UNK N   1      28.109  18.558   5.379  0.00  0.00     0.110 C 
HETATM   28  C   UNK N   1      28.126  19.837   4.541  0.00  0.00     0.053 C 
HETATM   29  C   UNK N   1      27.059  20.800   5.072  0.00  0.00     0.169 C 
HETATM   30  O   UNK N   1      27.350  21.137   6.408  0.00  0.00    -0.388 OA
HETATM   31  C   UNK N   1      27.118  19.985   7.184  0.00  0.00     0.201 C 
HETATM   32  C   UNK N   1      28.186  18.937   6.867  0.00  0.00     0.167 C 
BRANCH  32  33
HETATM   33  O   UNK N   1      28.045  17.816   7.687  0.00  0.00    -0.387 OA
HETATM   34  C   UNK N   1      28.346  18.270   8.972  0.00  0.00     0.202 C 
ENDBRANCH  32  33
ENDBRANCH  25  27
ENDBRANCH   4  25
TORSDOF 7
ENDMDL
MODEL 8
REMARK VINA RESULT:      -6.5      4.975      7.808
REMARK  7 active torsions:
REMARK  status: ('A' for Active; 'I' for Inactive)
REMARK    1  A    between atoms: C_4  and  C_2 
REMARK    2  A    between atoms: C_4  and  C_18 
REMARK    3  A    between atoms: C_7  and  N_9 
REMARK    4  A    between atoms: C_10  and  N_9 
REMARK    5  A    between atoms: C_15  and  O_16 
REMARK    6  A    between atoms: C_18  and  N_19 
REMARK    7  A    between atoms: C_25  and  C_29 
ROOT
HETATM    1  C   UNK N   1      25.394  15.402   3.635  0.00  0.00    -0.020 C 
HETATM    2  C   UNK N   1      24.531  14.707   2.585  0.00  0.00     0.013 C 
HETATM    3  C   UNK N   1      23.236  14.396   3.307  0.00  0.00     0.026 C 
HETATM    4  C   UNK N   1      23.020  15.569   4.248  0.00  0.00     0.077 C 
HETATM    5  C   UNK N   1      24.421  16.064   4.599  0.00  0.00     0.036 C 
ENDROOT
BRANCH   1   6
HETATM    6  C   UNK N   1      26.290  14.397   4.402  0.00  0.00    -0.013 C 
HETATM    7  C   UNK N   1      27.659  14.170   3.781  0.00  0.00     0.010 C 
HETATM    8  C   UNK N   1      26.473  14.785   5.866  0.00  0.00     0.010 C 
ENDBRANCH   1   6
BRANCH   1   9
HETATM    9  C   UNK N   1      26.327  16.474   3.058  0.00  0.00     0.127 C 
BRANCH   9  10
HETATM   10  N   UNK N   1      26.602  17.657   3.873  0.00  0.00    -0.407 N 
HETATM   11  C   UNK N   1      25.964  18.940   3.523  0.00  0.00     0.123 C 
HETATM   12  C   UNK N   1      26.444  20.116   4.427  0.00  0.00     0.077 C 
HETATM   13  C   UNK N   1      27.212  19.628   5.633  0.00  0.00     0.018 A 
HETATM   14  C   UNK N   1      28.010  18.489   5.497  0.00  0.00    -0.017 A 
HETATM   15  N   UNK N   1      27.061  20.212   6.850  0.00  0.00    -0.368 N 
HETATM   16  C   UNK N   1      28.621  17.932   6.611  0.00  0.00     0.028 A 
HETATM   17  C   UNK N   1      28.014  17.797   4.194  0.00  0.00     0.157 C 
HETATM   18  C   UNK N   1      28.447  18.527   7.858  0.00  0.00     0.063 A 
HETATM   19  C   UNK N   1      27.663  19.689   7.959  0.00  0.00     0.104 A 
ATOM     20  HN  UNK N   1      26.492  21.054   6.937  1.00  0.00     0.165 HD
BRANCH  18  21
HETATM   21  C   UNK N   1      29.042  17.871   9.068  0.00  0.00     0.418 C 
HETATM   22  F   UNK N   1      29.569  18.833   9.909  0.00  0.00    -0.166 F 
HETATM   23  F   UNK N   1      28.094  17.136   9.756  0.00  0.00    -0.166 F 
HETATM   24  F   UNK N   1      30.056  17.019   8.665  0.00  0.00    -0.166 F 
ENDBRANCH  18  21
ENDBRANCH   9  10
ENDBRANCH   1   9
BRANCH   4  25
HETATM   25  N   UNK N   1      22.269  16.610   3.549  0.00  0.00    -0.410 N 
HETATM   26  H   UNK N   1      22.373  16.845   2.562  0.00  0.00     0.154 HD
BRANCH  25  27
HETATM   27  C   UNK N   1      21.345  17.266   4.478  0.00  0.00     0.110 C 
HETATM   28  C   UNK N   1      21.716  18.744   4.605  0.00  0.00     0.053 C 
HETATM   29  C   UNK N   1      21.353  19.466   3.303  0.00  0.00     0.169 C 
HETATM   30  O   UNK N   1      19.966  19.371   3.080  0.00  0.00    -0.388 OA
HETATM   31  C   UNK N   1      19.692  18.028   2.757  0.00  0.00     0.201 C 
HETATM   32  C   UNK N   1      19.889  17.158   4.000  0.00  0.00     0.167 C 
BRANCH  32  33
HETATM   33  O   UNK N   1      19.533  15.832   3.742  0.00  0.00    -0.387 OA
HETATM   34  C   UNK N   1      18.952  15.378   4.927  0.00  0.00     0.202 C 
ENDBRANCH  32  33
ENDBRANCH  25  27
ENDBRANCH   4  25
TORSDOF 7
ENDMDL
MODEL 9
REMARK VINA RESULT:      -6.5     11.891     14.354
REMARK  7 active torsions:
REMARK  status: ('A' for Active; 'I' for Inactive)
REMARK    1  A    between atoms: C_4  and  C_2 
REMARK    2  A    between atoms: C_4  and  C_18 
REMARK    3  A    between atoms: C_7  and  N_9 
REMARK    4  A    between atoms: C_10  and  N_9 
REMARK    5  A    between atoms: C_15  and  O_16 
REMARK    6  A    between atoms: C_18  and  N_19 
REMARK    7  A    between atoms: C_25  and  C_29 
ROOT
HETATM    1  C   UNK N   1      27.663  22.853  -7.800  0.00  0.00    -0.020 C 
HETATM    2  C   UNK N   1      27.859  21.375  -7.472  0.00  0.00     0.013 C 
HETATM    3  C   UNK N   1      29.360  21.213  -7.342  0.00  0.00     0.026 C 
HETATM    4  C   UNK N   1      29.841  22.510  -6.714  0.00  0.00     0.077 C 
HETATM    5  C   UNK N   1      28.854  23.575  -7.188  0.00  0.00     0.036 C 
ENDROOT
BRANCH   1   6
HETATM    6  C   UNK N   1      27.627  23.104  -9.328  0.00  0.00    -0.013 C 
HETATM    7  C   UNK N   1      26.662  22.210 -10.093  0.00  0.00     0.010 C 
HETATM    8  C   UNK N   1      27.323  24.559  -9.669  0.00  0.00     0.010 C 
ENDBRANCH   1   6
BRANCH   1   9
HETATM    9  C   UNK N   1      26.372  23.448  -7.224  0.00  0.00     0.127 C 
BRANCH   9  10
HETATM   10  N   UNK N   1      26.490  24.440  -6.156  0.00  0.00    -0.407 N 
HETATM   11  C   UNK N   1      26.265  24.027  -4.757  0.00  0.00     0.123 C 
HETATM   12  C   UNK N   1      26.327  25.224  -3.760  0.00  0.00     0.077 C 
HETATM   13  C   UNK N   1      26.894  26.468  -4.401  0.00  0.00     0.018 A 
HETATM   14  C   UNK N   1      26.621  26.706  -5.751  0.00  0.00    -0.017 A 
HETATM   15  N   UNK N   1      27.735  27.292  -3.722  0.00  0.00    -0.368 N 
HETATM   16  C   UNK N   1      27.235  27.761  -6.409  0.00  0.00     0.028 A 
HETATM   17  C   UNK N   1      25.836  25.697  -6.486  0.00  0.00     0.157 C 
HETATM   18  C   UNK N   1      28.108  28.591  -5.710  0.00  0.00     0.063 A 
HETATM   19  C   UNK N   1      28.341  28.346  -4.346  0.00  0.00     0.104 A 
ATOM     20  HN  UNK N   1      27.914  27.123  -2.733  1.00  0.00     0.165 HD
BRANCH  18  21
HETATM   21  C   UNK N   1      28.830  29.677  -6.449  0.00  0.00     0.418 C 
HETATM   22  F   UNK N   1      28.303  30.908  -6.103  0.00  0.00    -0.166 F 
HETATM   23  F   UNK N   1      30.183  29.666  -6.161  0.00  0.00    -0.166 F 
HETATM   24  F   UNK N   1      28.665  29.482  -7.810  0.00  0.00    -0.166 F 
ENDBRANCH  18  21
ENDBRANCH   9  10
ENDBRANCH   1   9
BRANCH   4  25
HETATM   25  N   UNK N   1      29.797  22.382  -5.259  0.00  0.00    -0.410 N 
HETATM   26  H   UNK N   1      29.262  21.680  -4.748  0.00  0.00     0.154 HD
BRANCH  25  27
HETATM   27  C   UNK N   1      30.637  23.413  -4.643  0.00  0.00     0.110 C 
HETATM   28  C   UNK N   1      29.822  24.173  -3.595  0.00  0.00     0.053 C 
HETATM   29  C   UNK N   1      29.579  23.261  -2.389  0.00  0.00     0.169 C 
HETATM   30  O   UNK N   1      30.813  22.896  -1.817  0.00  0.00    -0.388 OA
HETATM   31  C   UNK N   1      31.445  22.022  -2.723  0.00  0.00     0.201 C 
HETATM   32  C   UNK N   1      31.875  22.805  -3.965  0.00  0.00     0.167 C 
BRANCH  32  33
HETATM   33  O   UNK N   1      32.591  21.991  -4.846  0.00  0.00    -0.387 OA
HETATM   34  C   UNK N   1      33.178  21.017  -4.037  0.00  0.00     0.202 C 
ENDBRANCH  32  33
ENDBRANCH  25  27
ENDBRANCH   4  25
TORSDOF 7
ENDMDL
