MODEL 1
REMARK VINA RESULT:      -9.4      0.000      0.000
REMARK  7 active torsions:
REMARK  status: ('A' for Active; 'I' for Inactive)
REMARK    1  A    between atoms: N_5  and  C_8 
REMARK    2  A    between atoms: C_11  and  C_21 
REMARK    3  A    between atoms: C_12  and  N_14 
REMARK    4  A    between atoms: N_14  and  C_15 
REMARK       I    between atoms: C_21  and  N_23 
REMARK    5  A    between atoms: N_23  and  C_24 
REMARK    6  A    between atoms: C_27  and  C_34 
REMARK    7  A    between atoms: C_34  and  C_35 
ROOT
HETATM    1  C   UNK N   1      25.194  17.723   4.769  0.00  0.00     0.259 C 
HETATM    2  O   UNK N   1      25.041  18.922   4.966  0.00  0.00    -0.267 OA
HETATM    3  N   UNK N   1      24.167  16.868   4.924  0.00  0.00    -0.307 N 
HETATM    4  H   UNK N   1      24.291  15.942   4.614  0.00  0.00     0.170 HD
ENDROOT
BRANCH   1   5
HETATM    5  C   UNK N   1      26.534  17.145   4.514  0.00  0.00     0.058 A 
HETATM    6  C   UNK N   1      26.800  16.610   3.242  0.00  0.00     0.022 A 
HETATM    7  C   UNK N   1      28.038  16.048   2.946  0.00  0.00     0.030 A 
HETATM    8  C   UNK N   1      29.051  16.032   3.913  0.00  0.00     0.032 A 
HETATM    9  C   UNK N   1      28.786  16.555   5.188  0.00  0.00     0.059 A 
HETATM   10  C   UNK N   1      27.532  17.086   5.501  0.00  0.00     0.046 A 
BRANCH   8  11
HETATM   11  N   UNK N   1      30.349  15.541   3.592  0.00  0.00    -0.377 N 
HETATM   12  C   UNK N   1      30.549  14.147   3.238  0.00  0.00     0.153 C 
HETATM   13  C   UNK N   1      32.025  13.871   2.958  0.00  0.00     0.291 C 
HETATM   14  N   UNK N   1      32.853  14.430   4.029  0.00  0.00     0.087 N 
HETATM   15  C   UNK N   1      34.238  14.189   3.668  0.00  0.00     0.310 C 
HETATM   16  C   UNK N   1      32.704  15.887   4.187  0.00  0.00     0.291 C 
HETATM   17  C   UNK N   1      31.463  16.463   3.504  0.00  0.00     0.153 C 
ENDBRANCH   8  11
BRANCH  10  18
HETATM   18  N   UNK N   1      27.288  17.604   6.790  0.00  0.00    -0.384 N 
HETATM   19  H   UNK N   1      26.405  17.980   7.010  0.00  0.00     0.160 HD
BRANCH  18  20
HETATM   20  C   UNK N   1      28.326  17.585   7.777  0.00  0.00     0.085 C 
HETATM   21  C   UNK N   1      28.972  18.956   7.901  0.00  0.00     0.051 C 
HETATM   22  C   UNK N   1      30.033  18.855   8.994  0.00  0.00     0.169 C 
HETATM   23  O   UNK N   1      29.417  18.522  10.216  0.00  0.00    -0.391 OA
HETATM   24  C   UNK N   1      28.979  17.188  10.112  0.00  0.00     0.169 C 
HETATM   25  C   UNK N   1      27.812  17.107   9.131  0.00  0.00     0.051 C 
ENDBRANCH  18  20
ENDBRANCH  10  18
ENDBRANCH   1   5
BRANCH   3  26
HETATM   26  C   UNK N   1      22.935  17.209   5.498  0.00  0.00     0.135 A 
HETATM   27  C   UNK N   1      22.231  16.313   6.203  0.00  0.00     0.038 A 
HETATM   28  C   UNK N   1      22.494  14.980   6.433  0.00  0.00     0.025 A 
HETATM   29  C   UNK N   1      21.229  16.999   6.790  0.00  0.00     0.062 A 
HETATM   30  C   UNK N   1      21.668  14.308   7.328  0.00  0.00    -0.053 A 
HETATM   31  C   UNK N   1      20.598  15.003   7.963  0.00  0.00     0.010 A 
HETATM   32  C   UNK N   1      20.361  16.375   7.682  0.00  0.00     0.032 A 
HETATM   33  N   UNK N   1      21.313  18.302   6.437  0.00  0.00    -0.298 N 
HETATM   34  N   UNK N   1      22.386  18.437   5.653  0.00  0.00    -0.284 N 
HETATM   35  H   UNK N   1      20.695  19.020   6.707  0.00  0.00     0.187 HD
ATOM     36  HN  UNK N   1      22.731  19.308   5.246  1.00  0.00     0.188 HD
BRANCH  30  37
HETATM   37  C   UNK N   1      22.047  12.906   7.688  0.00  0.00     0.077 C 
BRANCH  37  38
HETATM   38  C   UNK N   1      22.351  12.644   9.124  0.00  0.00    -0.048 A 
HETATM   39  C   UNK N   1      21.286  12.463  10.013  0.00  0.00     0.049 A 
HETATM   40  C   UNK N   1      21.534  12.119  11.345  0.00  0.00     0.119 A 
HETATM   41  C   UNK N   1      22.849  11.942  11.786  0.00  0.00     0.084 A 
HETATM   42  F   UNK N   1      20.501  11.936  12.201  0.00  0.00    -0.206 F 
HETATM   43  C   UNK N   1      23.914  12.116  10.896  0.00  0.00     0.119 A 
HETATM   44  C   UNK N   1      23.664  12.459   9.569  0.00  0.00     0.049 A 
HETATM   45  F   UNK N   1      25.188  11.929  11.312  0.00  0.00    -0.206 F 
ENDBRANCH  37  38
ENDBRANCH  30  37
ENDBRANCH   3  26
TORSDOF 7
ENDMDL
MODEL 2
REMARK VINA RESULT:      -9.2      2.629      4.386
REMARK  7 active torsions:
REMARK  status: ('A' for Active; 'I' for Inactive)
REMARK    1  A    between atoms: N_5  and  C_8 
REMARK    2  A    between atoms: C_11  and  C_21 
REMARK    3  A    between atoms: C_12  and  N_14 
REMARK    4  A    between atoms: N_14  and  C_15 
REMARK       I    between atoms: C_21  and  N_23 
REMARK    5  A    between atoms: N_23  and  C_24 
REMARK    6  A    between atoms: C_27  and  C_34 
REMARK    7  A    between atoms: C_34  and  C_35 
ROOT
HETATM    1  C   UNK N   1      27.369  17.455   5.643  0.00  0.00     0.259 C 
HETATM    2  O   UNK N   1      27.201  18.421   4.910  0.00  0.00    -0.267 OA
HETATM    3  N   UNK N   1      26.338  16.656   5.969  0.00  0.00    -0.307 N 
HETATM    4  H   UNK N   1      26.540  15.813   6.435  0.00  0.00     0.170 HD
ENDROOT
BRANCH   1   5
HETATM    5  C   UNK N   1      28.661  17.219   6.329  0.00  0.00     0.058 A 
HETATM    6  C   UNK N   1      28.728  17.423   7.717  0.00  0.00     0.022 A 
HETATM    7  C   UNK N   1      29.916  17.222   8.415  0.00  0.00     0.030 A 
HETATM    8  C   UNK N   1      31.061  16.785   7.738  0.00  0.00     0.032 A 
HETATM    9  C   UNK N   1      31.002  16.590   6.350  0.00  0.00     0.059 A 
HETATM   10  C   UNK N   1      29.822  16.827   5.641  0.00  0.00     0.046 A 
BRANCH   8  11
HETATM   11  N   UNK N   1      32.256  16.490   8.456  0.00  0.00    -0.377 N 
HETATM   12  C   UNK N   1      33.316  17.476   8.570  0.00  0.00     0.153 C 
HETATM   13  C   UNK N   1      34.490  16.911   9.368  0.00  0.00     0.291 C 
HETATM   14  N   UNK N   1      34.844  15.581   8.868  0.00  0.00     0.087 N 
HETATM   15  C   UNK N   1      35.917  15.081   9.708  0.00  0.00     0.310 C 
HETATM   16  C   UNK N   1      33.744  14.606   8.962  0.00  0.00     0.291 C 
HETATM   17  C   UNK N   1      32.368  15.239   9.178  0.00  0.00     0.153 C 
ENDBRANCH   8  11
BRANCH  10  18
HETATM   18  N   UNK N   1      29.786  16.627   4.245  0.00  0.00    -0.384 N 
HETATM   19  H   UNK N   1      29.993  17.370   3.635  0.00  0.00     0.160 HD
BRANCH  18  20
HETATM   20  C   UNK N   1      29.446  15.338   3.716  0.00  0.00     0.085 C 
HETATM   21  C   UNK N   1      28.331  15.459   2.690  0.00  0.00     0.051 C 
HETATM   22  C   UNK N   1      28.061  14.056   2.153  0.00  0.00     0.169 C 
HETATM   23  O   UNK N   1      29.219  13.564   1.521  0.00  0.00    -0.391 OA
HETATM   24  C   UNK N   1      30.169  13.313   2.529  0.00  0.00     0.169 C 
HETATM   25  C   UNK N   1      30.659  14.636   3.114  0.00  0.00     0.051 C 
ENDBRANCH  18  20
ENDBRANCH  10  18
ENDBRANCH   1   5
BRANCH   3  26
HETATM   26  C   UNK N   1      24.995  16.945   5.690  0.00  0.00     0.135 A 
HETATM   27  C   UNK N   1      24.035  16.035   5.900  0.00  0.00     0.038 A 
HETATM   28  C   UNK N   1      24.147  14.727   6.319  0.00  0.00     0.025 A 
HETATM   29  C   UNK N   1      22.861  16.682   5.745  0.00  0.00     0.062 A 
HETATM   30  C   UNK N   1      22.970  14.039   6.598  0.00  0.00    -0.053 A 
HETATM   31  C   UNK N   1      21.714  14.694   6.441  0.00  0.00     0.010 A 
HETATM   32  C   UNK N   1      21.652  16.039   5.993  0.00  0.00     0.032 A 
HETATM   33  N   UNK N   1      23.103  17.975   5.430  0.00  0.00    -0.298 N 
HETATM   34  N   UNK N   1      24.428  18.145   5.419  0.00  0.00    -0.284 N 
HETATM   35  H   UNK N   1      22.425  18.665   5.244  0.00  0.00     0.187 HD
ATOM     36  HN  UNK N   1      24.923  19.020   5.240  1.00  0.00     0.188 HD
BRANCH  30  37
HETATM   37  C   UNK N   1      23.101  12.674   7.195  0.00  0.00     0.077 C 
BRANCH  37  38
HETATM   38  C   UNK N   1      22.944  12.573   8.675  0.00  0.00    -0.048 A 
HETATM   39  C   UNK N   1      21.660  12.669   9.222  0.00  0.00     0.049 A 
HETATM   40  C   UNK N   1      21.466  12.483  10.593  0.00  0.00     0.119 A 
HETATM   41  C   UNK N   1      22.556  12.185  11.417  0.00  0.00     0.084 A 
HETATM   42  F   UNK N   1      20.221  12.567  11.118  0.00  0.00    -0.206 F 
HETATM   43  C   UNK N   1      23.838  12.083  10.871  0.00  0.00     0.119 A 
HETATM   44  C   UNK N   1      24.030  12.270   9.504  0.00  0.00     0.049 A 
HETATM   45  F   UNK N   1      24.894  11.778  11.661  0.00  0.00    -0.206 F 
ENDBRANCH  37  38
ENDBRANCH  30  37
ENDBRANCH   3  26
TORSDOF 7
ENDMDL
MODEL 3
REMARK VINA RESULT:      -9.2      1.675      2.234
REMARK  7 active torsions:
REMARK  status: ('A' for Active; 'I' for Inactive)
REMARK    1  A    between atoms: N_5  and  C_8 
REMARK    2  A    between atoms: C_11  and  C_21 
REMARK    3  A    between atoms: C_12  and  N_14 
REMARK    4  A    between atoms: N_14  and  C_15 
REMARK       I    between atoms: C_21  and  N_23 
REMARK    5  A    between atoms: N_23  and  C_24 
REMARK    6  A    between atoms: C_27  and  C_34 
REMARK    7  A    between atoms: C_34  and  C_35 
ROOT
HETATM    1  C   UNK N   1      26.132  16.268   4.224  0.00  0.00     0.259 C 
HETATM    2  O   UNK N   1      25.654  16.719   3.192  0.00  0.00    -0.267 OA
HETATM    3  N   UNK N   1      25.391  16.191   5.344  0.00  0.00    -0.307 N 
HETATM    4  H   UNK N   1      25.760  15.690   6.106  0.00  0.00     0.170 HD
ENDROOT
BRANCH   1   5
HETATM    5  C   UNK N   1      27.573  15.943   4.335  0.00  0.00     0.058 A 
HETATM    6  C   UNK N   1      27.938  14.625   4.654  0.00  0.00     0.022 A 
HETATM    7  C   UNK N   1      29.276  14.262   4.777  0.00  0.00     0.030 A 
HETATM    8  C   UNK N   1      30.283  15.209   4.556  0.00  0.00     0.032 A 
HETATM    9  C   UNK N   1      29.923  16.530   4.247  0.00  0.00     0.059 A 
HETATM   10  C   UNK N   1      28.580  16.907   4.160  0.00  0.00     0.046 A 
BRANCH   8  11
HETATM   11  N   UNK N   1      31.655  14.827   4.591  0.00  0.00    -0.377 N 
HETATM   12  C   UNK N   1      32.704  15.829   4.658  0.00  0.00     0.153 C 
HETATM   13  C   UNK N   1      34.080  15.166   4.665  0.00  0.00     0.291 C 
HETATM   14  N   UNK N   1      34.160  14.163   3.600  0.00  0.00     0.087 N 
HETATM   15  C   UNK N   1      35.463  13.533   3.705  0.00  0.00     0.310 C 
HETATM   16  C   UNK N   1      33.159  13.091   3.728  0.00  0.00     0.291 C 
HETATM   17  C   UNK N   1      32.007  13.424   4.677  0.00  0.00     0.153 C 
ENDBRANCH   8  11
BRANCH  10  18
HETATM   18  N   UNK N   1      28.241  18.240   3.850  0.00  0.00    -0.384 N 
HETATM   19  H   UNK N   1      28.032  18.492   2.922  0.00  0.00     0.160 HD
BRANCH  18  20
HETATM   20  C   UNK N   1      28.203  19.229   4.888  0.00  0.00     0.085 C 
HETATM   21  C   UNK N   1      27.140  20.273   4.591  0.00  0.00     0.051 C 
HETATM   22  C   UNK N   1      27.140  21.258   5.758  0.00  0.00     0.169 C 
HETATM   23  O   UNK N   1      26.804  20.580   6.946  0.00  0.00    -0.391 OA
HETATM   24  C   UNK N   1      27.889  19.743   7.269  0.00  0.00     0.169 C 
HETATM   25  C   UNK N   1      27.976  18.601   6.259  0.00  0.00     0.051 C 
ENDBRANCH  18  20
ENDBRANCH  10  18
ENDBRANCH   1   5
BRANCH   3  26
HETATM   26  C   UNK N   1      24.127  16.779   5.497  0.00  0.00     0.135 A 
HETATM   27  C   UNK N   1      23.092  16.075   5.974  0.00  0.00     0.038 A 
HETATM   28  C   UNK N   1      23.023  14.740   6.311  0.00  0.00     0.025 A 
HETATM   29  C   UNK N   1      22.104  16.965   6.201  0.00  0.00     0.062 A 
HETATM   30  C   UNK N   1      21.857  14.293   6.923  0.00  0.00    -0.053 A 
HETATM   31  C   UNK N   1      20.793  15.207   7.175  0.00  0.00     0.010 A 
HETATM   32  C   UNK N   1      20.908  16.571   6.796  0.00  0.00     0.032 A 
HETATM   33  N   UNK N   1      22.528  18.202   5.855  0.00  0.00    -0.298 N 
HETATM   34  N   UNK N   1      23.794  18.091   5.440  0.00  0.00    -0.284 N 
HETATM   35  H   UNK N   1      22.001  19.032   5.900  0.00  0.00     0.187 HD
ATOM     36  HN  UNK N   1      24.398  18.855   5.136  1.00  0.00     0.188 HD
BRANCH  30  37
HETATM   37  C   UNK N   1      21.845  12.882   7.423  0.00  0.00     0.077 C 
BRANCH  37  38
HETATM   38  C   UNK N   1      22.232  12.674   8.848  0.00  0.00    -0.048 A 
HETATM   39  C   UNK N   1      21.221  12.559   9.808  0.00  0.00     0.049 A 
HETATM   40  C   UNK N   1      21.544  12.267  11.135  0.00  0.00     0.119 A 
HETATM   41  C   UNK N   1      22.880  12.075  11.502  0.00  0.00     0.084 A 
HETATM   42  F   UNK N   1      20.563  12.147  12.060  0.00  0.00    -0.206 F 
HETATM   43  C   UNK N   1      23.891  12.184  10.542  0.00  0.00     0.119 A 
HETATM   44  C   UNK N   1      23.566  12.476   9.219  0.00  0.00     0.049 A 
HETATM   45  F   UNK N   1      25.184  11.982  10.887  0.00  0.00    -0.206 F 
ENDBRANCH  37  38
ENDBRANCH  30  37
ENDBRANCH   3  26
TORSDOF 7
ENDMDL
MODEL 4
REMARK VINA RESULT:      -9.0      2.165      3.920
REMARK  7 active torsions:
REMARK  status: ('A' for Active; 'I' for Inactive)
REMARK    1  A    between atoms: N_5  and  C_8 
REMARK    2  A    between atoms: C_11  and  C_21 
REMARK    3  A    between atoms: C_12  and  N_14 
REMARK    4  A    between atoms: N_14  and  C_15 
REMARK       I    between atoms: C_21  and  N_23 
REMARK    5  A    between atoms: N_23  and  C_24 
REMARK    6  A    between atoms: C_27  and  C_34 
REMARK    7  A    between atoms: C_34  and  C_35 
ROOT
HETATM    1  C   UNK N   1      25.962  17.518   4.978  0.00  0.00     0.259 C 
HETATM    2  O   UNK N   1      25.597  18.283   4.095  0.00  0.00    -0.267 OA
HETATM    3  N   UNK N   1      25.061  16.840   5.711  0.00  0.00    -0.307 N 
HETATM    4  H   UNK N   1      25.393  16.129   6.305  0.00  0.00     0.170 HD
ENDROOT
BRANCH   1   5
HETATM    5  C   UNK N   1      27.384  17.426   5.385  0.00  0.00     0.058 A 
HETATM    6  C   UNK N   1      27.758  17.961   6.629  0.00  0.00     0.022 A 
HETATM    7  C   UNK N   1      29.080  17.909   7.062  0.00  0.00     0.030 A 
HETATM    8  C   UNK N   1      30.055  17.294   6.268  0.00  0.00     0.032 A 
HETATM    9  C   UNK N   1      29.687  16.768   5.020  0.00  0.00     0.059 A 
HETATM   10  C   UNK N   1      28.369  16.852   4.565  0.00  0.00     0.046 A 
BRANCH   8  11
HETATM   11  N   UNK N   1      31.391  17.156   6.742  0.00  0.00    -0.377 N 
HETATM   12  C   UNK N   1      32.495  16.990   5.813  0.00  0.00     0.153 C 
HETATM   13  C   UNK N   1      33.815  16.846   6.568  0.00  0.00     0.291 C 
HETATM   14  N   UNK N   1      33.673  15.861   7.644  0.00  0.00     0.087 N 
HETATM   15  C   UNK N   1      34.937  15.822   8.355  0.00  0.00     0.310 C 
HETATM   16  C   UNK N   1      32.641  16.217   8.633  0.00  0.00     0.291 C 
HETATM   17  C   UNK N   1      31.668  17.297   8.157  0.00  0.00     0.153 C 
ENDBRANCH   8  11
BRANCH  10  18
HETATM   18  N   UNK N   1      28.023  16.317   3.306  0.00  0.00    -0.384 N 
HETATM   19  H   UNK N   1      28.136  16.860   2.493  0.00  0.00     0.160 HD
BRANCH  18  20
HETATM   20  C   UNK N   1      27.505  14.983   3.213  0.00  0.00     0.085 C 
HETATM   21  C   UNK N   1      26.338  14.930   2.240  0.00  0.00     0.051 C 
HETATM   22  C   UNK N   1      25.876  13.476   2.173  0.00  0.00     0.169 C 
HETATM   23  O   UNK N   1      26.924  12.673   1.683  0.00  0.00    -0.391 OA
HETATM   24  C   UNK N   1      27.911  12.619   2.685  0.00  0.00     0.169 C 
HETATM   25  C   UNK N   1      28.585  13.983   2.816  0.00  0.00     0.051 C 
ENDBRANCH  18  20
ENDBRANCH  10  18
ENDBRANCH   1   5
BRANCH   3  26
HETATM   26  C   UNK N   1      23.680  17.081   5.687  0.00  0.00     0.135 A 
HETATM   27  C   UNK N   1      22.807  16.126   6.032  0.00  0.00     0.038 A 
HETATM   28  C   UNK N   1      23.039  14.812   6.376  0.00  0.00     0.025 A 
HETATM   29  C   UNK N   1      21.602  16.728   6.112  0.00  0.00     0.062 A 
HETATM   30  C   UNK N   1      21.957  14.067   6.834  0.00  0.00    -0.053 A 
HETATM   31  C   UNK N   1      20.670  14.673   6.929  0.00  0.00     0.010 A 
HETATM   32  C   UNK N   1      20.480  16.028   6.549  0.00  0.00     0.032 A 
HETATM   33  N   UNK N   1      21.737  18.039   5.808  0.00  0.00    -0.298 N 
HETATM   34  N   UNK N   1      23.031  18.264   5.566  0.00  0.00    -0.284 N 
HETATM   35  H   UNK N   1      21.012  18.705   5.770  0.00  0.00     0.187 HD
ATOM     36  HN  UNK N   1      23.454  19.164   5.334  1.00  0.00     0.188 HD
BRANCH  30  37
HETATM   37  C   UNK N   1      22.242  12.692   7.348  0.00  0.00     0.077 C 
BRANCH  37  38
HETATM   38  C   UNK N   1      22.466  12.559   8.817  0.00  0.00    -0.048 A 
HETATM   39  C   UNK N   1      21.353  12.516   9.664  0.00  0.00     0.049 A 
HETATM   40  C   UNK N   1      21.523  12.295  11.033  0.00  0.00     0.119 A 
HETATM   41  C   UNK N   1      22.806  12.103  11.555  0.00  0.00     0.084 A 
HETATM   42  F   UNK N   1      20.444  12.245  11.849  0.00  0.00    -0.206 F 
HETATM   43  C   UNK N   1      23.917  12.139  10.708  0.00  0.00     0.119 A 
HETATM   44  C   UNK N   1      23.746  12.360   9.343  0.00  0.00     0.049 A 
HETATM   45  F   UNK N   1      25.160  11.936  11.205  0.00  0.00    -0.206 F 
ENDBRANCH  37  38
ENDBRANCH  30  37
ENDBRANCH   3  26
TORSDOF 7
ENDMDL
MODEL 5
REMARK VINA RESULT:      -8.9      3.144      4.951
REMARK  7 active torsions:
REMARK  status: ('A' for Active; 'I' for Inactive)
REMARK    1  A    between atoms: N_5  and  C_8 
REMARK    2  A    between atoms: C_11  and  C_21 
REMARK    3  A    between atoms: C_12  and  N_14 
REMARK    4  A    between atoms: N_14  and  C_15 
REMARK       I    between atoms: C_21  and  N_23 
REMARK    5  A    between atoms: N_23  and  C_24 
REMARK    6  A    between atoms: C_27  and  C_34 
REMARK    7  A    between atoms: C_34  and  C_35 
ROOT
HETATM    1  C   UNK N   1      28.293  16.644   5.769  0.00  0.00     0.259 C 
HETATM    2  O   UNK N   1      28.263  17.313   4.744  0.00  0.00    -0.267 OA
HETATM    3  N   UNK N   1      27.159  16.149   6.296  0.00  0.00    -0.307 N 
HETATM    4  H   UNK N   1      27.240  15.498   7.030  0.00  0.00     0.170 HD
ENDROOT
BRANCH   1   5
HETATM    5  C   UNK N   1      29.539  16.487   6.556  0.00  0.00     0.058 A 
HETATM    6  C   UNK N   1      29.712  17.286   7.698  0.00  0.00     0.022 A 
HETATM    7  C   UNK N   1      30.864  17.187   8.473  0.00  0.00     0.030 A 
HETATM    8  C   UNK N   1      31.860  16.263   8.135  0.00  0.00     0.032 A 
HETATM    9  C   UNK N   1      31.696  15.471   6.989  0.00  0.00     0.059 A 
HETATM   10  C   UNK N   1      30.558  15.594   6.187  0.00  0.00     0.046 A 
BRANCH   8  11
HETATM   11  N   UNK N   1      33.000  16.091   8.972  0.00  0.00    -0.377 N 
HETATM   12  C   UNK N   1      33.991  17.145   9.103  0.00  0.00     0.153 C 
HETATM   13  C   UNK N   1      35.117  16.708  10.037  0.00  0.00     0.291 C 
HETATM   14  N   UNK N   1      35.587  15.370   9.668  0.00  0.00     0.087 N 
HETATM   15  C   UNK N   1      36.606  14.995  10.631  0.00  0.00     0.310 C 
HETATM   16  C   UNK N   1      34.537  14.340   9.740  0.00  0.00     0.291 C 
HETATM   17  C   UNK N   1      33.116  14.901   9.790  0.00  0.00     0.153 C 
ENDBRANCH   8  11
BRANCH  10  18
HETATM   18  N   UNK N   1      30.415  14.788   5.038  0.00  0.00    -0.384 N 
HETATM   19  H   UNK N   1      29.722  14.090   5.009  0.00  0.00     0.160 HD
BRANCH  18  20
HETATM   20  C   UNK N   1      31.281  14.987   3.912  0.00  0.00     0.085 C 
HETATM   21  C   UNK N   1      31.910  16.370   3.960  0.00  0.00     0.051 C 
HETATM   22  C   UNK N   1      32.840  16.482   2.755  0.00  0.00     0.169 C 
HETATM   23  O   UNK N   1      33.854  15.509   2.852  0.00  0.00    -0.391 OA
HETATM   24  C   UNK N   1      33.249  14.255   2.639  0.00  0.00     0.169 C 
HETATM   25  C   UNK N   1      32.355  13.908   3.827  0.00  0.00     0.051 C 
ENDBRANCH  18  20
ENDBRANCH  10  18
ENDBRANCH   1   5
BRANCH   3  26
HETATM   26  C   UNK N   1      25.870  16.500   5.871  0.00  0.00     0.135 A 
HETATM   27  C   UNK N   1      24.850  15.638   5.976  0.00  0.00     0.038 A 
HETATM   28  C   UNK N   1      24.852  14.329   6.407  0.00  0.00     0.025 A 
HETATM   29  C   UNK N   1      23.733  16.341   5.692  0.00  0.00     0.062 A 
HETATM   30  C   UNK N   1      23.620  13.701   6.556  0.00  0.00    -0.053 A 
HETATM   31  C   UNK N   1      22.421  14.414   6.262  0.00  0.00     0.010 A 
HETATM   32  C   UNK N   1      22.474  15.758   5.807  0.00  0.00     0.032 A 
HETATM   33  N   UNK N   1      24.070  17.618   5.404  0.00  0.00    -0.298 N 
HETATM   34  N   UNK N   1      25.395  17.724   5.538  0.00  0.00    -0.284 N 
HETATM   35  H   UNK N   1      23.452  18.339   5.143  0.00  0.00     0.187 HD
ATOM     36  HN  UNK N   1      25.949  18.573   5.413  1.00  0.00     0.188 HD
BRANCH  30  37
HETATM   37  C   UNK N   1      23.618  12.335   7.166  0.00  0.00     0.077 C 
BRANCH  37  38
HETATM   38  C   UNK N   1      23.209  12.242   8.597  0.00  0.00    -0.048 A 
HETATM   39  C   UNK N   1      24.195  12.027   9.565  0.00  0.00     0.049 A 
HETATM   40  C   UNK N   1      23.860  12.032  10.922  0.00  0.00     0.119 A 
HETATM   41  C   UNK N   1      22.538  12.267  11.312  0.00  0.00     0.084 A 
HETATM   42  F   UNK N   1      24.819  11.832  11.857  0.00  0.00    -0.206 F 
HETATM   43  C   UNK N   1      21.552  12.488  10.346  0.00  0.00     0.119 A 
HETATM   44  C   UNK N   1      21.889  12.482   8.994  0.00  0.00     0.049 A 
HETATM   45  F   UNK N   1      20.275  12.733  10.718  0.00  0.00    -0.206 F 
ENDBRANCH  37  38
ENDBRANCH  30  37
ENDBRANCH   3  26
TORSDOF 7
ENDMDL
MODEL 6
REMARK VINA RESULT:      -8.7      4.357      9.967
REMARK  7 active torsions:
REMARK  status: ('A' for Active; 'I' for Inactive)
REMARK    1  A    between atoms: N_5  and  C_8 
REMARK    2  A    between atoms: C_11  and  C_21 
REMARK    3  A    between atoms: C_12  and  N_14 
REMARK    4  A    between atoms: N_14  and  C_15 
REMARK       I    between atoms: C_21  and  N_23 
REMARK    5  A    between atoms: N_23  and  C_24 
REMARK    6  A    between atoms: C_27  and  C_34 
REMARK    7  A    between atoms: C_34  and  C_35 
ROOT
HETATM    1  C   UNK N   1      27.888  15.232   4.109  0.00  0.00     0.259 C 
HETATM    2  O   UNK N   1      28.304  14.592   3.152  0.00  0.00    -0.267 OA
HETATM    3  N   UNK N   1      28.488  16.377   4.480  0.00  0.00    -0.307 N 
HETATM    4  H   UNK N   1      28.037  16.934   5.154  0.00  0.00     0.170 HD
ENDROOT
BRANCH   1   5
HETATM    5  C   UNK N   1      26.822  14.701   4.991  0.00  0.00     0.058 A 
HETATM    6  C   UNK N   1      26.683  15.252   6.276  0.00  0.00     0.022 A 
HETATM    7  C   UNK N   1      25.704  14.790   7.151  0.00  0.00     0.030 A 
HETATM    8  C   UNK N   1      24.822  13.780   6.748  0.00  0.00     0.032 A 
HETATM    9  C   UNK N   1      24.964  13.220   5.469  0.00  0.00     0.059 A 
HETATM   10  C   UNK N   1      25.970  13.654   4.602  0.00  0.00     0.046 A 
BRANCH   8  11
HETATM   11  N   UNK N   1      23.761  13.364   7.602  0.00  0.00    -0.377 N 
HETATM   12  C   UNK N   1      22.574  14.185   7.765  0.00  0.00     0.153 C 
HETATM   13  C   UNK N   1      21.599  13.530   8.742  0.00  0.00     0.291 C 
HETATM   14  N   UNK N   1      22.309  13.106   9.951  0.00  0.00     0.087 N 
HETATM   15  C   UNK N   1      21.340  12.439  10.802  0.00  0.00     0.310 C 
HETATM   16  C   UNK N   1      23.383  12.134   9.690  0.00  0.00     0.291 C 
HETATM   17  C   UNK N   1      23.811  12.057   8.225  0.00  0.00     0.153 C 
ENDBRANCH   8  11
BRANCH  10  18
HETATM   18  N   UNK N   1      26.096  13.075   3.322  0.00  0.00    -0.384 N 
HETATM   19  H   UNK N   1      26.956  12.693   3.037  0.00  0.00     0.160 HD
BRANCH  18  20
HETATM   20  C   UNK N   1      24.968  13.044   2.437  0.00  0.00     0.085 C 
HETATM   21  C   UNK N   1      24.765  14.401   1.783  0.00  0.00     0.051 C 
HETATM   22  C   UNK N   1      23.576  14.269   0.834  0.00  0.00     0.169 C 
HETATM   23  O   UNK N   1      23.873  13.317  -0.160  0.00  0.00    -0.391 OA
HETATM   24  C   UNK N   1      23.890  12.055   0.464  0.00  0.00     0.169 C 
HETATM   25  C   UNK N   1      25.106  11.952   1.382  0.00  0.00     0.051 C 
ENDBRANCH  18  20
ENDBRANCH  10  18
ENDBRANCH   1   5
BRANCH   3  26
HETATM   26  C   UNK N   1      29.713  16.827   3.970  0.00  0.00     0.135 A 
HETATM   27  C   UNK N   1      30.735  17.118   4.786  0.00  0.00     0.038 A 
HETATM   28  C   UNK N   1      30.783  17.114   6.163  0.00  0.00     0.025 A 
HETATM   29  C   UNK N   1      31.810  17.307   3.991  0.00  0.00     0.062 A 
HETATM   30  C   UNK N   1      32.021  17.317   6.763  0.00  0.00    -0.053 A 
HETATM   31  C   UNK N   1      33.176  17.522   5.952  0.00  0.00     0.010 A 
HETATM   32  C   UNK N   1      33.071  17.531   4.536  0.00  0.00     0.032 A 
HETATM   33  N   UNK N   1      31.444  17.144   2.700  0.00  0.00    -0.298 N 
HETATM   34  N   UNK N   1      30.147  16.823   2.686  0.00  0.00    -0.284 N 
HETATM   35  H   UNK N   1      32.027  17.244   1.912  0.00  0.00     0.187 HD
ATOM     36  HN  UNK N   1      29.586  16.612   1.860  1.00  0.00     0.188 HD
BRANCH  30  37
HETATM   37  C   UNK N   1      32.095  17.162   8.249  0.00  0.00     0.077 C 
BRANCH  37  38
HETATM   38  C   UNK N   1      33.118  16.212   8.772  0.00  0.00    -0.048 A 
HETATM   39  C   UNK N   1      34.234  16.727   9.441  0.00  0.00     0.049 A 
HETATM   40  C   UNK N   1      35.161  15.862  10.027  0.00  0.00     0.119 A 
HETATM   41  C   UNK N   1      34.966  14.479   9.959  0.00  0.00     0.084 A 
HETATM   42  F   UNK N   1      36.235  16.364  10.681  0.00  0.00    -0.206 F 
HETATM   43  C   UNK N   1      33.848  13.964   9.296  0.00  0.00     0.119 A 
HETATM   44  C   UNK N   1      32.925  14.827   8.711  0.00  0.00     0.049 A 
HETATM   45  F   UNK N   1      33.644  12.627   9.242  0.00  0.00    -0.206 F 
ENDBRANCH  37  38
ENDBRANCH  30  37
ENDBRANCH   3  26
TORSDOF 7
ENDMDL
MODEL 7
REMARK VINA RESULT:      -8.6      6.698     11.353
REMARK  7 active torsions:
REMARK  status: ('A' for Active; 'I' for Inactive)
REMARK    1  A    between atoms: N_5  and  C_8 
REMARK    2  A    between atoms: C_11  and  C_21 
REMARK    3  A    between atoms: C_12  and  N_14 
REMARK    4  A    between atoms: N_14  and  C_15 
REMARK       I    between atoms: C_21  and  N_23 
REMARK    5  A    between atoms: N_23  and  C_24 
REMARK    6  A    between atoms: C_27  and  C_34 
REMARK    7  A    between atoms: C_34  and  C_35 
ROOT
HETATM    1  C   UNK N   1      34.218  16.412   9.222  0.00  0.00     0.259 C 
HETATM    2  O   UNK N   1      35.093  17.256   9.364  0.00  0.00    -0.267 OA
HETATM    3  N   UNK N   1      34.448  15.127   9.547  0.00  0.00    -0.307 N 
HETATM    4  H   UNK N   1      33.680  14.512   9.559  0.00  0.00     0.170 HD
ENDROOT
BRANCH   1   5
HETATM    5  C   UNK N   1      32.940  16.727   8.542  0.00  0.00     0.058 A 
HETATM    6  C   UNK N   1      31.760  16.726   9.305  0.00  0.00     0.022 A 
HETATM    7  C   UNK N   1      30.529  17.008   8.720  0.00  0.00     0.030 A 
HETATM    8  C   UNK N   1      30.455  17.326   7.358  0.00  0.00     0.032 A 
HETATM    9  C   UNK N   1      31.630  17.318   6.590  0.00  0.00     0.059 A 
HETATM   10  C   UNK N   1      32.862  16.997   7.166  0.00  0.00     0.046 A 
BRANCH   8  11
HETATM   11  N   UNK N   1      29.214  17.704   6.770  0.00  0.00    -0.377 N 
HETATM   12  C   UNK N   1      28.865  17.271   5.429  0.00  0.00     0.153 C 
HETATM   13  C   UNK N   1      27.499  17.822   5.026  0.00  0.00     0.291 C 
HETATM   14  N   UNK N   1      27.429  19.256   5.321  0.00  0.00     0.087 N 
HETATM   15  C   UNK N   1      26.090  19.697   4.974  0.00  0.00     0.310 C 
HETATM   16  C   UNK N   1      27.622  19.571   6.747  0.00  0.00     0.291 C 
HETATM   17  C   UNK N   1      28.239  18.432   7.559  0.00  0.00     0.153 C 
ENDBRANCH   8  11
BRANCH  10  18
HETATM   18  N   UNK N   1      34.030  16.994   6.375  0.00  0.00    -0.384 N 
HETATM   19  H   UNK N   1      34.717  17.686   6.508  0.00  0.00     0.160 HD
BRANCH  18  20
HETATM   20  C   UNK N   1      34.214  15.983   5.375  0.00  0.00     0.085 C 
HETATM   21  C   UNK N   1      33.810  14.620   5.915  0.00  0.00     0.051 C 
HETATM   22  C   UNK N   1      34.000  13.615   4.781  0.00  0.00     0.169 C 
HETATM   23  O   UNK N   1      33.156  13.955   3.706  0.00  0.00    -0.391 OA
HETATM   24  C   UNK N   1      33.665  15.138   3.136  0.00  0.00     0.169 C 
HETATM   25  C   UNK N   1      33.450  16.305   4.096  0.00  0.00     0.051 C 
ENDBRANCH  18  20
ENDBRANCH  10  18
ENDBRANCH   1   5
BRANCH   3  26
HETATM   26  C   UNK N   1      35.710  14.608   9.869  0.00  0.00     0.135 A 
HETATM   27  C   UNK N   1      35.875  13.806  10.929  0.00  0.00     0.038 A 
HETATM   28  C   UNK N   1      34.960  13.416  11.883  0.00  0.00     0.025 A 
HETATM   29  C   UNK N   1      37.128  13.313  10.837  0.00  0.00     0.062 A 
HETATM   30  C   UNK N   1      35.362  12.454  12.803  0.00  0.00    -0.053 A 
HETATM   31  C   UNK N   1      36.680  11.915  12.734  0.00  0.00     0.010 A 
HETATM   32  C   UNK N   1      37.590  12.360  11.740  0.00  0.00     0.032 A 
HETATM   33  N   UNK N   1      37.727  13.819   9.734  0.00  0.00    -0.298 N 
HETATM   34  N   UNK N   1      36.838  14.605   9.120  0.00  0.00    -0.284 N 
HETATM   35  H   UNK N   1      38.649  13.641   9.439  0.00  0.00     0.187 HD
ATOM     36  HN  UNK N   1      36.983  15.110   8.245  1.00  0.00     0.188 HD
BRANCH  30  37
HETATM   37  C   UNK N   1      34.320  11.925  13.739  0.00  0.00     0.077 C 
BRANCH  37  38
HETATM   38  C   UNK N   1      34.713  11.795  15.171  0.00  0.00    -0.048 A 
HETATM   39  C   UNK N   1      34.932  12.959  15.916  0.00  0.00     0.049 A 
HETATM   40  C   UNK N   1      35.206  12.875  17.284  0.00  0.00     0.119 A 
HETATM   41  C   UNK N   1      35.246  11.627  17.912  0.00  0.00     0.084 A 
HETATM   42  F   UNK N   1      35.409  14.004  18.004  0.00  0.00    -0.206 F 
HETATM   43  C   UNK N   1      35.021  10.463  17.170  0.00  0.00     0.119 A 
HETATM   44  C   UNK N   1      34.749  10.549  15.806  0.00  0.00     0.049 A 
HETATM   45  F   UNK N   1      35.042   9.253  17.775  0.00  0.00    -0.206 F 
ENDBRANCH  37  38
ENDBRANCH  30  37
ENDBRANCH   3  26
TORSDOF 7
ENDMDL
MODEL 8
REMARK VINA RESULT:      -8.6      6.063     11.280
REMARK  7 active torsions:
REMARK  status: ('A' for Active; 'I' for Inactive)
REMARK    1  A    between atoms: N_5  and  C_8 
REMARK    2  A    between atoms: C_11  and  C_21 
REMARK    3  A    between atoms: C_12  and  N_14 
REMARK    4  A    between atoms: N_14  and  C_15 
REMARK       I    between atoms: C_21  and  N_23 
REMARK    5  A    between atoms: N_23  and  C_24 
REMARK    6  A    between atoms: C_27  and  C_34 
REMARK    7  A    between atoms: C_34  and  C_35 
ROOT
HETATM    1  C   UNK N   1      34.369  15.741   7.204  0.00  0.00     0.259 C 
HETATM    2  O   UNK N   1      35.314  16.069   6.499  0.00  0.00    -0.267 OA
HETATM    3  N   UNK N   1      34.518  14.799   8.152  0.00  0.00    -0.307 N 
HETATM    4  H   UNK N   1      33.781  14.670   8.791  0.00  0.00     0.170 HD
ENDROOT
BRANCH   1   5
HETATM    5  C   UNK N   1      32.998  16.238   6.943  0.00  0.00     0.058 A 
HETATM    6  C   UNK N   1      32.236  16.696   8.030  0.00  0.00     0.022 A 
HETATM    7  C   UNK N   1      30.939  17.168   7.847  0.00  0.00     0.030 A 
HETATM    8  C   UNK N   1      30.385  17.218   6.562  0.00  0.00     0.032 A 
HETATM    9  C   UNK N   1      31.139  16.751   5.475  0.00  0.00     0.059 A 
HETATM   10  C   UNK N   1      32.427  16.241   5.659  0.00  0.00     0.046 A 
BRANCH   8  11
HETATM   11  N   UNK N   1      29.094  17.783   6.353  0.00  0.00    -0.377 N 
HETATM   12  C   UNK N   1      28.363  17.529   5.124  0.00  0.00     0.153 C 
HETATM   13  C   UNK N   1      27.022  18.260   5.138  0.00  0.00     0.291 C 
HETATM   14  N   UNK N   1      27.213  19.655   5.544  0.00  0.00     0.087 N 
HETATM   15  C   UNK N   1      25.899  20.267   5.597  0.00  0.00     0.310 C 
HETATM   16  C   UNK N   1      27.802  19.799   6.887  0.00  0.00     0.291 C 
HETATM   17  C   UNK N   1      28.454  18.523   7.421  0.00  0.00     0.153 C 
ENDBRANCH   8  11
BRANCH  10  18
HETATM   18  N   UNK N   1      33.166  15.776   4.552  0.00  0.00    -0.384 N 
HETATM   19  H   UNK N   1      33.961  16.270   4.248  0.00  0.00     0.160 HD
BRANCH  18  20
HETATM   20  C   UNK N   1      32.758  14.583   3.869  0.00  0.00     0.085 C 
HETATM   21  C   UNK N   1      33.537  14.416   2.574  0.00  0.00     0.051 C 
HETATM   22  C   UNK N   1      33.071  13.110   1.936  0.00  0.00     0.169 C 
HETATM   23  O   UNK N   1      33.367  12.034   2.796  0.00  0.00    -0.391 OA
HETATM   24  C   UNK N   1      32.507  12.140   3.905  0.00  0.00     0.169 C 
HETATM   25  C   UNK N   1      32.906  13.347   4.751  0.00  0.00     0.051 C 
ENDBRANCH  18  20
ENDBRANCH  10  18
ENDBRANCH   1   5
BRANCH   3  26
HETATM   26  C   UNK N   1      35.653  13.987   8.288  0.00  0.00     0.135 A 
HETATM   27  C   UNK N   1      36.215  13.782   9.487  0.00  0.00     0.038 A 
HETATM   28  C   UNK N   1      35.886  14.324  10.711  0.00  0.00     0.025 A 
HETATM   29  C   UNK N   1      37.129  12.805   9.312  0.00  0.00     0.062 A 
HETATM   30  C   UNK N   1      36.544  13.826  11.831  0.00  0.00    -0.053 A 
HETATM   31  C   UNK N   1      37.518  12.796  11.680  0.00  0.00     0.010 A 
HETATM   32  C   UNK N   1      37.831  12.280  10.395  0.00  0.00     0.032 A 
HETATM   33  N   UNK N   1      37.134  12.425   8.014  0.00  0.00    -0.298 N 
HETATM   34  N   UNK N   1      36.201  13.142   7.382  0.00  0.00    -0.284 N 
HETATM   35  H   UNK N   1      37.720  11.744   7.609  0.00  0.00     0.187 HD
ATOM     36  HN  UNK N   1      35.947  13.067   6.396  1.00  0.00     0.188 HD
BRANCH  30  37
HETATM   37  C   UNK N   1      36.079  14.309  13.168  0.00  0.00     0.077 C 
BRANCH  37  38
HETATM   38  C   UNK N   1      35.554  13.275  14.106  0.00  0.00    -0.048 A 
HETATM   39  C   UNK N   1      35.883  13.370  15.462  0.00  0.00     0.049 A 
HETATM   40  C   UNK N   1      35.330  12.476  16.383  0.00  0.00     0.119 A 
HETATM   41  C   UNK N   1      34.434  11.494  15.949  0.00  0.00     0.084 A 
HETATM   42  F   UNK N   1      35.644  12.575  17.696  0.00  0.00    -0.206 F 
HETATM   43  C   UNK N   1      34.099  11.403  14.595  0.00  0.00     0.119 A 
HETATM   44  C   UNK N   1      34.652  12.294  13.678  0.00  0.00     0.049 A 
HETATM   45  F   UNK N   1      33.219  10.466  14.171  0.00  0.00    -0.206 F 
ENDBRANCH  37  38
ENDBRANCH  30  37
ENDBRANCH   3  26
TORSDOF 7
ENDMDL
MODEL 9
REMARK VINA RESULT:      -8.6      3.325      9.486
REMARK  7 active torsions:
REMARK  status: ('A' for Active; 'I' for Inactive)
REMARK    1  A    between atoms: N_5  and  C_8 
REMARK    2  A    between atoms: C_11  and  C_21 
REMARK    3  A    between atoms: C_12  and  N_14 
REMARK    4  A    between atoms: N_14  and  C_15 
REMARK       I    between atoms: C_21  and  N_23 
REMARK    5  A    between atoms: N_23  and  C_24 
REMARK    6  A    between atoms: C_27  and  C_34 
REMARK    7  A    between atoms: C_34  and  C_35 
ROOT
HETATM    1  C   UNK N   1      27.313  15.028   2.868  0.00  0.00     0.259 C 
HETATM    2  O   UNK N   1      27.358  15.107   1.648  0.00  0.00    -0.267 OA
HETATM    3  N   UNK N   1      28.358  14.541   3.561  0.00  0.00    -0.307 N 
HETATM    4  H   UNK N   1      28.341  14.631   4.541  0.00  0.00     0.170 HD
ENDROOT
BRANCH   1   5
HETATM    5  C   UNK N   1      26.065  15.305   3.617  0.00  0.00     0.058 A 
HETATM    6  C   UNK N   1      25.063  14.321   3.633  0.00  0.00     0.022 A 
HETATM    7  C   UNK N   1      23.867  14.528   4.314  0.00  0.00     0.030 A 
HETATM    8  C   UNK N   1      23.658  15.718   5.021  0.00  0.00     0.032 A 
HETATM    9  C   UNK N   1      24.653  16.708   5.000  0.00  0.00     0.059 A 
HETATM   10  C   UNK N   1      25.839  16.520   4.285  0.00  0.00     0.046 A 
BRANCH   8  11
HETATM   11  N   UNK N   1      22.477  15.902   5.796  0.00  0.00    -0.377 N 
HETATM   12  C   UNK N   1      21.978  17.235   6.084  0.00  0.00     0.153 C 
HETATM   13  C   UNK N   1      20.717  17.161   6.942  0.00  0.00     0.291 C 
HETATM   14  N   UNK N   1      20.929  16.251   8.071  0.00  0.00     0.087 N 
HETATM   15  C   UNK N   1      19.678  16.180   8.803  0.00  0.00     0.310 C 
HETATM   16  C   UNK N   1      21.259  14.875   7.661  0.00  0.00     0.291 C 
HETATM   17  C   UNK N   1      21.700  14.748   6.203  0.00  0.00     0.153 C 
ENDBRANCH   8  11
BRANCH  10  18
HETATM   18  N   UNK N   1      26.824  17.530   4.276  0.00  0.00    -0.384 N 
HETATM   19  H   UNK N   1      27.552  17.501   3.615  0.00  0.00     0.160 HD
BRANCH  18  20
HETATM   20  C   UNK N   1      26.763  18.598   5.230  0.00  0.00     0.085 C 
HETATM   21  C   UNK N   1      27.955  18.541   6.172  0.00  0.00     0.051 C 
HETATM   22  C   UNK N   1      27.832  19.728   7.124  0.00  0.00     0.169 C 
HETATM   23  O   UNK N   1      27.881  20.927   6.388  0.00  0.00    -0.391 OA
HETATM   24  C   UNK N   1      26.681  21.015   5.655  0.00  0.00     0.169 C 
HETATM   25  C   UNK N   1      26.676  19.960   4.551  0.00  0.00     0.051 C 
ENDBRANCH  18  20
ENDBRANCH  10  18
ENDBRANCH   1   5
BRANCH   3  26
HETATM   26  C   UNK N   1      29.468  13.912   2.980  0.00  0.00     0.135 A 
HETATM   27  C   UNK N   1      30.676  14.491   2.998  0.00  0.00     0.038 A 
HETATM   28  C   UNK N   1      31.045  15.731   3.471  0.00  0.00     0.025 A 
HETATM   29  C   UNK N   1      31.548  13.556   2.564  0.00  0.00     0.062 A 
HETATM   30  C   UNK N   1      32.403  16.030   3.500  0.00  0.00    -0.053 A 
HETATM   31  C   UNK N   1      33.350  15.065   3.047  0.00  0.00     0.010 A 
HETATM   32  C   UNK N   1      32.918  13.805   2.555  0.00  0.00     0.032 A 
HETATM   33  N   UNK N   1      30.875  12.420   2.272  0.00  0.00    -0.298 N 
HETATM   34  N   UNK N   1      29.586  12.632   2.553  0.00  0.00    -0.284 N 
HETATM   35  H   UNK N   1      31.265  11.587   1.918  0.00  0.00     0.187 HD
ATOM     36  HN  UNK N   1      28.829  11.954   2.462  1.00  0.00     0.188 HD
BRANCH  30  37
HETATM   37  C   UNK N   1      32.808  17.313   4.154  0.00  0.00     0.077 C 
BRANCH  37  38
HETATM   38  C   UNK N   1      32.705  17.369   5.640  0.00  0.00    -0.048 A 
HETATM   39  C   UNK N   1      33.841  17.713   6.379  0.00  0.00     0.049 A 
HETATM   40  C   UNK N   1      33.756  17.869   7.765  0.00  0.00     0.119 A 
HETATM   41  C   UNK N   1      32.528  17.695   8.412  0.00  0.00     0.084 A 
HETATM   42  F   UNK N   1      34.856  18.211   8.477  0.00  0.00    -0.206 F 
HETATM   43  C   UNK N   1      31.391  17.358   7.673  0.00  0.00     0.119 A 
HETATM   44  C   UNK N   1      31.478  17.201   6.292  0.00  0.00     0.049 A 
HETATM   45  F   UNK N   1      30.196  17.205   8.292  0.00  0.00    -0.206 F 
ENDBRANCH  37  38
ENDBRANCH  30  37
ENDBRANCH   3  26
TORSDOF 7
ENDMDL
