REMARK  26 active torsions:
REMARK  status: ('A' for Active; 'I' for Inactive)
REMARK    1  A    between atoms: C_2  and  C_3 
REMARK    2  A    between atoms: C_3  and  C_4 
REMARK    3  A    between atoms: C_4  and  C_5 
REMARK    4  A    between atoms: C_5  and  C_6 
REMARK    5  A    between atoms: C_6  and  C_7 
REMARK    6  A    between atoms: C_7  and  C_8 
REMARK    7  A    between atoms: C_8  and  C_9 
REMARK    8  A    between atoms: C_9  and  C_10 
REMARK    9  A    between atoms: C_10  and  C_11 
REMARK   10  A    between atoms: C_11  and  C_12 
REMARK   11  A    between atoms: C_12  and  C_13 
REMARK   12  A    between atoms: C_13  and  C_14 
REMARK   13  A    between atoms: C_14  and  C_15 
REMARK   14  A    between atoms: C_15  and  C_16 
REMARK   15  A    between atoms: C_16  and  C_17 
REMARK   16  A    between atoms: C_17  and  C_18 
REMARK   17  A    between atoms: C_18  and  C_19 
REMARK   18  A    between atoms: C_19  and  C_20 
REMARK       I    between atoms: C_20  and  N_22 
REMARK   19  A    between atoms: C_23  and  N_22 
REMARK   20  A    between atoms: C_30  and  O_49 
REMARK   21  A    between atoms: C_34  and  O_48 
REMARK   22  A    between atoms: C_39  and  C_40 
REMARK   23  A    between atoms: C_40  and  C_42 
REMARK   24  A    between atoms: C_42  and  C_43 
REMARK   25  A    between atoms: C_43  and  C_44 
REMARK   26  A    between atoms: C_44  and  O_46 
ROOT
HETATM    1  C   UNK N   1       3.320 -12.502  -1.248  0.00  0.00     0.084 C 
HETATM    2  C   UNK N   1       4.738 -11.996  -1.476  0.00  0.00     0.026 C 
HETATM    3  C   UNK N   1       5.591 -12.288  -0.248  0.00  0.00     0.012 C 
HETATM    4  C   UNK N   1       5.642 -13.786   0.074  0.00  0.00    -0.036 C 
HETATM    5  C   UNK N   1       4.216 -14.375   0.160  0.00  0.00    -0.002 C 
HETATM    6  C   UNK N   1       3.345 -14.019  -1.044  0.00  0.00     0.030 C 
HETATM    7  C   UNK N   1       4.233 -15.892   0.378  0.00  0.00     0.037 C 
HETATM    8  C   UNK N   1       5.034 -16.583  -0.725  0.00  0.00     0.123 C 
HETATM    9  C   UNK N   1       6.489 -16.076  -0.780  0.00  0.00     0.024 C 
HETATM   10  C   UNK N   1       6.459 -14.565  -1.019  0.00  0.00     0.003 C 
HETATM   11  C   UNK N   1       7.888 -14.090  -1.316  0.00  0.00     0.038 C 
HETATM   12  C   UNK N   1       8.853 -14.350  -0.159  0.00  0.00     0.127 C 
HETATM   13  C   UNK N   1       8.739 -15.780   0.457  0.00  0.00    -0.010 C 
HETATM   14  C   UNK N   1       7.317 -16.376   0.491  0.00  0.00     0.003 C 
HETATM   15  C   UNK N   1       7.546 -17.879   0.632  0.00  0.00     0.006 C 
HETATM   16  C   UNK N   1       8.954 -18.160   0.120  0.00  0.00     0.006 C 
HETATM   17  C   UNK N   1       9.518 -16.822  -0.355  0.00  0.00     0.000 C 
HETATM   18  C   UNK N   1       9.260 -15.755   1.903  0.00  0.00     0.018 C 
HETATM   19  C   UNK N   1       6.212 -13.886   1.482  0.00  0.00     0.016 C 
ENDROOT
BRANCH   1  20
HETATM   20  N   UNK N   1       2.683 -11.728  -0.189  0.00  0.00    -0.356 N 
HETATM   21  C   UNK N   1       1.954 -12.175   0.869  0.00  0.00     0.217 C 
HETATM   22  O   UNK N   1       1.733 -13.365   1.046  0.00  0.00    -0.274 OA
HETATM   23  H   UNK N   1       2.795 -10.752  -0.248  0.00  0.00     0.162 HD
BRANCH  21  24
HETATM   24  C   UNK N   1       1.293 -11.170   1.745  0.00  0.00     0.103 C 
BRANCH  24  25
HETATM   25  C   UNK N   1      -0.187 -11.071   1.390  0.00  0.00     0.009 C 
BRANCH  25  26
HETATM   26  C   UNK N   1      -0.419 -10.495  -0.013  0.00  0.00     0.000 C 
BRANCH  26  27
HETATM   27  C   UNK N   1      -0.145 -11.508  -1.127  0.00  0.00     0.000 C 
BRANCH  27  28
HETATM   28  C   UNK N   1      -1.360 -12.349  -1.494  0.00  0.00     0.000 C 
BRANCH  28  29
HETATM   29  C   UNK N   1      -1.677 -13.397  -0.441  0.00  0.00     0.000 C 
BRANCH  29  30
HETATM   30  C   UNK N   1      -2.544 -12.785   0.640  0.00  0.00     0.000 C 
BRANCH  30  31
HETATM   31  C   UNK N   1      -3.096 -13.875   1.530  0.00  0.00     0.000 C 
BRANCH  31  32
HETATM   32  C   UNK N   1      -4.614 -13.907   1.449  0.00  0.00     0.000 C 
BRANCH  32  33
HETATM   33  C   UNK N   1      -5.097 -14.358   0.075  0.00  0.00     0.000 C 
BRANCH  33  34
HETATM   34  C   UNK N   1      -5.224 -13.173  -0.876  0.00  0.00     0.000 C 
BRANCH  34  35
HETATM   35  C   UNK N   1      -6.648 -12.636  -0.930  0.00  0.00     0.000 C 
BRANCH  35  36
HETATM   36  C   UNK N   1      -7.010 -11.834   0.313  0.00  0.00     0.000 C 
BRANCH  36  37
HETATM   37  C   UNK N   1      -7.518 -12.735   1.433  0.00  0.00     0.000 C 
BRANCH  37  38
HETATM   38  C   UNK N   1      -8.999 -13.046   1.285  0.00  0.00     0.000 C 
BRANCH  38  39
HETATM   39  C   UNK N   1      -9.245 -14.036   0.158  0.00  0.00     0.000 C 
BRANCH  39  40
HETATM   40  C   UNK N   1     -10.164 -13.430  -0.890  0.00  0.00    -0.000 C 
BRANCH  40  41
HETATM   41  C   UNK N   1     -11.606 -13.437  -0.411  0.00  0.00    -0.005 C 
HETATM   42  C   UNK N   1     -12.019 -12.041   0.010  0.00  0.00     0.005 C 
ENDBRANCH  40  41
ENDBRANCH  39  40
ENDBRANCH  38  39
ENDBRANCH  37  38
ENDBRANCH  36  37
ENDBRANCH  35  36
ENDBRANCH  34  35
ENDBRANCH  33  34
ENDBRANCH  32  33
ENDBRANCH  31  32
ENDBRANCH  30  31
ENDBRANCH  29  30
ENDBRANCH  28  29
ENDBRANCH  27  28
ENDBRANCH  26  27
ENDBRANCH  25  26
ENDBRANCH  24  25
ENDBRANCH  21  24
ENDBRANCH   1  20
BRANCH   8  43
HETATM   43  O   UNK N   1       4.967 -17.968  -0.581  0.00  0.00    -0.395 OA
HETATM   44  H   UNK N   1       4.110 -18.410  -0.481  0.00  0.00     0.210 HD
ENDBRANCH   8  43
BRANCH  12  45
HETATM   45  O   UNK N   1       8.753 -13.320   0.778  0.00  0.00    -0.395 OA
HETATM   46  H   UNK N   1       9.338 -12.902   1.430  0.00  0.00     0.210 HD
ENDBRANCH  12  45
BRANCH  17  47
HETATM   47  C   UNK N   1      11.044 -16.733  -0.143  0.00  0.00    -0.013 C 
HETATM   48  C   UNK N   1      11.629 -15.472  -0.755  0.00  0.00     0.010 C 
BRANCH  47  49
HETATM   49  C   UNK N   1      11.790 -17.951  -0.666  0.00  0.00     0.015 C 
BRANCH  49  50
HETATM   50  C   UNK N   1      12.889 -18.348   0.312  0.00  0.00     0.110 C 
BRANCH  50  51
HETATM   51  C   UNK N   1      14.217 -17.788  -0.083  0.00  0.00     0.139 C 
HETATM   52  O   UNK N   1      14.411 -16.584  -0.067  0.00  0.00    -0.650 OA
BRANCH  51  53
HETATM   53  O   UNK N   1      15.212 -18.623  -0.432  0.00  0.00    -0.776 OA
HETATM   54  H   UNK N   1      15.056 -19.514  -0.675  0.00  0.00     0.167 HD
ENDBRANCH  51  53
ENDBRANCH  50  51
ENDBRANCH  49  50
ENDBRANCH  47  49
ENDBRANCH  17  47
TORSDOF 26
