REMARK  6 active torsions:
REMARK  status: ('A' for Active; 'I' for Inactive)
REMARK    1  A    between atoms: C_2  and  C_4 
REMARK    2  A    between atoms: C_2  and  C_15 
REMARK       I    between atoms: C_4  and  N_6 
REMARK    3  A    between atoms: N_6  and  C_7 
REMARK    4  A    between atoms: C_7  and  C_8 
REMARK    5  A    between atoms: C_8  and  C_9 
REMARK       I    between atoms: C_15  and  N_17 
REMARK    6  A    between atoms: C_18  and  N_17 
ROOT
HETATM    1  C   UNK N   1       4.314   5.185   0.440  0.00  0.00     0.235 C 
HETATM    2  O   UNK N   1       4.398   6.053   1.292  0.00  0.00    -0.272 OA
HETATM    3  N   UNK N   1       3.469   4.138   0.693  0.00  0.00    -0.343 N 
HETATM    4  H   UNK N   1       3.091   4.079   1.601  0.00  0.00     0.163 HD
ENDROOT
BRANCH   3   5
HETATM    5  C   UNK N   1       3.080   3.113  -0.245  0.00  0.00     0.211 C 
HETATM    6  C   UNK N   1       3.605   1.741  -0.054  0.00  0.00    -0.015 A 
HETATM    7  C   UNK N   1       4.999   1.584  -0.081  0.00  0.00     0.011 A 
HETATM    8  C   UNK N   1       2.777   0.624   0.203  0.00  0.00    -0.015 A 
HETATM    9  C   UNK N   1       5.594   0.347   0.135  0.00  0.00     0.001 A 
HETATM   10  C   UNK N   1       4.798  -0.757   0.401  0.00  0.00     0.001 A 
HETATM   11  C   UNK N   1       3.413  -0.617   0.439  0.00  0.00     0.013 A 
HETATM   12  C   UNK N   1       1.271   0.642   0.269  0.00  0.00     0.002 A 
HETATM   13  C   UNK N   1       0.683  -0.492   0.876  0.00  0.00     0.014 A 
HETATM   14  C   UNK N   1       0.379   1.643  -0.258  0.00  0.00     0.045 A 
HETATM   15  C   UNK N   1      -0.693  -0.650   0.990  0.00  0.00     0.001 A 
HETATM   16  C   UNK N   1      -1.539   0.324   0.489  0.00  0.00     0.002 A 
HETATM   17  C   UNK N   1      -1.005   1.446  -0.135  0.00  0.00     0.030 A 
HETATM   18  N   UNK N   1       0.753   2.788  -1.018  0.00  0.00    -0.324 N 
HETATM   19  C   UNK N   1       1.932   3.431  -1.117  0.00  0.00     0.249 C 
HETATM   20  H   UNK N   1       0.029   3.174  -1.561  0.00  0.00     0.169 HD
HETATM   21  O   UNK N   1       2.030   4.362  -1.899  0.00  0.00    -0.270 OA
ENDBRANCH   3   5
BRANCH   1  22
HETATM   22  C   UNK N   1       5.167   5.340  -0.847  0.00  0.00     0.114 C 
HETATM   23  C   UNK N   1       4.453   6.247  -1.839  0.00  0.00     0.035 C 
HETATM   24  C   UNK N   1       5.374   4.042  -1.612  0.00  0.00     0.035 C 
BRANCH  22  25
HETATM   25  C   UNK N   1       6.551   5.914  -0.485  0.00  0.00     0.235 C 
HETATM   26  O   UNK N   1       7.539   5.192  -0.546  0.00  0.00    -0.272 OA
HETATM   27  N   UNK N   1       6.721   7.202  -0.079  0.00  0.00    -0.354 N 
HETATM   28  H   UNK N   1       7.606   7.482   0.251  0.00  0.00     0.162 HD
BRANCH  27  29
HETATM   29  C   UNK N   1       5.654   8.173  -0.114  0.00  0.00     0.211 C 
BRANCH  29  30
HETATM   30  C   UNK N   1       5.983   9.442   0.648  0.00  0.00     0.354 C 
HETATM   31  F   UNK N   1       6.011   9.165   2.004  0.00  0.00    -0.194 F 
HETATM   32  F   UNK N   1       7.216   9.933   0.254  0.00  0.00    -0.194 F 
BRANCH  30  33
HETATM   33  C   UNK N   1       4.898  10.477   0.348  0.00  0.00     0.456 C 
HETATM   34  F   UNK N   1       4.891  10.772  -1.006  0.00  0.00    -0.165 F 
HETATM   35  F   UNK N   1       3.654   9.985   0.707  0.00  0.00    -0.165 F 
HETATM   36  F   UNK N   1       5.144  11.637   1.056  0.00  0.00    -0.165 F 
ENDBRANCH  30  33
ENDBRANCH  29  30
ENDBRANCH  27  29
ENDBRANCH  22  25
ENDBRANCH   1  22
TORSDOF 6
