MODEL 1
REMARK VINA RESULT:      -4.6      0.000      0.000
REMARK  4 active torsions:
REMARK  status: ('A' for Active; 'I' for Inactive)
REMARK    1  A    between atoms: C_6  and  C_2 
REMARK    2  A    between atoms: C_8  and  C_6 
REMARK    3  A    between atoms: N_11  and  C_6 
REMARK    4  A    between atoms: O_13  and  C_8 
ROOT
HETATM    1  C   UNK N   1      35.625  12.413  15.684  0.00  0.00     0.161 C 
ENDROOT
BRANCH   1   2
HETATM    2  C   UNK N   1      34.574  12.106  14.582  0.00  0.00     0.029 C 
HETATM    3  C   UNK N   1      33.743  10.847  14.555  0.00  0.00     0.007 C 
ENDBRANCH   1   2
BRANCH   1   4
HETATM    4  C   UNK N   1      36.943  12.927  15.097  0.00  0.00     0.132 C 
HETATM    5  N   UNK N   1      37.630  12.238  14.264  0.00  0.00    -0.382 N 
HETATM    6  H   UNK N   1      38.474  12.598  13.905  0.00  0.00     0.158 HD
ATOM      7  HN  UNK N   1      37.304  11.318  13.971  1.00  0.00     0.158 HD
BRANCH   4   8
HETATM    8  O   UNK N   1      37.403  14.139  15.463  0.00  0.00    -0.348 OA
HETATM    9  H   UNK N   1      36.837  14.885  15.430  0.00  0.00     0.219 HD
ENDBRANCH   4   8
ENDBRANCH   1   4
BRANCH   1  10
HETATM   10  N   UNK N   1      35.484  12.266  17.158  0.00  0.00    -0.340 N 
HETATM   11  C   UNK N   1      35.501  10.964  17.770  0.00  0.00     0.127 A 
HETATM   12  C   UNK N   1      35.335  11.192  19.274  0.00  0.00     0.029 A 
HETATM   13  C   UNK N   1      35.223  12.699  19.481  0.00  0.00     0.104 A 
HETATM   14  C   UNK N   1      35.331  13.219  18.104  0.00  0.00     0.220 A 
HETATM   15  O   UNK N   1      35.282  14.412  17.880  0.00  0.00    -0.273 OA
ENDBRANCH   1  10
TORSDOF 4
ENDMDL
MODEL 2
REMARK VINA RESULT:      -4.6     16.912     17.833
REMARK  4 active torsions:
REMARK  status: ('A' for Active; 'I' for Inactive)
REMARK    1  A    between atoms: C_6  and  C_2 
REMARK    2  A    between atoms: C_8  and  C_6 
REMARK    3  A    between atoms: N_11  and  C_6 
REMARK    4  A    between atoms: O_13  and  C_8 
ROOT
HETATM    1  C   UNK N   1      43.827  20.953   3.347  0.00  0.00     0.161 C 
ENDROOT
BRANCH   1   2
HETATM    2  C   UNK N   1      44.731  19.718   3.080  0.00  0.00     0.029 C 
HETATM    3  C   UNK N   1      44.196  18.320   2.899  0.00  0.00     0.007 C 
ENDBRANCH   1   2
BRANCH   1   4
HETATM    4  C   UNK N   1      44.497  21.969   4.277  0.00  0.00     0.132 C 
HETATM    5  N   UNK N   1      45.733  22.285   4.160  0.00  0.00    -0.382 N 
HETATM    6  H   UNK N   1      46.133  22.942   4.774  0.00  0.00     0.158 HD
ATOM      7  HN  UNK N   1      46.303  21.855   3.432  1.00  0.00     0.158 HD
BRANCH   4   8
HETATM    8  O   UNK N   1      43.773  22.555   5.250  0.00  0.00    -0.348 OA
HETATM    9  H   UNK N   1      42.988  23.019   5.036  0.00  0.00     0.219 HD
ENDBRANCH   4   8
ENDBRANCH   1   4
BRANCH   1  10
HETATM   10  N   UNK N   1      42.462  21.226   2.822  0.00  0.00    -0.340 N 
HETATM   11  C   UNK N   1      42.237  22.295   1.884  0.00  0.00     0.127 A 
HETATM   12  C   UNK N   1      40.741  22.284   1.567  0.00  0.00     0.029 A 
HETATM   13  C   UNK N   1      40.127  21.147   2.378  0.00  0.00     0.104 A 
HETATM   14  C   UNK N   1      41.297  20.597   3.090  0.00  0.00     0.220 A 
HETATM   15  O   UNK N   1      41.181  19.654   3.848  0.00  0.00    -0.273 OA
ENDBRANCH   1  10
TORSDOF 4
ENDMDL
MODEL 3
REMARK VINA RESULT:      -4.6      2.272      2.932
REMARK  4 active torsions:
REMARK  status: ('A' for Active; 'I' for Inactive)
REMARK    1  A    between atoms: C_6  and  C_2 
REMARK    2  A    between atoms: C_8  and  C_6 
REMARK    3  A    between atoms: N_11  and  C_6 
REMARK    4  A    between atoms: O_13  and  C_8 
ROOT
HETATM    1  C   UNK N   1      36.208  13.154  14.456  0.00  0.00     0.161 C 
ENDROOT
BRANCH   1   2
HETATM    2  C   UNK N   1      36.796  11.774  14.054  0.00  0.00     0.029 C 
HETATM    3  C   UNK N   1      37.335  10.779  15.051  0.00  0.00     0.007 C 
ENDBRANCH   1   2
BRANCH   1   4
HETATM    4  C   UNK N   1      35.709  13.945  13.243  0.00  0.00     0.132 C 
HETATM    5  N   UNK N   1      36.350  14.952  12.779  0.00  0.00    -0.382 N 
HETATM    6  H   UNK N   1      36.002  15.439  11.997  0.00  0.00     0.158 HD
ATOM      7  HN  UNK N   1      37.221  15.250  13.218  1.00  0.00     0.158 HD
BRANCH   4   8
HETATM    8  O   UNK N   1      34.562  13.579  12.639  0.00  0.00    -0.348 OA
HETATM    9  H   UNK N   1      34.341  13.931  11.800  0.00  0.00     0.219 HD
ENDBRANCH   4   8
ENDBRANCH   1   4
BRANCH   1  10
HETATM   10  N   UNK N   1      36.090  13.745  15.818  0.00  0.00    -0.340 N 
HETATM   11  C   UNK N   1      35.140  13.220  16.765  0.00  0.00     0.127 A 
HETATM   12  C   UNK N   1      35.293  14.057  18.037  0.00  0.00     0.029 A 
HETATM   13  C   UNK N   1      36.384  15.086  17.758  0.00  0.00     0.104 A 
HETATM   14  C   UNK N   1      36.772  14.772  16.369  0.00  0.00     0.220 A 
HETATM   15  O   UNK N   1      37.639  15.408  15.803  0.00  0.00    -0.273 OA
ENDBRANCH   1  10
TORSDOF 4
ENDMDL
MODEL 4
REMARK VINA RESULT:      -4.5      7.603      8.997
REMARK  4 active torsions:
REMARK  status: ('A' for Active; 'I' for Inactive)
REMARK    1  A    between atoms: C_6  and  C_2 
REMARK    2  A    between atoms: C_8  and  C_6 
REMARK    3  A    between atoms: N_11  and  C_6 
REMARK    4  A    between atoms: O_13  and  C_8 
ROOT
HETATM    1  C   UNK N   1      33.548  16.992   8.366  0.00  0.00     0.161 C 
ENDROOT
BRANCH   1   2
HETATM    2  C   UNK N   1      32.270  17.872   8.306  0.00  0.00     0.029 C 
HETATM    3  C   UNK N   1      30.889  17.354   8.622  0.00  0.00     0.007 C 
ENDBRANCH   1   2
BRANCH   1   4
HETATM    4  C   UNK N   1      34.229  16.869   6.999  0.00  0.00     0.132 C 
HETATM    5  N   UNK N   1      34.829  15.798   6.633  0.00  0.00    -0.382 N 
HETATM    6  H   UNK N   1      35.257  15.752   5.747  0.00  0.00     0.158 HD
ATOM      7  HN  UNK N   1      34.864  14.994   7.258  1.00  0.00     0.158 HD
BRANCH   4   8
HETATM    8  O   UNK N   1      34.201  17.914   6.149  0.00  0.00    -0.348 OA
HETATM    9  H   UNK N   1      33.808  17.820   5.304  0.00  0.00     0.219 HD
ENDBRANCH   4   8
ENDBRANCH   1   4
BRANCH   1  10
HETATM   10  N   UNK N   1      34.138  16.301   9.545  0.00  0.00    -0.340 N 
HETATM   11  C   UNK N   1      33.645  15.015   9.963  0.00  0.00     0.127 A 
HETATM   12  C   UNK N   1      34.471  14.614  11.188  0.00  0.00     0.029 A 
HETATM   13  C   UNK N   1      35.461  15.746  11.441  0.00  0.00     0.104 A 
HETATM   14  C   UNK N   1      35.137  16.700  10.361  0.00  0.00     0.220 A 
HETATM   15  O   UNK N   1      35.743  17.747  10.249  0.00  0.00    -0.273 OA
ENDBRANCH   1  10
TORSDOF 4
ENDMDL
MODEL 5
REMARK VINA RESULT:      -4.5     13.488     15.245
REMARK  4 active torsions:
REMARK  status: ('A' for Active; 'I' for Inactive)
REMARK    1  A    between atoms: C_6  and  C_2 
REMARK    2  A    between atoms: C_8  and  C_6 
REMARK    3  A    between atoms: N_11  and  C_6 
REMARK    4  A    between atoms: O_13  and  C_8 
ROOT
HETATM    1  C   UNK N   1      23.144  12.221   9.988  0.00  0.00     0.161 C 
ENDROOT
BRANCH   1   2
HETATM    2  C   UNK N   1      23.890  11.296   8.988  0.00  0.00     0.029 C 
HETATM    3  C   UNK N   1      23.329  10.900   7.646  0.00  0.00     0.007 C 
ENDBRANCH   1   2
BRANCH   1   4
HETATM    4  C   UNK N   1      23.644  12.041  11.424  0.00  0.00     0.132 C 
HETATM    5  N   UNK N   1      22.882  11.613  12.361  0.00  0.00    -0.382 N 
HETATM    6  H   UNK N   1      23.235  11.509  13.274  0.00  0.00     0.158 HD
ATOM      7  HN  UNK N   1      21.910  11.380  12.161  1.00  0.00     0.158 HD
BRANCH   4   8
HETATM    8  O   UNK N   1      24.924  12.340  11.723  0.00  0.00    -0.348 OA
HETATM    9  H   UNK N   1      25.117  12.902  12.447  0.00  0.00     0.219 HD
ENDBRANCH   4   8
ENDBRANCH   1   4
BRANCH   1  10
HETATM   10  N   UNK N   1      22.061  13.201   9.705  0.00  0.00    -0.340 N 
HETATM   11  C   UNK N   1      22.264  14.267   8.758  0.00  0.00     0.127 A 
HETATM   12  C   UNK N   1      20.961  15.067   8.721  0.00  0.00     0.029 A 
HETATM   13  C   UNK N   1      20.004  14.394   9.701  0.00  0.00     0.104 A 
HETATM   14  C   UNK N   1      20.815  13.276  10.221  0.00  0.00     0.220 A 
HETATM   15  O   UNK N   1      20.362  12.506  11.046  0.00  0.00    -0.273 OA
ENDBRANCH   1  10
TORSDOF 4
ENDMDL
MODEL 6
REMARK VINA RESULT:      -4.5      9.741     11.747
REMARK  4 active torsions:
REMARK  status: ('A' for Active; 'I' for Inactive)
REMARK    1  A    between atoms: C_6  and  C_2 
REMARK    2  A    between atoms: C_8  and  C_6 
REMARK    3  A    between atoms: N_11  and  C_6 
REMARK    4  A    between atoms: O_13  and  C_8 
ROOT
HETATM    1  C   UNK N   1      31.825  17.470   8.097  0.00  0.00     0.161 C 
ENDROOT
BRANCH   1   2
HETATM    2  C   UNK N   1      30.794  18.359   8.846  0.00  0.00     0.029 C 
HETATM    3  C   UNK N   1      29.449  17.860   9.308  0.00  0.00     0.007 C 
ENDBRANCH   1   2
BRANCH   1   4
HETATM    4  C   UNK N   1      32.625  16.583   9.056  0.00  0.00     0.132 C 
HETATM    5  N   UNK N   1      32.168  15.468   9.492  0.00  0.00    -0.382 N 
HETATM    6  H   UNK N   1      32.708  14.921  10.107  0.00  0.00     0.158 HD
ATOM      7  HN  UNK N   1      31.244  15.147   9.202  1.00  0.00     0.158 HD
BRANCH   4   8
HETATM    8  O   UNK N   1      33.849  16.977   9.458  0.00  0.00    -0.348 OA
HETATM    9  H   UNK N   1      34.281  17.684   9.021  0.00  0.00     0.219 HD
ENDBRANCH   4   8
ENDBRANCH   1   4
BRANCH   1  10
HETATM   10  N   UNK N   1      32.093  17.400   6.635  0.00  0.00    -0.340 N 
HETATM   11  C   UNK N   1      31.033  17.099   5.709  0.00  0.00     0.127 A 
HETATM   12  C   UNK N   1      31.662  17.111   4.314  0.00  0.00     0.029 A 
HETATM   13  C   UNK N   1      33.141  17.436   4.501  0.00  0.00     0.104 A 
HETATM   14  C   UNK N   1      33.252  17.585   5.966  0.00  0.00     0.220 A 
HETATM   15  O   UNK N   1      34.315  17.852   6.489  0.00  0.00    -0.273 OA
ENDBRANCH   1  10
TORSDOF 4
ENDMDL
MODEL 7
REMARK VINA RESULT:      -4.4     22.892     24.638
REMARK  4 active torsions:
REMARK  status: ('A' for Active; 'I' for Inactive)
REMARK    1  A    between atoms: C_6  and  C_2 
REMARK    2  A    between atoms: C_8  and  C_6 
REMARK    3  A    between atoms: N_11  and  C_6 
REMARK    4  A    between atoms: O_13  and  C_8 
ROOT
HETATM    1  C   UNK N   1      29.788  24.113  -3.547  0.00  0.00     0.161 C 
ENDROOT
BRANCH   1   2
HETATM    2  C   UNK N   1      30.948  25.142  -3.628  0.00  0.00     0.029 C 
HETATM    3  C   UNK N   1      30.755  26.627  -3.454  0.00  0.00     0.007 C 
ENDBRANCH   1   2
BRANCH   1   4
HETATM    4  C   UNK N   1      30.162  22.886  -2.711  0.00  0.00     0.132 C 
HETATM    5  N   UNK N   1      30.276  21.720  -3.229  0.00  0.00    -0.382 N 
HETATM    6  H   UNK N   1      30.518  20.951  -2.664  0.00  0.00     0.158 HD
ATOM      7  HN  UNK N   1      30.117  21.587  -4.227  1.00  0.00     0.158 HD
BRANCH   4   8
HETATM    8  O   UNK N   1      30.380  23.026  -1.389  0.00  0.00    -0.348 OA
HETATM    9  H   UNK N   1      30.675  23.846  -1.046  0.00  0.00     0.219 HD
ENDBRANCH   4   8
ENDBRANCH   1   4
BRANCH   1  10
HETATM   10  N   UNK N   1      28.435  24.199  -4.162  0.00  0.00    -0.340 N 
HETATM   11  C   UNK N   1      28.285  24.336  -5.587  0.00  0.00     0.127 A 
HETATM   12  C   UNK N   1      26.780  24.392  -5.859  0.00  0.00     0.029 A 
HETATM   13  C   UNK N   1      26.084  24.279  -4.507  0.00  0.00     0.104 A 
HETATM   14  C   UNK N   1      27.221  24.167  -3.571  0.00  0.00     0.220 A 
HETATM   15  O   UNK N   1      27.038  24.058  -2.375  0.00  0.00    -0.273 OA
ENDBRANCH   1  10
TORSDOF 4
ENDMDL
MODEL 8
REMARK VINA RESULT:      -4.4     26.007     27.582
REMARK  4 active torsions:
REMARK  status: ('A' for Active; 'I' for Inactive)
REMARK    1  A    between atoms: C_6  and  C_2 
REMARK    2  A    between atoms: C_8  and  C_6 
REMARK    3  A    between atoms: N_11  and  C_6 
REMARK    4  A    between atoms: O_13  and  C_8 
ROOT
HETATM    1  C   UNK N   1      26.821  27.806  -4.863  0.00  0.00     0.161 C 
ENDROOT
BRANCH   1   2
HETATM    2  C   UNK N   1      27.415  28.773  -5.923  0.00  0.00     0.029 C 
HETATM    3  C   UNK N   1      27.988  28.312  -7.239  0.00  0.00     0.007 C 
ENDBRANCH   1   2
BRANCH   1   4
HETATM    4  C   UNK N   1      26.097  28.553  -3.740  0.00  0.00     0.132 C 
HETATM    5  N   UNK N   1      26.069  29.833  -3.684  0.00  0.00    -0.382 N 
HETATM    6  H   UNK N   1      25.594  30.283  -2.948  0.00  0.00     0.158 HD
ATOM      7  HN  UNK N   1      26.537  30.386  -4.401  1.00  0.00     0.158 HD
BRANCH   4   8
HETATM    8  O   UNK N   1      25.467  27.853  -2.776  0.00  0.00    -0.348 OA
HETATM    9  H   UNK N   1      25.060  28.301  -2.061  0.00  0.00     0.219 HD
ENDBRANCH   4   8
ENDBRANCH   1   4
BRANCH   1  10
HETATM   10  N   UNK N   1      26.884  26.319  -4.834  0.00  0.00    -0.340 N 
HETATM   11  C   UNK N   1      28.039  25.643  -4.304  0.00  0.00     0.127 A 
HETATM   12  C   UNK N   1      27.760  24.145  -4.432  0.00  0.00     0.029 A 
HETATM   13  C   UNK N   1      26.380  24.007  -5.066  0.00  0.00     0.104 A 
HETATM   14  C   UNK N   1      25.973  25.414  -5.253  0.00  0.00     0.220 A 
HETATM   15  O   UNK N   1      24.898  25.694  -5.747  0.00  0.00    -0.273 OA
ENDBRANCH   1  10
TORSDOF 4
ENDMDL
MODEL 9
REMARK VINA RESULT:      -4.4      7.538      8.935
REMARK  4 active torsions:
REMARK  status: ('A' for Active; 'I' for Inactive)
REMARK    1  A    between atoms: C_6  and  C_2 
REMARK    2  A    between atoms: C_8  and  C_6 
REMARK    3  A    between atoms: N_11  and  C_6 
REMARK    4  A    between atoms: O_13  and  C_8 
ROOT
HETATM    1  C   UNK N   1      34.444  16.628   8.193  0.00  0.00     0.161 C 
ENDROOT
BRANCH   1   2
HETATM    2  C   UNK N   1      34.542  16.055   6.753  0.00  0.00     0.029 C 
HETATM    3  C   UNK N   1      33.887  16.699   5.557  0.00  0.00     0.007 C 
ENDBRANCH   1   2
BRANCH   1   4
HETATM    4  C   UNK N   1      34.010  18.097   8.202  0.00  0.00     0.132 C 
HETATM    5  N   UNK N   1      32.777  18.441   8.173  0.00  0.00    -0.382 N 
HETATM    6  H   UNK N   1      32.532  19.395   8.180  0.00  0.00     0.158 HD
ATOM      7  HN  UNK N   1      32.048  17.728   8.143  1.00  0.00     0.158 HD
BRANCH   4   8
HETATM    8  O   UNK N   1      34.947  19.064   8.242  0.00  0.00    -0.348 OA
HETATM    9  H   UNK N   1      35.850  18.848   8.112  0.00  0.00     0.219 HD
ENDBRANCH   4   8
ENDBRANCH   1   4
BRANCH   1  10
HETATM   10  N   UNK N   1      34.712  15.933   9.482  0.00  0.00    -0.340 N 
HETATM   11  C   UNK N   1      34.175  14.621   9.734  0.00  0.00     0.127 A 
HETATM   12  C   UNK N   1      34.646  14.224  11.134  0.00  0.00     0.029 A 
HETATM   13  C   UNK N   1      35.482  15.385  11.663  0.00  0.00     0.104 A 
HETATM   14  C   UNK N   1      35.431  16.349  10.547  0.00  0.00     0.220 A 
HETATM   15  O   UNK N   1      36.002  17.419  10.618  0.00  0.00    -0.273 OA
ENDBRANCH   1  10
TORSDOF 4
ENDMDL
