MODEL 1
REMARK VINA RESULT:      -5.4      0.000      0.000
REMARK  17 active torsions:
REMARK  status: ('A' for Active; 'I' for Inactive)
REMARK    1  A    between atoms: C_2  and  C_4 
REMARK    2  A    between atoms: C_2  and  C_22 
REMARK    3  A    between atoms: C_4  and  C_5 
REMARK    4  A    between atoms: C_5  and  C_6 
REMARK    5  A    between atoms: C_6  and  C_7 
REMARK    6  A    between atoms: C_7  and  C_8 
REMARK    7  A    between atoms: C_8  and  C_9 
REMARK    8  A    between atoms: C_9  and  C_10 
REMARK    9  A    between atoms: C_9  and  O_21 
REMARK   10  A    between atoms: C_10  and  C_11 
REMARK   11  A    between atoms: C_11  and  C_12 
REMARK   12  A    between atoms: C_12  and  C_13 
REMARK   13  A    between atoms: C_13  and  C_14 
REMARK   14  A    between atoms: C_14  and  C_15 
REMARK   15  A    between atoms: C_15  and  C_18 
REMARK   16  A    between atoms: C_18  and  O_20 
REMARK   17  A    between atoms: C_22  and  O_24 
ROOT
HETATM    1  C   UNK N   1      26.426  27.300  -3.800  0.00  0.00     0.118 C 
ENDROOT
BRANCH   1   2
HETATM    2  C   UNK N   1      25.476  27.758  -4.895  0.00  0.00     0.032 C 
BRANCH   2   3
HETATM    3  C   UNK N   1      25.144  26.597  -5.816  0.00  0.00     0.002 C 
BRANCH   3   4
HETATM    4  C   UNK N   1      25.909  26.743  -7.117  0.00  0.00     0.000 C 
BRANCH   4   5
HETATM    5  C   UNK N   1      25.716  25.512  -7.984  0.00  0.00     0.001 C 
BRANCH   5   6
HETATM    6  C   UNK N   1      26.859  24.523  -7.752  0.00  0.00     0.020 C 
BRANCH   6   7
HETATM    7  C   UNK N   1      26.392  23.086  -7.484  0.00  0.00     0.038 C 
HETATM    8  C   UNK N   1      27.581  22.137  -7.532  0.00  0.00     0.026 C 
HETATM    9  C   UNK N   1      25.752  22.988  -6.107  0.00  0.00     0.026 C 
BRANCH   7  10
HETATM   10  C   UNK N   1      25.367  22.703  -8.527  0.00  0.00     0.147 C 
HETATM   11  O   UNK N   1      25.688  22.635  -9.703  0.00  0.00    -0.649 OA
BRANCH  10  12
HETATM   12  O   UNK N   1      24.093  22.434  -8.175  0.00  0.00    -0.776 OA
HETATM   13  H   UNK N   1      23.398  22.570  -8.788  0.00  0.00     0.167 HD
ENDBRANCH  10  12
ENDBRANCH   7  10
ENDBRANCH   6   7
ENDBRANCH   5   6
ENDBRANCH   4   5
ENDBRANCH   3   4
ENDBRANCH   2   3
ENDBRANCH   1   2
BRANCH   1  14
HETATM   14  C   UNK N   1      26.713  25.800  -3.882  0.00  0.00     0.032 C 
BRANCH  14  15
HETATM   15  C   UNK N   1      28.177  25.500  -4.174  0.00  0.00     0.002 C 
BRANCH  15  16
HETATM   16  C   UNK N   1      28.470  24.043  -3.866  0.00  0.00     0.000 C 
BRANCH  16  17
HETATM   17  C   UNK N   1      29.656  23.561  -4.680  0.00  0.00     0.001 C 
BRANCH  17  18
HETATM   18  C   UNK N   1      29.899  22.074  -4.419  0.00  0.00     0.020 C 
BRANCH  18  19
HETATM   19  C   UNK N   1      31.373  21.730  -4.178  0.00  0.00     0.038 C 
HETATM   20  C   UNK N   1      31.661  20.329  -4.704  0.00  0.00     0.026 C 
HETATM   21  C   UNK N   1      32.277  22.715  -4.906  0.00  0.00     0.026 C 
BRANCH  19  22
HETATM   22  C   UNK N   1      31.662  21.810  -2.696  0.00  0.00     0.147 C 
HETATM   23  O   UNK N   1      30.914  22.435  -1.961  0.00  0.00    -0.649 OA
BRANCH  22  24
HETATM   24  O   UNK N   1      32.744  21.198  -2.170  0.00  0.00    -0.776 OA
HETATM   25  H   UNK N   1      32.946  21.304  -1.261  0.00  0.00     0.167 HD
ENDBRANCH  22  24
ENDBRANCH  19  22
ENDBRANCH  18  19
ENDBRANCH  17  18
ENDBRANCH  16  17
ENDBRANCH  15  16
ENDBRANCH  14  15
ENDBRANCH   1  14
BRANCH   1  26
HETATM   26  O   UNK N   1      25.912  27.636  -2.545  0.00  0.00    -0.396 OA
HETATM   27  H   UNK N   1      25.204  27.210  -2.037  0.00  0.00     0.210 HD
ENDBRANCH   1  26
TORSDOF 17
ENDMDL
MODEL 2
REMARK VINA RESULT:      -5.4      1.661      4.167
REMARK  17 active torsions:
REMARK  status: ('A' for Active; 'I' for Inactive)
REMARK    1  A    between atoms: C_2  and  C_4 
REMARK    2  A    between atoms: C_2  and  C_22 
REMARK    3  A    between atoms: C_4  and  C_5 
REMARK    4  A    between atoms: C_5  and  C_6 
REMARK    5  A    between atoms: C_6  and  C_7 
REMARK    6  A    between atoms: C_7  and  C_8 
REMARK    7  A    between atoms: C_8  and  C_9 
REMARK    8  A    between atoms: C_9  and  C_10 
REMARK    9  A    between atoms: C_9  and  O_21 
REMARK   10  A    between atoms: C_10  and  C_11 
REMARK   11  A    between atoms: C_11  and  C_12 
REMARK   12  A    between atoms: C_12  and  C_13 
REMARK   13  A    between atoms: C_13  and  C_14 
REMARK   14  A    between atoms: C_14  and  C_15 
REMARK   15  A    between atoms: C_15  and  C_18 
REMARK   16  A    between atoms: C_18  and  O_20 
REMARK   17  A    between atoms: C_22  and  O_24 
ROOT
HETATM    1  C   UNK N   1      25.833  23.376  -8.534  0.00  0.00     0.118 C 
ENDROOT
BRANCH   1   2
HETATM    2  C   UNK N   1      25.972  24.538  -9.505  0.00  0.00     0.032 C 
BRANCH   2   3
HETATM    3  C   UNK N   1      25.884  25.856  -8.756  0.00  0.00     0.002 C 
BRANCH   3   4
HETATM    4  C   UNK N   1      27.210  26.148  -8.080  0.00  0.00     0.000 C 
BRANCH   4   5
HETATM    5  C   UNK N   1      27.034  27.211  -7.011  0.00  0.00     0.001 C 
BRANCH   5   6
HETATM    6  C   UNK N   1      27.262  26.604  -5.626  0.00  0.00     0.020 C 
BRANCH   6   7
HETATM    7  C   UNK N   1      25.978  26.431  -4.805  0.00  0.00     0.038 C 
HETATM    8  C   UNK N   1      26.179  26.991  -3.403  0.00  0.00     0.026 C 
HETATM    9  C   UNK N   1      24.827  27.179  -5.462  0.00  0.00     0.026 C 
BRANCH   7  10
HETATM   10  C   UNK N   1      25.632  24.961  -4.742  0.00  0.00     0.147 C 
HETATM   11  O   UNK N   1      24.945  24.457  -5.617  0.00  0.00    -0.649 OA
BRANCH  10  12
HETATM   12  O   UNK N   1      26.071  24.192  -3.725  0.00  0.00    -0.776 OA
HETATM   13  H   UNK N   1      26.904  23.765  -3.784  0.00  0.00     0.167 HD
ENDBRANCH  10  12
ENDBRANCH   7  10
ENDBRANCH   6   7
ENDBRANCH   5   6
ENDBRANCH   4   5
ENDBRANCH   3   4
ENDBRANCH   2   3
ENDBRANCH   1   2
BRANCH   1  14
HETATM   14  C   UNK N   1      26.650  22.161  -8.975  0.00  0.00     0.032 C 
BRANCH  14  15
HETATM   15  C   UNK N   1      27.418  21.524  -7.825  0.00  0.00     0.002 C 
BRANCH  15  16
HETATM   16  C   UNK N   1      27.805  22.590  -6.818  0.00  0.00     0.000 C 
BRANCH  16  17
HETATM   17  C   UNK N   1      29.094  22.207  -6.114  0.00  0.00     0.001 C 
BRANCH  17  18
HETATM   18  C   UNK N   1      29.447  23.259  -5.062  0.00  0.00     0.020 C 
BRANCH  18  19
HETATM   19  C   UNK N   1      30.303  22.711  -3.915  0.00  0.00     0.038 C 
HETATM   20  C   UNK N   1      30.424  21.197  -4.048  0.00  0.00     0.026 C 
HETATM   21  C   UNK N   1      31.700  23.313  -3.958  0.00  0.00     0.026 C 
BRANCH  19  22
HETATM   22  C   UNK N   1      29.656  23.077  -2.599  0.00  0.00     0.147 C 
HETATM   23  O   UNK N   1      28.482  23.410  -2.567  0.00  0.00    -0.649 OA
BRANCH  22  24
HETATM   24  O   UNK N   1      30.364  23.045  -1.450  0.00  0.00    -0.776 OA
HETATM   25  H   UNK N   1      31.298  23.115  -1.473  0.00  0.00     0.167 HD
ENDBRANCH  22  24
ENDBRANCH  19  22
ENDBRANCH  18  19
ENDBRANCH  17  18
ENDBRANCH  16  17
ENDBRANCH  15  16
ENDBRANCH  14  15
ENDBRANCH   1  14
BRANCH   1  26
HETATM   26  O   UNK N   1      24.487  23.036  -8.381  0.00  0.00    -0.396 OA
HETATM   27  H   UNK N   1      23.697  23.591  -8.480  0.00  0.00     0.210 HD
ENDBRANCH   1  26
TORSDOF 17
ENDMDL
MODEL 3
REMARK VINA RESULT:      -5.4      1.170      6.157
REMARK  17 active torsions:
REMARK  status: ('A' for Active; 'I' for Inactive)
REMARK    1  A    between atoms: C_2  and  C_4 
REMARK    2  A    between atoms: C_2  and  C_22 
REMARK    3  A    between atoms: C_4  and  C_5 
REMARK    4  A    between atoms: C_5  and  C_6 
REMARK    5  A    between atoms: C_6  and  C_7 
REMARK    6  A    between atoms: C_7  and  C_8 
REMARK    7  A    between atoms: C_8  and  C_9 
REMARK    8  A    between atoms: C_9  and  C_10 
REMARK    9  A    between atoms: C_9  and  O_21 
REMARK   10  A    between atoms: C_10  and  C_11 
REMARK   11  A    between atoms: C_11  and  C_12 
REMARK   12  A    between atoms: C_12  and  C_13 
REMARK   13  A    between atoms: C_13  and  C_14 
REMARK   14  A    between atoms: C_14  and  C_15 
REMARK   15  A    between atoms: C_15  and  C_18 
REMARK   16  A    between atoms: C_18  and  O_20 
REMARK   17  A    between atoms: C_22  and  O_24 
ROOT
HETATM    1  C   UNK N   1      25.552  27.380  -4.244  0.00  0.00     0.118 C 
ENDROOT
BRANCH   1   2
HETATM    2  C   UNK N   1      26.691  26.511  -3.735  0.00  0.00     0.032 C 
BRANCH   2   3
HETATM    3  C   UNK N   1      26.246  25.062  -3.655  0.00  0.00     0.002 C 
BRANCH   3   4
HETATM    4  C   UNK N   1      27.443  24.174  -3.378  0.00  0.00     0.000 C 
BRANCH   4   5
HETATM    5  C   UNK N   1      28.530  24.417  -4.410  0.00  0.00     0.001 C 
BRANCH   5   6
HETATM    6  C   UNK N   1      29.518  23.250  -4.416  0.00  0.00     0.020 C 
BRANCH   6   7
HETATM    7  C   UNK N   1      30.872  23.579  -3.772  0.00  0.00     0.038 C 
HETATM    8  C   UNK N   1      32.002  23.191  -4.714  0.00  0.00     0.026 C 
HETATM    9  C   UNK N   1      30.971  25.071  -3.488  0.00  0.00     0.026 C 
BRANCH   7  10
HETATM   10  C   UNK N   1      30.989  22.825  -2.467  0.00  0.00     0.147 C 
HETATM   11  O   UNK N   1      30.242  23.092  -1.538  0.00  0.00    -0.649 OA
BRANCH  10  12
HETATM   12  O   UNK N   1      31.914  21.856  -2.312  0.00  0.00    -0.776 OA
HETATM   13  H   UNK N   1      31.990  21.173  -2.949  0.00  0.00     0.167 HD
ENDBRANCH  10  12
ENDBRANCH   7  10
ENDBRANCH   6   7
ENDBRANCH   5   6
ENDBRANCH   4   5
ENDBRANCH   3   4
ENDBRANCH   2   3
ENDBRANCH   1   2
BRANCH   1  14
HETATM   14  C   UNK N   1      25.481  27.392  -5.772  0.00  0.00     0.032 C 
BRANCH  14  15
HETATM   15  C   UNK N   1      26.857  27.334  -6.422  0.00  0.00     0.002 C 
BRANCH  15  16
HETATM   16  C   UNK N   1      26.809  26.425  -7.636  0.00  0.00     0.000 C 
BRANCH  16  17
HETATM   17  C   UNK N   1      25.846  25.276  -7.396  0.00  0.00     0.001 C 
BRANCH  17  18
HETATM   18  C   UNK N   1      26.111  24.155  -8.401  0.00  0.00     0.020 C 
BRANCH  18  19
HETATM   19  C   UNK N   1      26.223  22.770  -7.754  0.00  0.00     0.038 C 
HETATM   20  C   UNK N   1      27.694  22.411  -7.573  0.00  0.00     0.026 C 
HETATM   21  C   UNK N   1      25.553  22.764  -6.388  0.00  0.00     0.026 C 
BRANCH  19  22
HETATM   22  C   UNK N   1      25.534  21.755  -8.637  0.00  0.00     0.147 C 
HETATM   23  O   UNK N   1      25.380  21.986  -9.827  0.00  0.00    -0.649 OA
BRANCH  22  24
HETATM   24  O   UNK N   1      25.081  20.591  -8.127  0.00  0.00    -0.776 OA
HETATM   25  H   UNK N   1      25.634  20.076  -7.572  0.00  0.00     0.167 HD
ENDBRANCH  22  24
ENDBRANCH  19  22
ENDBRANCH  18  19
ENDBRANCH  17  18
ENDBRANCH  16  17
ENDBRANCH  15  16
ENDBRANCH  14  15
ENDBRANCH   1  14
BRANCH   1  26
HETATM   26  O   UNK N   1      25.677  28.678  -3.745  0.00  0.00    -0.396 OA
HETATM   27  H   UNK N   1      26.225  29.006  -3.015  0.00  0.00     0.210 HD
ENDBRANCH   1  26
TORSDOF 17
ENDMDL
MODEL 4
REMARK VINA RESULT:      -5.3      1.559      6.714
REMARK  17 active torsions:
REMARK  status: ('A' for Active; 'I' for Inactive)
REMARK    1  A    between atoms: C_2  and  C_4 
REMARK    2  A    between atoms: C_2  and  C_22 
REMARK    3  A    between atoms: C_4  and  C_5 
REMARK    4  A    between atoms: C_5  and  C_6 
REMARK    5  A    between atoms: C_6  and  C_7 
REMARK    6  A    between atoms: C_7  and  C_8 
REMARK    7  A    between atoms: C_8  and  C_9 
REMARK    8  A    between atoms: C_9  and  C_10 
REMARK    9  A    between atoms: C_9  and  O_21 
REMARK   10  A    between atoms: C_10  and  C_11 
REMARK   11  A    between atoms: C_11  and  C_12 
REMARK   12  A    between atoms: C_12  and  C_13 
REMARK   13  A    between atoms: C_13  and  C_14 
REMARK   14  A    between atoms: C_14  and  C_15 
REMARK   15  A    between atoms: C_15  and  C_18 
REMARK   16  A    between atoms: C_18  and  O_20 
REMARK   17  A    between atoms: C_22  and  O_24 
ROOT
HETATM    1  C   UNK N   1      25.935  23.625  -7.128  0.00  0.00     0.118 C 
ENDROOT
BRANCH   1   2
HETATM    2  C   UNK N   1      27.323  23.290  -7.651  0.00  0.00     0.032 C 
BRANCH   2   3
HETATM    3  C   UNK N   1      27.703  21.876  -7.251  0.00  0.00     0.002 C 
BRANCH   3   4
HETATM    4  C   UNK N   1      29.204  21.787  -7.056  0.00  0.00     0.000 C 
BRANCH   4   5
HETATM    5  C   UNK N   1      29.678  22.871  -6.106  0.00  0.00     0.001 C 
BRANCH   5   6
HETATM    6  C   UNK N   1      29.629  22.364  -4.664  0.00  0.00     0.020 C 
BRANCH   6   7
HETATM    7  C   UNK N   1      30.931  22.584  -3.883  0.00  0.00     0.038 C 
HETATM    8  C   UNK N   1      31.473  21.249  -3.392  0.00  0.00     0.026 C 
HETATM    9  C   UNK N   1      31.978  23.232  -4.777  0.00  0.00     0.026 C 
BRANCH   7  10
HETATM   10  C   UNK N   1      30.651  23.502  -2.715  0.00  0.00     0.147 C 
HETATM   11  O   UNK N   1      30.632  24.712  -2.879  0.00  0.00    -0.649 OA
BRANCH  10  12
HETATM   12  O   UNK N   1      30.421  23.000  -1.484  0.00  0.00    -0.776 OA
HETATM   13  H   UNK N   1      30.843  22.208  -1.213  0.00  0.00     0.167 HD
ENDBRANCH  10  12
ENDBRANCH   7  10
ENDBRANCH   6   7
ENDBRANCH   5   6
ENDBRANCH   4   5
ENDBRANCH   3   4
ENDBRANCH   2   3
ENDBRANCH   1   2
BRANCH   1  14
HETATM   14  C   UNK N   1      25.980  24.671  -6.013  0.00  0.00     0.032 C 
BRANCH  14  15
HETATM   15  C   UNK N   1      26.253  24.058  -4.646  0.00  0.00     0.002 C 
BRANCH  15  16
HETATM   16  C   UNK N   1      27.179  24.963  -3.856  0.00  0.00     0.000 C 
BRANCH  16  17
HETATM   17  C   UNK N   1      27.948  25.876  -4.794  0.00  0.00     0.001 C 
BRANCH  17  18
HETATM   18  C   UNK N   1      28.010  27.289  -4.212  0.00  0.00     0.020 C 
BRANCH  18  19
HETATM   19  C   UNK N   1      27.075  28.280  -4.913  0.00  0.00     0.038 C 
HETATM   20  C   UNK N   1      27.522  29.704  -4.607  0.00  0.00     0.026 C 
HETATM   21  C   UNK N   1      27.114  28.073  -6.421  0.00  0.00     0.026 C 
BRANCH  19  22
HETATM   22  C   UNK N   1      25.662  28.051  -4.428  0.00  0.00     0.147 C 
HETATM   23  O   UNK N   1      24.783  27.756  -5.223  0.00  0.00    -0.649 OA
BRANCH  22  24
HETATM   24  O   UNK N   1      25.354  28.173  -3.120  0.00  0.00    -0.776 OA
HETATM   25  H   UNK N   1      25.467  28.997  -2.686  0.00  0.00     0.167 HD
ENDBRANCH  22  24
ENDBRANCH  19  22
ENDBRANCH  18  19
ENDBRANCH  17  18
ENDBRANCH  16  17
ENDBRANCH  15  16
ENDBRANCH  14  15
ENDBRANCH   1  14
BRANCH   1  26
HETATM   26  O   UNK N   1      25.293  22.464  -6.689  0.00  0.00    -0.396 OA
HETATM   27  H   UNK N   1      25.448  21.942  -5.887  0.00  0.00     0.210 HD
ENDBRANCH   1  26
TORSDOF 17
ENDMDL
MODEL 5
REMARK VINA RESULT:      -5.2      1.458      6.450
REMARK  17 active torsions:
REMARK  status: ('A' for Active; 'I' for Inactive)
REMARK    1  A    between atoms: C_2  and  C_4 
REMARK    2  A    between atoms: C_2  and  C_22 
REMARK    3  A    between atoms: C_4  and  C_5 
REMARK    4  A    between atoms: C_5  and  C_6 
REMARK    5  A    between atoms: C_6  and  C_7 
REMARK    6  A    between atoms: C_7  and  C_8 
REMARK    7  A    between atoms: C_8  and  C_9 
REMARK    8  A    between atoms: C_9  and  C_10 
REMARK    9  A    between atoms: C_9  and  O_21 
REMARK   10  A    between atoms: C_10  and  C_11 
REMARK   11  A    between atoms: C_11  and  C_12 
REMARK   12  A    between atoms: C_12  and  C_13 
REMARK   13  A    between atoms: C_13  and  C_14 
REMARK   14  A    between atoms: C_14  and  C_15 
REMARK   15  A    between atoms: C_15  and  C_18 
REMARK   16  A    between atoms: C_18  and  O_20 
REMARK   17  A    between atoms: C_22  and  O_24 
ROOT
HETATM    1  C   UNK N   1      25.668  23.310  -8.116  0.00  0.00     0.118 C 
ENDROOT
BRANCH   1   2
HETATM    2  C   UNK N   1      26.224  23.253  -6.702  0.00  0.00     0.032 C 
BRANCH   2   3
HETATM    3  C   UNK N   1      27.596  22.602  -6.708  0.00  0.00     0.002 C 
BRANCH   3   4
HETATM    4  C   UNK N   1      28.651  23.638  -7.046  0.00  0.00     0.000 C 
BRANCH   4   5
HETATM    5  C   UNK N   1      29.280  24.184  -5.776  0.00  0.00     0.001 C 
BRANCH   5   6
HETATM    6  C   UNK N   1      29.711  23.032  -4.868  0.00  0.00     0.020 C 
BRANCH   6   7
HETATM    7  C   UNK N   1      30.536  23.475  -3.653  0.00  0.00     0.038 C 
HETATM    8  C   UNK N   1      31.826  22.670  -3.580  0.00  0.00     0.026 C 
HETATM    9  C   UNK N   1      30.894  24.949  -3.768  0.00  0.00     0.026 C 
BRANCH   7  10
HETATM   10  C   UNK N   1      29.713  23.269  -2.401  0.00  0.00     0.147 C 
HETATM   11  O   UNK N   1      30.265  23.003  -1.344  0.00  0.00    -0.649 OA
BRANCH  10  12
HETATM   12  O   UNK N   1      28.369  23.372  -2.435  0.00  0.00    -0.776 OA
HETATM   13  H   UNK N   1      27.849  22.647  -2.725  0.00  0.00     0.167 HD
ENDBRANCH  10  12
ENDBRANCH   7  10
ENDBRANCH   6   7
ENDBRANCH   5   6
ENDBRANCH   4   5
ENDBRANCH   3   4
ENDBRANCH   2   3
ENDBRANCH   1   2
BRANCH   1  14
HETATM   14  C   UNK N   1      25.529  24.748  -8.618  0.00  0.00     0.032 C 
BRANCH  14  15
HETATM   15  C   UNK N   1      25.773  25.777  -7.523  0.00  0.00     0.002 C 
BRANCH  15  16
HETATM   16  C   UNK N   1      26.913  26.693  -7.928  0.00  0.00     0.000 C 
BRANCH  16  17
HETATM   17  C   UNK N   1      27.188  27.708  -6.835  0.00  0.00     0.001 C 
BRANCH  17  18
HETATM   18  C   UNK N   1      26.206  27.511  -5.680  0.00  0.00     0.020 C 
BRANCH  18  19
HETATM   19  C   UNK N   1      26.825  27.767  -4.301  0.00  0.00     0.038 C 
HETATM   20  C   UNK N   1      28.344  27.713  -4.409  0.00  0.00     0.026 C 
HETATM   21  C   UNK N   1      26.425  29.142  -3.785  0.00  0.00     0.026 C 
BRANCH  19  22
HETATM   22  C   UNK N   1      26.324  26.720  -3.333  0.00  0.00     0.147 C 
HETATM   23  O   UNK N   1      25.922  27.051  -2.229  0.00  0.00    -0.649 OA
BRANCH  22  24
HETATM   24  O   UNK N   1      26.317  25.414  -3.673  0.00  0.00    -0.776 OA
HETATM   25  H   UNK N   1      27.127  24.957  -3.794  0.00  0.00     0.167 HD
ENDBRANCH  22  24
ENDBRANCH  19  22
ENDBRANCH  18  19
ENDBRANCH  17  18
ENDBRANCH  16  17
ENDBRANCH  15  16
ENDBRANCH  14  15
ENDBRANCH   1  14
BRANCH   1  26
HETATM   26  O   UNK N   1      24.441  22.645  -8.177  0.00  0.00    -0.396 OA
HETATM   27  H   UNK N   1      24.246  21.703  -8.054  0.00  0.00     0.210 HD
ENDBRANCH   1  26
TORSDOF 17
ENDMDL
MODEL 6
REMARK VINA RESULT:      -5.1      1.288      6.453
REMARK  17 active torsions:
REMARK  status: ('A' for Active; 'I' for Inactive)
REMARK    1  A    between atoms: C_2  and  C_4 
REMARK    2  A    between atoms: C_2  and  C_22 
REMARK    3  A    between atoms: C_4  and  C_5 
REMARK    4  A    between atoms: C_5  and  C_6 
REMARK    5  A    between atoms: C_6  and  C_7 
REMARK    6  A    between atoms: C_7  and  C_8 
REMARK    7  A    between atoms: C_8  and  C_9 
REMARK    8  A    between atoms: C_9  and  C_10 
REMARK    9  A    between atoms: C_9  and  O_21 
REMARK   10  A    between atoms: C_10  and  C_11 
REMARK   11  A    between atoms: C_11  and  C_12 
REMARK   12  A    between atoms: C_12  and  C_13 
REMARK   13  A    between atoms: C_13  and  C_14 
REMARK   14  A    between atoms: C_14  and  C_15 
REMARK   15  A    between atoms: C_15  and  C_18 
REMARK   16  A    between atoms: C_18  and  O_20 
REMARK   17  A    between atoms: C_22  and  O_24 
ROOT
HETATM    1  C   UNK N   1      30.985  22.547  -3.375  0.00  0.00     0.118 C 
ENDROOT
BRANCH   1   2
HETATM    2  C   UNK N   1      30.060  23.630  -2.840  0.00  0.00     0.032 C 
BRANCH   2   3
HETATM    3  C   UNK N   1      28.937  23.004  -2.033  0.00  0.00     0.002 C 
BRANCH   3   4
HETATM    4  C   UNK N   1      27.629  23.702  -2.352  0.00  0.00     0.000 C 
BRANCH   4   5
HETATM    5  C   UNK N   1      27.701  24.359  -3.718  0.00  0.00     0.001 C 
BRANCH   5   6
HETATM    6  C   UNK N   1      26.343  24.959  -4.084  0.00  0.00     0.020 C 
BRANCH   6   7
HETATM    7  C   UNK N   1      26.432  26.346  -4.734  0.00  0.00     0.038 C 
HETATM    8  C   UNK N   1      27.625  26.403  -5.676  0.00  0.00     0.026 C 
HETATM    9  C   UNK N   1      25.170  26.634  -5.535  0.00  0.00     0.026 C 
BRANCH   7  10
HETATM   10  C   UNK N   1      26.567  27.388  -3.646  0.00  0.00     0.147 C 
HETATM   11  O   UNK N   1      27.648  27.918  -3.439  0.00  0.00    -0.649 OA
BRANCH  10  12
HETATM   12  O   UNK N   1      25.505  27.742  -2.895  0.00  0.00    -0.776 OA
HETATM   13  H   UNK N   1      25.432  27.438  -2.011  0.00  0.00     0.167 HD
ENDBRANCH  10  12
ENDBRANCH   7  10
ENDBRANCH   6   7
ENDBRANCH   5   6
ENDBRANCH   4   5
ENDBRANCH   3   4
ENDBRANCH   2   3
ENDBRANCH   1   2
BRANCH   1  14
HETATM   14  C   UNK N   1      30.212  21.435  -4.085  0.00  0.00     0.032 C 
BRANCH  14  15
HETATM   15  C   UNK N   1      30.312  21.531  -5.602  0.00  0.00     0.002 C 
BRANCH  15  16
HETATM   16  C   UNK N   1      29.337  22.576  -6.111  0.00  0.00     0.000 C 
BRANCH  16  17
HETATM   17  C   UNK N   1      28.343  21.946  -7.071  0.00  0.00     0.001 C 
BRANCH  17  18
HETATM   18  C   UNK N   1      27.707  23.025  -7.947  0.00  0.00     0.020 C 
BRANCH  18  19
HETATM   19  C   UNK N   1      26.176  22.964  -7.975  0.00  0.00     0.038 C 
HETATM   20  C   UNK N   1      25.659  22.542  -6.604  0.00  0.00     0.026 C 
HETATM   21  C   UNK N   1      25.594  24.330  -8.311  0.00  0.00     0.026 C 
BRANCH  19  22
HETATM   22  C   UNK N   1      25.741  21.976  -9.033  0.00  0.00     0.147 C 
HETATM   23  O   UNK N   1      25.786  22.287 -10.214  0.00  0.00    -0.649 OA
BRANCH  22  24
HETATM   24  O   UNK N   1      25.298  20.748  -8.690  0.00  0.00    -0.776 OA
HETATM   25  H   UNK N   1      24.440  20.644  -8.329  0.00  0.00     0.167 HD
ENDBRANCH  22  24
ENDBRANCH  19  22
ENDBRANCH  18  19
ENDBRANCH  17  18
ENDBRANCH  16  17
ENDBRANCH  15  16
ENDBRANCH  14  15
ENDBRANCH   1  14
BRANCH   1  26
HETATM   26  O   UNK N   1      31.762  22.024  -2.339  0.00  0.00    -0.396 OA
HETATM   27  H   UNK N   1      31.656  22.124  -1.380  0.00  0.00     0.210 HD
ENDBRANCH   1  26
TORSDOF 17
ENDMDL
MODEL 7
REMARK VINA RESULT:      -5.1      1.309      5.768
REMARK  17 active torsions:
REMARK  status: ('A' for Active; 'I' for Inactive)
REMARK    1  A    between atoms: C_2  and  C_4 
REMARK    2  A    between atoms: C_2  and  C_22 
REMARK    3  A    between atoms: C_4  and  C_5 
REMARK    4  A    between atoms: C_5  and  C_6 
REMARK    5  A    between atoms: C_6  and  C_7 
REMARK    6  A    between atoms: C_7  and  C_8 
REMARK    7  A    between atoms: C_8  and  C_9 
REMARK    8  A    between atoms: C_9  and  C_10 
REMARK    9  A    between atoms: C_9  and  O_21 
REMARK   10  A    between atoms: C_10  and  C_11 
REMARK   11  A    between atoms: C_11  and  C_12 
REMARK   12  A    between atoms: C_12  and  C_13 
REMARK   13  A    between atoms: C_13  and  C_14 
REMARK   14  A    between atoms: C_14  and  C_15 
REMARK   15  A    between atoms: C_15  and  C_18 
REMARK   16  A    between atoms: C_18  and  O_20 
REMARK   17  A    between atoms: C_22  and  O_24 
ROOT
HETATM    1  C   UNK N   1      31.373  21.520  -3.328  0.00  0.00     0.118 C 
ENDROOT
BRANCH   1   2
HETATM    2  C   UNK N   1      31.773  22.519  -4.402  0.00  0.00     0.032 C 
BRANCH   2   3
HETATM    3  C   UNK N   1      31.290  22.045  -5.761  0.00  0.00     0.002 C 
BRANCH   3   4
HETATM    4  C   UNK N   1      30.187  22.958  -6.258  0.00  0.00     0.000 C 
BRANCH   4   5
HETATM    5  C   UNK N   1      28.904  22.173  -6.461  0.00  0.00     0.001 C 
BRANCH   5   6
HETATM    6  C   UNK N   1      27.763  23.121  -6.833  0.00  0.00     0.020 C 
BRANCH   6   7
HETATM    7  C   UNK N   1      26.866  22.600  -7.964  0.00  0.00     0.038 C 
HETATM    8  C   UNK N   1      26.992  23.502  -9.183  0.00  0.00     0.026 C 
HETATM    9  C   UNK N   1      27.283  21.192  -8.361  0.00  0.00     0.026 C 
BRANCH   7  10
HETATM   10  C   UNK N   1      25.435  22.567  -7.478  0.00  0.00     0.147 C 
HETATM   11  O   UNK N   1      24.519  22.465  -8.279  0.00  0.00    -0.649 OA
BRANCH  10  12
HETATM   12  O   UNK N   1      25.152  22.651  -6.162  0.00  0.00    -0.776 OA
HETATM   13  H   UNK N   1      25.720  23.128  -5.588  0.00  0.00     0.167 HD
ENDBRANCH  10  12
ENDBRANCH   7  10
ENDBRANCH   6   7
ENDBRANCH   5   6
ENDBRANCH   4   5
ENDBRANCH   3   4
ENDBRANCH   2   3
ENDBRANCH   1   2
BRANCH   1  14
HETATM   14  C   UNK N   1      29.917  21.700  -2.894  0.00  0.00     0.032 C 
BRANCH  14  15
HETATM   15  C   UNK N   1      29.634  23.099  -2.363  0.00  0.00     0.002 C 
BRANCH  15  16
HETATM   16  C   UNK N   1      28.173  23.442  -2.585  0.00  0.00     0.000 C 
BRANCH  16  17
HETATM   17  C   UNK N   1      28.042  24.540  -3.625  0.00  0.00     0.001 C 
BRANCH  17  18
HETATM   18  C   UNK N   1      26.584  24.985  -3.735  0.00  0.00     0.020 C 
BRANCH  18  19
HETATM   19  C   UNK N   1      26.401  26.290  -4.517  0.00  0.00     0.038 C 
HETATM   20  C   UNK N   1      27.736  26.711  -5.122  0.00  0.00     0.026 C 
HETATM   21  C   UNK N   1      25.398  26.098  -5.646  0.00  0.00     0.026 C 
BRANCH  19  22
HETATM   22  C   UNK N   1      25.882  27.358  -3.582  0.00  0.00     0.147 C 
HETATM   23  O   UNK N   1      26.116  27.288  -2.385  0.00  0.00    -0.649 OA
BRANCH  22  24
HETATM   24  O   UNK N   1      25.156  28.393  -4.052  0.00  0.00    -0.776 OA
HETATM   25  H   UNK N   1      25.421  28.834  -4.836  0.00  0.00     0.167 HD
ENDBRANCH  22  24
ENDBRANCH  19  22
ENDBRANCH  18  19
ENDBRANCH  17  18
ENDBRANCH  16  17
ENDBRANCH  15  16
ENDBRANCH  14  15
ENDBRANCH   1  14
BRANCH   1  26
HETATM   26  O   UNK N   1      32.231  21.622  -2.231  0.00  0.00    -0.396 OA
HETATM   27  H   UNK N   1      33.007  22.192  -2.109  0.00  0.00     0.210 HD
ENDBRANCH   1  26
TORSDOF 17
ENDMDL
MODEL 8
REMARK VINA RESULT:      -4.9     17.282     22.442
REMARK  17 active torsions:
REMARK  status: ('A' for Active; 'I' for Inactive)
REMARK    1  A    between atoms: C_2  and  C_4 
REMARK    2  A    between atoms: C_2  and  C_22 
REMARK    3  A    between atoms: C_4  and  C_5 
REMARK    4  A    between atoms: C_5  and  C_6 
REMARK    5  A    between atoms: C_6  and  C_7 
REMARK    6  A    between atoms: C_7  and  C_8 
REMARK    7  A    between atoms: C_8  and  C_9 
REMARK    8  A    between atoms: C_9  and  C_10 
REMARK    9  A    between atoms: C_9  and  O_21 
REMARK   10  A    between atoms: C_10  and  C_11 
REMARK   11  A    between atoms: C_11  and  C_12 
REMARK   12  A    between atoms: C_12  and  C_13 
REMARK   13  A    between atoms: C_13  and  C_14 
REMARK   14  A    between atoms: C_14  and  C_15 
REMARK   15  A    between atoms: C_15  and  C_18 
REMARK   16  A    between atoms: C_18  and  O_20 
REMARK   17  A    between atoms: C_22  and  O_24 
ROOT
HETATM    1  C   UNK N   1      35.192  13.357  11.897  0.00  0.00     0.118 C 
ENDROOT
BRANCH   1   2
HETATM    2  C   UNK N   1      36.108  12.171  11.636  0.00  0.00     0.032 C 
BRANCH   2   3
HETATM    3  C   UNK N   1      37.400  12.329  12.417  0.00  0.00     0.002 C 
BRANCH   3   4
HETATM    4  C   UNK N   1      37.427  11.335  13.563  0.00  0.00     0.000 C 
BRANCH   4   5
HETATM    5  C   UNK N   1      37.084  12.027  14.869  0.00  0.00     0.001 C 
BRANCH   5   6
HETATM    6  C   UNK N   1      36.659  10.994  15.914  0.00  0.00     0.020 C 
BRANCH   6   7
HETATM    7  C   UNK N   1      35.190  11.107  16.339  0.00  0.00     0.038 C 
HETATM    8  C   UNK N   1      34.292  10.500  15.270  0.00  0.00     0.026 C 
HETATM    9  C   UNK N   1      34.959  10.360  17.644  0.00  0.00     0.026 C 
BRANCH   7  10
HETATM   10  C   UNK N   1      34.852  12.566  16.546  0.00  0.00     0.147 C 
HETATM   11  O   UNK N   1      34.125  13.144  15.753  0.00  0.00    -0.649 OA
BRANCH  10  12
HETATM   12  O   UNK N   1      35.348  13.245  17.600  0.00  0.00    -0.776 OA
HETATM   13  H   UNK N   1      35.885  14.001  17.462  0.00  0.00     0.167 HD
ENDBRANCH  10  12
ENDBRANCH   7  10
ENDBRANCH   6   7
ENDBRANCH   5   6
ENDBRANCH   4   5
ENDBRANCH   3   4
ENDBRANCH   2   3
ENDBRANCH   1   2
BRANCH   1  14
HETATM   14  C   UNK N   1      35.981  14.640  12.166  0.00  0.00     0.032 C 
BRANCH  14  15
HETATM   15  C   UNK N   1      35.458  15.826  11.366  0.00  0.00     0.002 C 
BRANCH  15  16
HETATM   16  C   UNK N   1      34.364  15.362  10.423  0.00  0.00     0.000 C 
BRANCH  16  17
HETATM   17  C   UNK N   1      34.686  15.775   8.999  0.00  0.00     0.001 C 
BRANCH  17  18
HETATM   18  C   UNK N   1      33.393  16.009   8.218  0.00  0.00     0.020 C 
BRANCH  18  19
HETATM   19  C   UNK N   1      33.198  17.466   7.783  0.00  0.00     0.038 C 
HETATM   20  C   UNK N   1      31.942  18.028   8.438  0.00  0.00     0.026 C 
HETATM   21  C   UNK N   1      34.388  18.313   8.210  0.00  0.00     0.026 C 
BRANCH  19  22
HETATM   22  C   UNK N   1      33.080  17.519   6.277  0.00  0.00     0.147 C 
HETATM   23  O   UNK N   1      34.051  17.817   5.598  0.00  0.00    -0.649 OA
BRANCH  22  24
HETATM   24  O   UNK N   1      31.908  17.243   5.667  0.00  0.00    -0.776 OA
HETATM   25  H   UNK N   1      31.671  16.354   5.489  0.00  0.00     0.167 HD
ENDBRANCH  22  24
ENDBRANCH  19  22
ENDBRANCH  18  19
ENDBRANCH  17  18
ENDBRANCH  16  17
ENDBRANCH  15  16
ENDBRANCH  14  15
ENDBRANCH   1  14
BRANCH   1  26
HETATM   26  O   UNK N   1      34.331  13.075  12.960  0.00  0.00    -0.396 OA
HETATM   27  H   UNK N   1      33.477  13.477  13.183  0.00  0.00     0.210 HD
ENDBRANCH   1  26
TORSDOF 17
ENDMDL
MODEL 9
REMARK VINA RESULT:      -4.9      1.439      6.020
REMARK  17 active torsions:
REMARK  status: ('A' for Active; 'I' for Inactive)
REMARK    1  A    between atoms: C_2  and  C_4 
REMARK    2  A    between atoms: C_2  and  C_22 
REMARK    3  A    between atoms: C_4  and  C_5 
REMARK    4  A    between atoms: C_5  and  C_6 
REMARK    5  A    between atoms: C_6  and  C_7 
REMARK    6  A    between atoms: C_7  and  C_8 
REMARK    7  A    between atoms: C_8  and  C_9 
REMARK    8  A    between atoms: C_9  and  C_10 
REMARK    9  A    between atoms: C_9  and  O_21 
REMARK   10  A    between atoms: C_10  and  C_11 
REMARK   11  A    between atoms: C_11  and  C_12 
REMARK   12  A    between atoms: C_12  and  C_13 
REMARK   13  A    between atoms: C_13  and  C_14 
REMARK   14  A    between atoms: C_14  and  C_15 
REMARK   15  A    between atoms: C_15  and  C_18 
REMARK   16  A    between atoms: C_18  and  O_20 
REMARK   17  A    between atoms: C_22  and  O_24 
ROOT
HETATM    1  C   UNK N   1      26.188  27.552  -4.253  0.00  0.00     0.118 C 
ENDROOT
BRANCH   1   2
HETATM    2  C   UNK N   1      27.535  28.240  -4.406  0.00  0.00     0.032 C 
BRANCH   2   3
HETATM    3  C   UNK N   1      28.329  27.588  -5.524  0.00  0.00     0.002 C 
BRANCH   3   4
HETATM    4  C   UNK N   1      29.568  26.927  -4.951  0.00  0.00     0.000 C 
BRANCH   4   5
HETATM    5  C   UNK N   1      29.193  25.660  -4.205  0.00  0.00     0.001 C 
BRANCH   5   6
HETATM    6  C   UNK N   1      30.427  25.067  -3.525  0.00  0.00     0.020 C 
BRANCH   6   7
HETATM    7  C   UNK N   1      30.818  23.679  -4.049  0.00  0.00     0.038 C 
HETATM    8  C   UNK N   1      29.978  23.328  -5.269  0.00  0.00     0.026 C 
HETATM    9  C   UNK N   1      32.285  23.662  -4.454  0.00  0.00     0.026 C 
BRANCH   7  10
HETATM   10  C   UNK N   1      30.604  22.663  -2.950  0.00  0.00     0.147 C 
HETATM   11  O   UNK N   1      30.364  21.499  -3.232  0.00  0.00    -0.649 OA
BRANCH  10  12
HETATM   12  O   UNK N   1      30.672  23.026  -1.653  0.00  0.00    -0.776 OA
HETATM   13  H   UNK N   1      31.498  23.040  -1.212  0.00  0.00     0.167 HD
ENDBRANCH  10  12
ENDBRANCH   7  10
ENDBRANCH   6   7
ENDBRANCH   5   6
ENDBRANCH   4   5
ENDBRANCH   3   4
ENDBRANCH   2   3
ENDBRANCH   1   2
BRANCH   1  14
HETATM   14  C   UNK N   1      25.460  27.417  -5.592  0.00  0.00     0.032 C 
BRANCH  14  15
HETATM   15  C   UNK N   1      25.252  25.965  -6.001  0.00  0.00     0.002 C 
BRANCH  15  16
HETATM   16  C   UNK N   1      25.647  25.052  -4.856  0.00  0.00     0.000 C 
BRANCH  16  17
HETATM   17  C   UNK N   1      25.993  23.670  -5.380  0.00  0.00     0.001 C 
BRANCH  17  18
HETATM   18  C   UNK N   1      26.588  23.777  -6.784  0.00  0.00     0.020 C 
BRANCH  18  19
HETATM   19  C   UNK N   1      26.192  22.617  -7.705  0.00  0.00     0.038 C 
HETATM   20  C   UNK N   1      27.410  21.738  -7.966  0.00  0.00     0.026 C 
HETATM   21  C   UNK N   1      25.111  21.766  -7.054  0.00  0.00     0.026 C 
BRANCH  19  22
HETATM   22  C   UNK N   1      25.655  23.177  -9.001  0.00  0.00     0.147 C 
HETATM   23  O   UNK N   1      26.187  22.884 -10.061  0.00  0.00    -0.649 OA
BRANCH  22  24
HETATM   24  O   UNK N   1      24.589  24.005  -9.006  0.00  0.00    -0.776 OA
HETATM   25  H   UNK N   1      24.704  24.916  -9.196  0.00  0.00     0.167 HD
ENDBRANCH  22  24
ENDBRANCH  19  22
ENDBRANCH  18  19
ENDBRANCH  17  18
ENDBRANCH  16  17
ENDBRANCH  15  16
ENDBRANCH  14  15
ENDBRANCH   1  14
BRANCH   1  26
HETATM   26  O   UNK N   1      25.398  28.240  -3.329  0.00  0.00    -0.396 OA
HETATM   27  H   UNK N   1      25.657  28.671  -2.500  0.00  0.00     0.210 HD
ENDBRANCH   1  26
TORSDOF 17
ENDMDL
