MODEL 1
REMARK VINA RESULT:      -8.4      0.000      0.000
REMARK WARNING: 32 MAX_TORS EXCEEDED!!!
REMARK  41 active torsions:
REMARK  status: ('A' for Active; 'I' for Inactive)
REMARK    1  A    between atoms: C_2  and  C_3 
REMARK    2  A    between atoms: C_2  and  N_6 
REMARK       I    between atoms: C_3  and  N_5 
REMARK       I    between atoms: N_6  and  C_7 
REMARK    3  A    between atoms: C_9  and  C_7 
REMARK       I    between atoms: N_13  and  C_14 
REMARK    4  A    between atoms: C_14  and  C_16 
REMARK    5  A    between atoms: C_16  and  C_17 
REMARK    6  A    between atoms: C_16  and  N_25 
REMARK    7  A    between atoms: C_17  and  C_18 
REMARK    8  A    between atoms: C_18  and  C_19 
REMARK    9  A    between atoms: C_19  and  C_20 
REMARK   10  A    between atoms: C_20  and  N_21 
REMARK   11  A    between atoms: N_21  and  C_22 
REMARK       I    between atoms: N_25  and  C_26 
REMARK   12  A    between atoms: C_26  and  C_28 
REMARK   13  A    between atoms: C_28  and  C_29 
REMARK   14  A    between atoms: C_28  and  N_33 
REMARK   15  A    between atoms: C_29  and  C_30 
REMARK       I    between atoms: N_33  and  C_34 
REMARK   16  A    between atoms: C_34  and  C_36 
REMARK   17  A    between atoms: C_36  and  C_37 
REMARK   18  A    between atoms: C_36  and  N_48 
REMARK   19  A    between atoms: C_37  and  C_38 
REMARK   20  A    between atoms: C_41  and  N_44 
REMARK       I    between atoms: N_44  and  C_45 
REMARK       I    between atoms: N_48  and  C_49 
REMARK   21  A    between atoms: C_49  and  C_51 
REMARK   22  A    between atoms: C_51  and  C_52 
REMARK   23  A    between atoms: C_51  and  N_63 
REMARK   24  A    between atoms: C_52  and  C_53 
REMARK   25  A    between atoms: C_56  and  N_59 
REMARK       I    between atoms: N_59  and  C_60 
REMARK       I    between atoms: N_63  and  C_64 
REMARK   26  A    between atoms: C_64  and  C_66 
REMARK   27  A    between atoms: C_66  and  C_67 
REMARK   28  A    between atoms: C_66  and  N_69 
REMARK   29  A    between atoms: C_67  and  O_68 
REMARK       I    between atoms: N_69  and  C_70 
REMARK   30  A    between atoms: C_70  and  C_72 
REMARK   31  A    between atoms: C_72  and  C_73 
REMARK   32  A    between atoms: C_72  and  N_81 
REMARK   33  A    between atoms: C_73  and  C_74 
REMARK       I    between atoms: N_81  and  C_82 
REMARK   34  A    between atoms: C_82  and  C_84 
REMARK   35  A    between atoms: C_84  and  C_85 
REMARK   36  A    between atoms: C_84  and  N_93 
REMARK   37  A    between atoms: C_85  and  C_86 
REMARK       I    between atoms: N_93  and  C_94 
REMARK   38  A    between atoms: C_94  and  C_96 
REMARK   39  A    between atoms: C_96  and  C_97 
REMARK   40  A    between atoms: C_96  and  N_108 
REMARK   41  A    between atoms: C_97  and  C_98 
REMARK       I    between atoms: N_108  and  C_109 
ROOT
HETATM    1  C   UNK N   1      27.843  13.825   2.563  0.00  0.00     0.180 C 
ENDROOT
BRANCH   1   2
HETATM    2  C   UNK N   1      26.568  13.083   2.826  0.00  0.00     0.241 C 
HETATM    3  N   UNK N   1      26.190  12.797   4.086  0.00  0.00    -0.346 N 
HETATM    4  H   UNK N   1      26.863  12.716   4.799  0.00  0.00     0.163 HD
HETATM    5  O   UNK N   1      25.808  12.859   1.891  0.00  0.00    -0.271 OA
BRANCH   3   6
HETATM    6  C   UNK N   1      24.801  12.611   4.384  0.00  0.00     0.180 C 
BRANCH   6   7
HETATM    7  C   UNK N   1      24.609  11.093   4.305  0.00  0.00     0.241 C 
HETATM    8  N   UNK N   1      23.511  10.589   3.713  0.00  0.00    -0.346 N 
HETATM    9  H   UNK N   1      23.385   9.612   3.687  0.00  0.00     0.163 HD
HETATM   10  O   UNK N   1      25.549  10.336   4.481  0.00  0.00    -0.271 OA
BRANCH   8  11
HETATM   11  C   UNK N   1      22.516  11.435   3.121  0.00  0.00     0.177 C 
BRANCH  11  12
HETATM   12  C   UNK N   1      21.418  11.798   4.085  0.00  0.00     0.241 C 
HETATM   13  N   UNK N   1      20.874  13.041   4.175  0.00  0.00    -0.346 N 
HETATM   14  H   UNK N   1      20.207  13.168   4.888  0.00  0.00     0.163 HD
HETATM   15  O   UNK N   1      20.975  10.916   4.801  0.00  0.00    -0.271 OA
BRANCH  13  16
HETATM   16  C   UNK N   1      21.153  14.200   3.355  0.00  0.00     0.176 C 
BRANCH  16  17
HETATM   17  C   UNK N   1      20.632  15.508   3.906  0.00  0.00     0.243 C 
HETATM   18  N   UNK N   1      21.478  16.506   4.303  0.00  0.00    -0.337 N 
HETATM   19  C   UNK N   1      22.897  16.505   4.108  0.00  0.00     0.127 C 
HETATM   20  C   UNK N   1      20.979  17.670   4.984  0.00  0.00     0.179 C 
HETATM   21  C   UNK N   1      23.346  17.897   4.529  0.00  0.00     0.022 C 
HETATM   22  C   UNK N   1      22.058  18.703   4.709  0.00  0.00     0.037 C 
HETATM   23  O   UNK N   1      19.430  15.638   4.027  0.00  0.00    -0.271 OA
BRANCH  20  24
HETATM   24  C   UNK N   1      21.027  17.378   6.459  0.00  0.00     0.241 C 
HETATM   25  N   UNK N   1      20.606  16.175   6.925  0.00  0.00    -0.346 N 
HETATM   26  H   UNK N   1      20.406  15.457   6.282  0.00  0.00     0.163 HD
HETATM   27  O   UNK N   1      21.372  18.253   7.243  0.00  0.00    -0.271 OA
BRANCH  25  28
HETATM   28  C   UNK N   1      20.442  15.916   8.341  0.00  0.00     0.172 C 
HETATM   29  C   UNK N   1      19.139  16.521   8.869  0.00  0.00     0.042 C 
BRANCH  28  30
HETATM   30  C   UNK N   1      20.548  14.431   8.582  0.00  0.00     0.237 C 
HETATM   31  O   UNK N   1      20.453  13.635   7.661  0.00  0.00    -0.271 OA
HETATM   32  N   UNK N   1      20.797  13.980   9.828  0.00  0.00    -0.368 N 
HETATM   33  H   UNK N   1      20.179  13.353  10.267  0.00  0.00     0.159 HD
HETATM   34  H   UNK N   1      21.604  14.282  10.303  0.00  0.00     0.159 HD
ENDBRANCH  28  30
ENDBRANCH  25  28
ENDBRANCH  20  24
ENDBRANCH  16  17
BRANCH  16  35
HETATM   35  C   UNK N   1      20.481  13.975   2.007  0.00  0.00     0.035 C 
BRANCH  35  36
HETATM   36  C   UNK N   1      20.877  15.008   0.963  0.00  0.00     0.004 C 
BRANCH  36  37
HETATM   37  C   UNK N   1      19.685  15.649   0.269  0.00  0.00     0.019 C 
BRANCH  37  38
HETATM   38  C   UNK N   1      19.359  17.005   0.884  0.00  0.00     0.114 C 
BRANCH  38  39
HETATM   39  N   UNK N   1      20.317  18.036   0.481  0.00  0.00    -0.418 N 
HETATM   40  H   UNK N   1      20.783  18.087  -0.425  0.00  0.00     0.153 HD
BRANCH  39  41
HETATM   41  C   UNK N   1      20.499  18.979   1.584  0.00  0.00     0.068 C 
HETATM   42  C   UNK N   1      19.239  19.052   2.420  0.00  0.00     0.031 C 
HETATM   43  C   UNK N   1      20.802  20.373   1.068  0.00  0.00     0.031 C 
ENDBRANCH  39  41
ENDBRANCH  38  39
ENDBRANCH  37  38
ENDBRANCH  36  37
ENDBRANCH  35  36
ENDBRANCH  16  35
ENDBRANCH  13  16
ENDBRANCH  11  12
BRANCH  11  44
HETATM   44  C   UNK N   1      22.079  10.878   1.780  0.00  0.00     0.038 C 
BRANCH  44  45
HETATM   45  C   UNK N   1      23.178  10.976   0.736  0.00  0.00    -0.020 C 
HETATM   46  C   UNK N   1      23.087  12.259  -0.067  0.00  0.00     0.009 C 
HETATM   47  C   UNK N   1      23.065   9.793  -0.199  0.00  0.00     0.009 C 
ENDBRANCH  44  45
ENDBRANCH  11  44
ENDBRANCH   8  11
ENDBRANCH   6   7
BRANCH   6  48
HETATM   48  C   UNK N   1      24.326  13.502   5.596  0.00  0.00     0.073 C 
BRANCH  48  49
HETATM   49  C   UNK N   1      24.273  12.888   6.970  0.00  0.00    -0.056 C 
HETATM   50  C   UNK N   1      23.574  11.708   7.163  0.00  0.00     0.009 C 
HETATM   51  C   UNK N   1      23.304  11.234   8.422  0.00  0.00     0.030 C 
HETATM   52  C   UNK N   1      23.801  11.895   9.533  0.00  0.00     0.034 C 
HETATM   53  C   UNK N   1      24.617  13.026   9.370  0.00  0.00     0.030 C 
HETATM   54  C   UNK N   1      24.861  13.520   8.077  0.00  0.00     0.009 C 
BRANCH  52  55
HETATM   55  N   UNK N   1      23.138  11.655  10.749  0.00  0.00    -0.328 N 
HETATM   56  C   UNK N   1      23.839  11.823  11.902  0.00  0.00     0.218 C 
HETATM   57  O   UNK N   1      25.057  11.957  11.879  0.00  0.00    -0.274 OA
HETATM   58  C   UNK N   1      23.116  11.957  13.190  0.00  0.00     0.117 C 
HETATM   59  H   UNK N   1      22.195  11.373  10.765  0.00  0.00     0.169 HD
ENDBRANCH  52  55
ENDBRANCH  48  49
ENDBRANCH   6  48
ENDBRANCH   3   6
ENDBRANCH   1   2
BRANCH   1  60
HETATM   60  C   UNK N   1      27.643  15.294   2.263  0.00  0.00     0.073 C 
BRANCH  60  61
HETATM   61  C   UNK N   1      27.698  16.164   3.456  0.00  0.00    -0.056 A 
HETATM   62  C   UNK N   1      28.823  16.967   3.611  0.00  0.00     0.009 A 
HETATM   63  C   UNK N   1      29.026  17.647   4.801  0.00  0.00     0.030 A 
HETATM   64  C   UNK N   1      28.094  17.537   5.837  0.00  0.00     0.034 A 
HETATM   65  C   UNK N   1      26.931  16.784   5.661  0.00  0.00     0.030 A 
HETATM   66  C   UNK N   1      26.726  16.102   4.465  0.00  0.00     0.009 A 
BRANCH  64  67
HETATM   67  N   UNK N   1      28.505  17.845   7.148  0.00  0.00    -0.328 N 
HETATM   68  C   UNK N   1      28.204  19.069   7.665  0.00  0.00     0.218 C 
HETATM   69  O   UNK N   1      28.557  19.351   8.796  0.00  0.00    -0.274 OA
HETATM   70  C   UNK N   1      27.490  20.114   6.847  0.00  0.00     0.117 C 
HETATM   71  H   UNK N   1      29.003  17.185   7.683  0.00  0.00     0.169 HD
ENDBRANCH  64  67
ENDBRANCH  60  61
ENDBRANCH   1  60
BRANCH   1  72
HETATM   72  N   UNK N   1      28.663  13.692   3.727  0.00  0.00    -0.346 N 
HETATM   73  C   UNK N   1      29.948  13.299   3.597  0.00  0.00     0.243 C 
HETATM   74  O   UNK N   1      30.393  12.962   2.503  0.00  0.00    -0.271 OA
HETATM   75  H   UNK N   1      28.292  13.885   4.618  0.00  0.00     0.163 HD
BRANCH  73  76
HETATM   76  C   UNK N   1      30.846  13.382   4.759  0.00  0.00     0.200 C 
BRANCH  76  77
HETATM   77  C   UNK N   1      31.267  14.839   4.898  0.00  0.00     0.199 C 
BRANCH  77  78
HETATM   78  O   UNK N   1      31.912  15.299   3.746  0.00  0.00    -0.398 OA
HETATM   79  H   UNK N   1      32.111  14.915   2.878  0.00  0.00     0.209 HD
ENDBRANCH  77  78
ENDBRANCH  76  77
BRANCH  76  80
HETATM   80  N   UNK N   1      31.975  12.517   4.529  0.00  0.00    -0.344 N 
HETATM   81  C   UNK N   1      33.009  12.428   5.409  0.00  0.00     0.241 C 
HETATM   82  O   UNK N   1      33.895  11.619   5.192  0.00  0.00    -0.271 OA
HETATM   83  H   UNK N   1      31.999  11.972   3.709  0.00  0.00     0.163 HD
BRANCH  81  84
HETATM   84  C   UNK N   1      33.139  13.347   6.626  0.00  0.00     0.180 C 
BRANCH  84  85
HETATM   85  C   UNK N   1      34.513  14.026   6.789  0.00  0.00     0.074 C 
BRANCH  85  86
HETATM   86  C   UNK N   1      34.415  15.445   7.292  0.00  0.00    -0.040 A 
HETATM   87  C   UNK N   1      34.635  15.749   8.636  0.00  0.00     0.010 A 
HETATM   88  C   UNK N   1      34.557  17.077   9.067  0.00  0.00     0.018 A 
HETATM   89  C   UNK N   1      34.253  18.083   8.147  0.00  0.00     0.087 A 
HETATM   90  N   UNK N   1      34.038  17.772   6.843  0.00  0.00    -0.375 N 
HETATM   91  C   UNK N   1      34.119  16.489   6.404  0.00  0.00     0.094 A 
ATOM     92  HN  UNK N   1      33.812  18.514   6.180  1.00  0.00     0.164 HD
ENDBRANCH  85  86
ENDBRANCH  84  85
BRANCH  84  93
HETATM   93  N   UNK N   1      32.650  12.793   7.879  0.00  0.00    -0.346 N 
HETATM   94  C   UNK N   1      33.290  11.896   8.661  0.00  0.00     0.241 C 
HETATM   95  O   UNK N   1      32.690  11.397   9.598  0.00  0.00    -0.271 OA
HETATM   96  H   UNK N   1      31.768  13.102   8.187  0.00  0.00     0.163 HD
BRANCH  94  97
HETATM   97  C   UNK N   1      34.693  11.468   8.391  0.00  0.00     0.180 C 
BRANCH  97  98
HETATM   98  C   UNK N   1      35.883  12.320   8.829  0.00  0.00     0.073 C 
BRANCH  98  99
HETATM   99  C   UNK N   1      36.048  12.500  10.296  0.00  0.00    -0.056 A 
HETATM  100  C   UNK N   1      37.222  12.051  10.911  0.00  0.00     0.009 A 
HETATM  101  C   UNK N   1      37.431  12.279  12.274  0.00  0.00     0.024 A 
HETATM  102  C   UNK N   1      36.470  12.966  13.023  0.00  0.00     0.034 A 
HETATM  103  C   UNK N   1      35.299  13.424  12.407  0.00  0.00     0.024 A 
HETATM  104 Cl   UNK N   1      36.710  13.210  14.739  0.00  0.00    -0.084 Cl
HETATM  105  C   UNK N   1      35.094  13.201  11.041  0.00  0.00     0.009 A 
ENDBRANCH  98  99
ENDBRANCH  97  98
BRANCH  97 106
HETATM  106  N   UNK N   1      34.881  10.277   7.591  0.00  0.00    -0.346 N 
HETATM  107  C   UNK N   1      34.744   9.012   8.047  0.00  0.00     0.241 C 
HETATM  108  O   UNK N   1      34.842   8.084   7.261  0.00  0.00    -0.271 OA
HETATM  109  H   UNK N   1      35.127  10.398   6.645  0.00  0.00     0.163 HD
BRANCH 107 110
HETATM  110  C   UNK N   1      34.484   8.715   9.489  0.00  0.00     0.180 C 
BRANCH 110 111
HETATM  111  C   UNK N   1      35.747   8.826  10.333  0.00  0.00     0.073 C 
BRANCH 111 112
HETATM  112  C   UNK N   1      35.344   9.177  11.711  0.00  0.00    -0.055 A 
HETATM  113  C   UNK N   1      34.135   9.848  11.902  0.00  0.00     0.008 A 
HETATM  114  C   UNK N   1      33.772  10.293  13.171  0.00  0.00     0.013 A 
HETATM  115  C   UNK N   1      34.625  10.077  14.253  0.00  0.00    -0.026 A 
HETATM  116  C   UNK N   1      34.276  10.548  15.519  0.00  0.00     0.012 A 
HETATM  117  C   UNK N   1      35.846   9.388  14.066  0.00  0.00    -0.025 A 
HETATM  118  C   UNK N   1      35.135  10.338  16.601  0.00  0.00     0.001 A 
HETATM  119  C   UNK N   1      36.341   9.651  16.421  0.00  0.00     0.001 A 
HETATM  120  C   UNK N   1      36.698   9.176  15.154  0.00  0.00     0.012 A 
HETATM  121  C   UNK N   1      36.205   8.942  12.792  0.00  0.00     0.019 A 
ENDBRANCH 111 112
ENDBRANCH 110 111
BRANCH 110 122
HETATM  122  N   UNK N   1      33.896   7.409   9.623  0.00  0.00    -0.348 N 
HETATM  123  C   UNK N   1      32.563   7.233   9.753  0.00  0.00     0.214 C 
HETATM  124  O   UNK N   1      32.115   6.104   9.846  0.00  0.00    -0.274 OA
HETATM  125  C   UNK N   1      31.626   8.399   9.770  0.00  0.00     0.117 C 
HETATM  126  H   UNK N   1      34.483   6.619   9.618  0.00  0.00     0.163 HD
ENDBRANCH 110 122
ENDBRANCH 107 110
ENDBRANCH  97 106
ENDBRANCH  94  97
ENDBRANCH  84  93
ENDBRANCH  81  84
ENDBRANCH  76  80
ENDBRANCH  73  76
ENDBRANCH   1  72
TORSDOF 41
ENDMDL
MODEL 2
REMARK VINA RESULT:      -8.4      2.490      3.917
REMARK WARNING: 32 MAX_TORS EXCEEDED!!!
REMARK  41 active torsions:
REMARK  status: ('A' for Active; 'I' for Inactive)
REMARK    1  A    between atoms: C_2  and  C_3 
REMARK    2  A    between atoms: C_2  and  N_6 
REMARK       I    between atoms: C_3  and  N_5 
REMARK       I    between atoms: N_6  and  C_7 
REMARK    3  A    between atoms: C_9  and  C_7 
REMARK       I    between atoms: N_13  and  C_14 
REMARK    4  A    between atoms: C_14  and  C_16 
REMARK    5  A    between atoms: C_16  and  C_17 
REMARK    6  A    between atoms: C_16  and  N_25 
REMARK    7  A    between atoms: C_17  and  C_18 
REMARK    8  A    between atoms: C_18  and  C_19 
REMARK    9  A    between atoms: C_19  and  C_20 
REMARK   10  A    between atoms: C_20  and  N_21 
REMARK   11  A    between atoms: N_21  and  C_22 
REMARK       I    between atoms: N_25  and  C_26 
REMARK   12  A    between atoms: C_26  and  C_28 
REMARK   13  A    between atoms: C_28  and  C_29 
REMARK   14  A    between atoms: C_28  and  N_33 
REMARK   15  A    between atoms: C_29  and  C_30 
REMARK       I    between atoms: N_33  and  C_34 
REMARK   16  A    between atoms: C_34  and  C_36 
REMARK   17  A    between atoms: C_36  and  C_37 
REMARK   18  A    between atoms: C_36  and  N_48 
REMARK   19  A    between atoms: C_37  and  C_38 
REMARK   20  A    between atoms: C_41  and  N_44 
REMARK       I    between atoms: N_44  and  C_45 
REMARK       I    between atoms: N_48  and  C_49 
REMARK   21  A    between atoms: C_49  and  C_51 
REMARK   22  A    between atoms: C_51  and  C_52 
REMARK   23  A    between atoms: C_51  and  N_63 
REMARK   24  A    between atoms: C_52  and  C_53 
REMARK   25  A    between atoms: C_56  and  N_59 
REMARK       I    between atoms: N_59  and  C_60 
REMARK       I    between atoms: N_63  and  C_64 
REMARK   26  A    between atoms: C_64  and  C_66 
REMARK   27  A    between atoms: C_66  and  C_67 
REMARK   28  A    between atoms: C_66  and  N_69 
REMARK   29  A    between atoms: C_67  and  O_68 
REMARK       I    between atoms: N_69  and  C_70 
REMARK   30  A    between atoms: C_70  and  C_72 
REMARK   31  A    between atoms: C_72  and  C_73 
REMARK   32  A    between atoms: C_72  and  N_81 
REMARK   33  A    between atoms: C_73  and  C_74 
REMARK       I    between atoms: N_81  and  C_82 
REMARK   34  A    between atoms: C_82  and  C_84 
REMARK   35  A    between atoms: C_84  and  C_85 
REMARK   36  A    between atoms: C_84  and  N_93 
REMARK   37  A    between atoms: C_85  and  C_86 
REMARK       I    between atoms: N_93  and  C_94 
REMARK   38  A    between atoms: C_94  and  C_96 
REMARK   39  A    between atoms: C_96  and  C_97 
REMARK   40  A    between atoms: C_96  and  N_108 
REMARK   41  A    between atoms: C_97  and  C_98 
REMARK       I    between atoms: N_108  and  C_109 
ROOT
HETATM    1  C   UNK N   1      28.768  13.966   3.992  0.00  0.00     0.180 C 
ENDROOT
BRANCH   1   2
HETATM    2  C   UNK N   1      27.324  13.582   3.871  0.00  0.00     0.241 C 
HETATM    3  N   UNK N   1      26.778  12.695   4.724  0.00  0.00    -0.346 N 
HETATM    4  H   UNK N   1      27.344  12.023   5.168  0.00  0.00     0.163 HD
HETATM    5  O   UNK N   1      26.615  14.184   3.074  0.00  0.00    -0.271 OA
BRANCH   3   6
HETATM    6  C   UNK N   1      25.370  12.734   4.981  0.00  0.00     0.180 C 
BRANCH   6   7
HETATM    7  C   UNK N   1      24.919  11.284   4.775  0.00  0.00     0.241 C 
HETATM    8  N   UNK N   1      23.778  11.028   4.109  0.00  0.00    -0.346 N 
HETATM    9  H   UNK N   1      23.485  10.094   4.001  0.00  0.00     0.163 HD
HETATM   10  O   UNK N   1      25.702  10.361   4.922  0.00  0.00    -0.271 OA
BRANCH   8  11
HETATM   11  C   UNK N   1      22.976  12.079   3.553  0.00  0.00     0.177 C 
BRANCH  11  12
HETATM   12  C   UNK N   1      21.652  12.228   4.254  0.00  0.00     0.241 C 
HETATM   13  N   UNK N   1      20.843  13.311   4.113  0.00  0.00    -0.346 N 
HETATM   14  H   UNK N   1      20.032  13.319   4.673  0.00  0.00     0.163 HD
HETATM   15  O   UNK N   1      21.277  11.310   4.963  0.00  0.00    -0.271 OA
BRANCH  13  16
HETATM   16  C   UNK N   1      21.021  14.454   3.243  0.00  0.00     0.176 C 
BRANCH  16  17
HETATM   17  C   UNK N   1      20.747  15.793   3.889  0.00  0.00     0.243 C 
HETATM   18  N   UNK N   1      21.713  16.461   4.590  0.00  0.00    -0.337 N 
HETATM   19  C   UNK N   1      23.090  16.074   4.664  0.00  0.00     0.127 C 
HETATM   20  C   UNK N   1      21.393  17.643   5.343  0.00  0.00     0.179 C 
HETATM   21  C   UNK N   1      23.779  17.228   5.377  0.00  0.00     0.022 C 
HETATM   22  C   UNK N   1      22.736  18.347   5.441  0.00  0.00     0.037 C 
HETATM   23  O   UNK N   1      19.624  16.249   3.805  0.00  0.00    -0.271 OA
BRANCH  20  24
HETATM   24  C   UNK N   1      21.036  17.201   6.736  0.00  0.00     0.241 C 
HETATM   25  N   UNK N   1      20.082  17.869   7.434  0.00  0.00    -0.346 N 
HETATM   26  H   UNK N   1      19.538  18.546   6.971  0.00  0.00     0.163 HD
HETATM   27  O   UNK N   1      21.659  16.291   7.266  0.00  0.00    -0.271 OA
BRANCH  25  28
HETATM   28  C   UNK N   1      19.843  17.616   8.841  0.00  0.00     0.172 C 
HETATM   29  C   UNK N   1      19.797  18.920   9.640  0.00  0.00     0.042 C 
BRANCH  28  30
HETATM   30  C   UNK N   1      18.591  16.787   8.981  0.00  0.00     0.237 C 
HETATM   31  O   UNK N   1      18.650  15.580   9.153  0.00  0.00    -0.271 OA
HETATM   32  N   UNK N   1      17.389  17.398   8.961  0.00  0.00    -0.368 N 
HETATM   33  H   UNK N   1      16.707  17.143   8.299  0.00  0.00     0.159 HD
HETATM   34  H   UNK N   1      17.192  18.106   9.615  0.00  0.00     0.159 HD
ENDBRANCH  28  30
ENDBRANCH  25  28
ENDBRANCH  20  24
ENDBRANCH  16  17
BRANCH  16  35
HETATM   35  C   UNK N   1      20.044  14.300   2.085  0.00  0.00     0.035 C 
BRANCH  35  36
HETATM   36  C   UNK N   1      20.499  15.014   0.822  0.00  0.00     0.004 C 
BRANCH  36  37
HETATM   37  C   UNK N   1      19.580  16.154   0.411  0.00  0.00     0.019 C 
BRANCH  37  38
HETATM   38  C   UNK N   1      20.287  17.499   0.536  0.00  0.00     0.114 C 
BRANCH  38  39
HETATM   39  N   UNK N   1      19.730  18.314   1.617  0.00  0.00    -0.418 N 
HETATM   40  H   UNK N   1      18.818  18.175   2.052  0.00  0.00     0.153 HD
BRANCH  39  41
HETATM   41  C   UNK N   1      20.690  19.359   1.973  0.00  0.00     0.068 C 
HETATM   42  C   UNK N   1      20.203  20.121   3.186  0.00  0.00     0.031 C 
HETATM   43  C   UNK N   1      20.871  20.347   0.836  0.00  0.00     0.031 C 
ENDBRANCH  39  41
ENDBRANCH  38  39
ENDBRANCH  37  38
ENDBRANCH  36  37
ENDBRANCH  35  36
ENDBRANCH  16  35
ENDBRANCH  13  16
ENDBRANCH  11  12
BRANCH  11  44
HETATM   44  C   UNK N   1      22.929  11.964   2.041  0.00  0.00     0.038 C 
BRANCH  44  45
HETATM   45  C   UNK N   1      24.090  12.683   1.378  0.00  0.00    -0.020 C 
HETATM   46  C   UNK N   1      23.659  13.431   0.132  0.00  0.00     0.009 C 
HETATM   47  C   UNK N   1      25.145  11.664   1.008  0.00  0.00     0.009 C 
ENDBRANCH  44  45
ENDBRANCH  11  44
ENDBRANCH   8  11
ENDBRANCH   6   7
BRANCH   6  48
HETATM   48  C   UNK N   1      25.019  13.599   6.253  0.00  0.00     0.073 C 
BRANCH  48  49
HETATM   49  C   UNK N   1      24.584  12.895   7.510  0.00  0.00    -0.056 C 
HETATM   50  C   UNK N   1      23.653  11.873   7.432  0.00  0.00     0.009 C 
HETATM   51  C   UNK N   1      23.058  11.359   8.558  0.00  0.00     0.030 C 
HETATM   52  C   UNK N   1      23.442  11.807   9.811  0.00  0.00     0.034 C 
HETATM   53  C   UNK N   1      24.470  12.754   9.932  0.00  0.00     0.030 C 
HETATM   54  C   UNK N   1      25.051  13.295   8.772  0.00  0.00     0.009 C 
BRANCH  52  55
HETATM   55  N   UNK N   1      22.520  11.606  10.853  0.00  0.00    -0.328 N 
HETATM   56  C   UNK N   1      21.441  12.430  10.919  0.00  0.00     0.218 C 
HETATM   57  O   UNK N   1      21.389  13.447  10.237  0.00  0.00    -0.274 OA
HETATM   58  C   UNK N   1      20.267  12.042  11.737  0.00  0.00     0.117 C 
HETATM   59  H   UNK N   1      22.653  10.889  11.516  0.00  0.00     0.169 HD
ENDBRANCH  52  55
ENDBRANCH  48  49
ENDBRANCH   6  48
ENDBRANCH   3   6
ENDBRANCH   1   2
BRANCH   1  60
HETATM   60  C   UNK N   1      29.111  14.645   5.298  0.00  0.00     0.073 C 
BRANCH  60  61
HETATM   61  C   UNK N   1      28.551  16.005   5.434  0.00  0.00    -0.056 A 
HETATM   62  C   UNK N   1      29.092  17.004   4.631  0.00  0.00     0.009 A 
HETATM   63  C   UNK N   1      28.754  18.328   4.855  0.00  0.00     0.030 A 
HETATM   64  C   UNK N   1      27.858  18.658   5.877  0.00  0.00     0.034 A 
HETATM   65  C   UNK N   1      27.261  17.653   6.642  0.00  0.00     0.030 A 
HETATM   66  C   UNK N   1      27.600  16.322   6.416  0.00  0.00     0.009 A 
BRANCH  64  67
HETATM   67  N   UNK N   1      27.863  19.973   6.379  0.00  0.00    -0.328 N 
HETATM   68  C   UNK N   1      26.951  20.867   5.904  0.00  0.00     0.218 C 
HETATM   69  O   UNK N   1      26.947  22.009   6.326  0.00  0.00    -0.274 OA
HETATM   70  C   UNK N   1      25.976  20.491   4.817  0.00  0.00     0.117 C 
HETATM   71  H   UNK N   1      28.516  20.242   7.064  0.00  0.00     0.169 HD
ENDBRANCH  64  67
ENDBRANCH  60  61
ENDBRANCH   1  60
BRANCH   1  72
HETATM   72  N   UNK N   1      29.540  12.769   3.868  0.00  0.00    -0.346 N 
HETATM   73  C   UNK N   1      30.618  12.750   3.057  0.00  0.00     0.243 C 
HETATM   74  O   UNK N   1      30.887  13.717   2.349  0.00  0.00    -0.271 OA
HETATM   75  H   UNK N   1      29.286  11.962   4.373  0.00  0.00     0.163 HD
BRANCH  73  76
HETATM   76  C   UNK N   1      31.535  11.601   3.105  0.00  0.00     0.200 C 
BRANCH  76  77
HETATM   77  C   UNK N   1      30.955  10.524   2.198  0.00  0.00     0.199 C 
BRANCH  77  78
HETATM   78  O   UNK N   1      30.060   9.700   2.887  0.00  0.00    -0.398 OA
HETATM   79  H   UNK N   1      29.598   8.873   2.679  0.00  0.00     0.209 HD
ENDBRANCH  77  78
ENDBRANCH  76  77
BRANCH  76  80
HETATM   80  N   UNK N   1      31.638  11.153   4.471  0.00  0.00    -0.344 N 
HETATM   81  C   UNK N   1      32.532  11.692   5.344  0.00  0.00     0.241 C 
HETATM   82  O   UNK N   1      32.514  11.322   6.505  0.00  0.00    -0.271 OA
HETATM   83  H   UNK N   1      31.042  10.435   4.783  0.00  0.00     0.163 HD
BRANCH  81  84
HETATM   84  C   UNK N   1      33.603  12.697   4.913  0.00  0.00     0.180 C 
BRANCH  84  85
HETATM   85  C   UNK N   1      33.161  14.174   4.938  0.00  0.00     0.074 C 
BRANCH  85  86
HETATM   86  C   UNK N   1      33.324  14.817   6.294  0.00  0.00    -0.040 A 
HETATM   87  C   UNK N   1      32.345  14.679   7.278  0.00  0.00     0.010 A 
HETATM   88  C   UNK N   1      32.535  15.271   8.531  0.00  0.00     0.018 A 
HETATM   89  C   UNK N   1      33.700  16.000   8.779  0.00  0.00     0.087 A 
HETATM   90  N   UNK N   1      34.643  16.130   7.809  0.00  0.00    -0.375 N 
HETATM   91  C   UNK N   1      34.480  15.553   6.590  0.00  0.00     0.094 A 
ATOM     92  HN  UNK N   1      35.488  16.668   7.999  1.00  0.00     0.164 HD
ENDBRANCH  85  86
ENDBRANCH  84  85
BRANCH  84  93
HETATM   93  N   UNK N   1      34.317  12.361   3.692  0.00  0.00    -0.346 N 
HETATM   94  C   UNK N   1      35.659  12.290   3.544  0.00  0.00     0.241 C 
HETATM   95  O   UNK N   1      36.123  12.157   2.425  0.00  0.00    -0.271 OA
HETATM   96  H   UNK N   1      33.772  12.165   2.897  0.00  0.00     0.163 HD
BRANCH  94  97
HETATM   97  C   UNK N   1      36.592  12.408   4.703  0.00  0.00     0.180 C 
BRANCH  97  98
HETATM   98  C   UNK N   1      36.902  11.212   5.600  0.00  0.00     0.073 C 
BRANCH  98  99
HETATM   99  C   UNK N   1      36.137  11.138   6.872  0.00  0.00    -0.056 A 
HETATM  100  C   UNK N   1      35.861   9.886   7.432  0.00  0.00     0.009 A 
HETATM  101  C   UNK N   1      35.211   9.796   8.666  0.00  0.00     0.024 A 
HETATM  102  C   UNK N   1      34.843  10.961   9.348  0.00  0.00     0.034 A 
HETATM  103  C   UNK N   1      35.127  12.215   8.794  0.00  0.00     0.024 A 
HETATM  104 Cl   UNK N   1      33.987  10.849  10.870  0.00  0.00    -0.084 Cl
HETATM  105  C   UNK N   1      35.784  12.304   7.562  0.00  0.00     0.009 A 
ENDBRANCH  98  99
ENDBRANCH  97  98
BRANCH  97 106
HETATM  106  N   UNK N   1      37.095  13.728   5.017  0.00  0.00    -0.346 N 
HETATM  107  C   UNK N   1      38.378  14.008   5.337  0.00  0.00     0.241 C 
HETATM  108  O   UNK N   1      38.708  15.172   5.499  0.00  0.00    -0.271 OA
HETATM  109  H   UNK N   1      36.455  14.477   4.996  0.00  0.00     0.163 HD
BRANCH 107 110
HETATM  110  C   UNK N   1      39.403  12.934   5.508  0.00  0.00     0.180 C 
BRANCH 110 111
HETATM  111  C   UNK N   1      40.288  13.175   6.723  0.00  0.00     0.073 C 
BRANCH 111 112
HETATM  112  C   UNK N   1      39.534  12.760   7.925  0.00  0.00    -0.055 A 
HETATM  113  C   UNK N   1      39.027  13.749   8.768  0.00  0.00     0.008 A 
HETATM  114  C   UNK N   1      38.407  13.401   9.966  0.00  0.00     0.013 A 
HETATM  115  C   UNK N   1      38.302  12.058  10.329  0.00  0.00    -0.026 A 
HETATM  116  C   UNK N   1      37.709  11.710  11.542  0.00  0.00     0.012 A 
HETATM  117  C   UNK N   1      38.806  11.051   9.473  0.00  0.00    -0.025 A 
HETATM  118  C   UNK N   1      37.612  10.364  11.909  0.00  0.00     0.001 A 
HETATM  119  C   UNK N   1      38.103   9.366  11.061  0.00  0.00     0.001 A 
HETATM  120  C   UNK N   1      38.701   9.707   9.843  0.00  0.00     0.012 A 
HETATM  121  C   UNK N   1      39.426  11.406   8.272  0.00  0.00     0.019 A 
ENDBRANCH 111 112
ENDBRANCH 110 111
BRANCH 110 122
HETATM  122  N   UNK N   1      40.199  12.820   4.315  0.00  0.00    -0.348 N 
HETATM  123  C   UNK N   1      40.597  11.623   3.831  0.00  0.00     0.214 C 
HETATM  124  O   UNK N   1      41.255  11.581   2.806  0.00  0.00    -0.274 OA
HETATM  125  C   UNK N   1      40.232  10.347   4.522  0.00  0.00     0.117 C 
HETATM  126  H   UNK N   1      40.460  13.639   3.835  0.00  0.00     0.163 HD
ENDBRANCH 110 122
ENDBRANCH 107 110
ENDBRANCH  97 106
ENDBRANCH  94  97
ENDBRANCH  84  93
ENDBRANCH  81  84
ENDBRANCH  76  80
ENDBRANCH  73  76
ENDBRANCH   1  72
TORSDOF 41
ENDMDL
MODEL 3
REMARK VINA RESULT:      -8.3      3.465      6.881
REMARK WARNING: 32 MAX_TORS EXCEEDED!!!
REMARK  41 active torsions:
REMARK  status: ('A' for Active; 'I' for Inactive)
REMARK    1  A    between atoms: C_2  and  C_3 
REMARK    2  A    between atoms: C_2  and  N_6 
REMARK       I    between atoms: C_3  and  N_5 
REMARK       I    between atoms: N_6  and  C_7 
REMARK    3  A    between atoms: C_9  and  C_7 
REMARK       I    between atoms: N_13  and  C_14 
REMARK    4  A    between atoms: C_14  and  C_16 
REMARK    5  A    between atoms: C_16  and  C_17 
REMARK    6  A    between atoms: C_16  and  N_25 
REMARK    7  A    between atoms: C_17  and  C_18 
REMARK    8  A    between atoms: C_18  and  C_19 
REMARK    9  A    between atoms: C_19  and  C_20 
REMARK   10  A    between atoms: C_20  and  N_21 
REMARK   11  A    between atoms: N_21  and  C_22 
REMARK       I    between atoms: N_25  and  C_26 
REMARK   12  A    between atoms: C_26  and  C_28 
REMARK   13  A    between atoms: C_28  and  C_29 
REMARK   14  A    between atoms: C_28  and  N_33 
REMARK   15  A    between atoms: C_29  and  C_30 
REMARK       I    between atoms: N_33  and  C_34 
REMARK   16  A    between atoms: C_34  and  C_36 
REMARK   17  A    between atoms: C_36  and  C_37 
REMARK   18  A    between atoms: C_36  and  N_48 
REMARK   19  A    between atoms: C_37  and  C_38 
REMARK   20  A    between atoms: C_41  and  N_44 
REMARK       I    between atoms: N_44  and  C_45 
REMARK       I    between atoms: N_48  and  C_49 
REMARK   21  A    between atoms: C_49  and  C_51 
REMARK   22  A    between atoms: C_51  and  C_52 
REMARK   23  A    between atoms: C_51  and  N_63 
REMARK   24  A    between atoms: C_52  and  C_53 
REMARK   25  A    between atoms: C_56  and  N_59 
REMARK       I    between atoms: N_59  and  C_60 
REMARK       I    between atoms: N_63  and  C_64 
REMARK   26  A    between atoms: C_64  and  C_66 
REMARK   27  A    between atoms: C_66  and  C_67 
REMARK   28  A    between atoms: C_66  and  N_69 
REMARK   29  A    between atoms: C_67  and  O_68 
REMARK       I    between atoms: N_69  and  C_70 
REMARK   30  A    between atoms: C_70  and  C_72 
REMARK   31  A    between atoms: C_72  and  C_73 
REMARK   32  A    between atoms: C_72  and  N_81 
REMARK   33  A    between atoms: C_73  and  C_74 
REMARK       I    between atoms: N_81  and  C_82 
REMARK   34  A    between atoms: C_82  and  C_84 
REMARK   35  A    between atoms: C_84  and  C_85 
REMARK   36  A    between atoms: C_84  and  N_93 
REMARK   37  A    between atoms: C_85  and  C_86 
REMARK       I    between atoms: N_93  and  C_94 
REMARK   38  A    between atoms: C_94  and  C_96 
REMARK   39  A    between atoms: C_96  and  C_97 
REMARK   40  A    between atoms: C_96  and  N_108 
REMARK   41  A    between atoms: C_97  and  C_98 
REMARK       I    between atoms: N_108  and  C_109 
ROOT
HETATM    1  C   UNK N   1      28.863  13.210   2.852  0.00  0.00     0.180 C 
ENDROOT
BRANCH   1   2
HETATM    2  C   UNK N   1      27.400  12.925   2.698  0.00  0.00     0.241 C 
HETATM    3  N   UNK N   1      26.517  13.367   3.612  0.00  0.00    -0.346 N 
HETATM    4  H   UNK N   1      26.804  13.535   4.538  0.00  0.00     0.163 HD
HETATM    5  O   UNK N   1      27.004  12.402   1.663  0.00  0.00    -0.271 OA
BRANCH   3   6
HETATM    6  C   UNK N   1      25.154  13.593   3.230  0.00  0.00     0.180 C 
BRANCH   6   7
HETATM    7  C   UNK N   1      24.345  12.947   4.359  0.00  0.00     0.241 C 
HETATM    8  N   UNK N   1      23.217  12.273   4.070  0.00  0.00    -0.346 N 
HETATM    9  H   UNK N   1      22.691  11.881   4.805  0.00  0.00     0.163 HD
HETATM   10  O   UNK N   1      24.843  12.764   5.456  0.00  0.00    -0.271 OA
BRANCH   8  11
HETATM   11  C   UNK N   1      22.758  12.111   2.721  0.00  0.00     0.177 C 
BRANCH  11  12
HETATM   12  C   UNK N   1      21.300  11.741   2.647  0.00  0.00     0.241 C 
HETATM   13  N   UNK N   1      20.289  12.597   2.953  0.00  0.00    -0.346 N 
HETATM   14  H   UNK N   1      19.381  12.217   2.927  0.00  0.00     0.163 HD
HETATM   15  O   UNK N   1      21.017  10.620   2.263  0.00  0.00    -0.271 OA
BRANCH  13  16
HETATM   16  C   UNK N   1      20.379  13.996   3.312  0.00  0.00     0.176 C 
BRANCH  16  17
HETATM   17  C   UNK N   1      19.775  14.348   4.653  0.00  0.00     0.243 C 
HETATM   18  N   UNK N   1      20.420  15.171   5.535  0.00  0.00    -0.337 N 
HETATM   19  C   UNK N   1      21.620  15.900   5.251  0.00  0.00     0.127 C 
HETATM   20  C   UNK N   1      19.920  15.357   6.870  0.00  0.00     0.179 C 
HETATM   21  C   UNK N   1      21.815  16.807   6.457  0.00  0.00     0.022 C 
HETATM   22  C   UNK N   1      20.519  16.697   7.263  0.00  0.00     0.037 C 
HETATM   23  O   UNK N   1      18.710  13.845   4.949  0.00  0.00    -0.271 OA
BRANCH  20  24
HETATM   24  C   UNK N   1      20.574  14.320   7.740  0.00  0.00     0.241 C 
HETATM   25  N   UNK N   1      21.187  14.692   8.893  0.00  0.00    -0.346 N 
HETATM   26  H   UNK N   1      21.076  15.615   9.216  0.00  0.00     0.163 HD
HETATM   27  O   UNK N   1      20.621  13.154   7.369  0.00  0.00    -0.271 OA
BRANCH  25  28
HETATM   28  C   UNK N   1      22.001  13.771   9.660  0.00  0.00     0.172 C 
HETATM   29  C   UNK N   1      21.138  12.726  10.371  0.00  0.00     0.042 C 
BRANCH  28  30
HETATM   30  C   UNK N   1      23.040  13.164   8.750  0.00  0.00     0.237 C 
HETATM   31  O   UNK N   1      23.279  11.967   8.776  0.00  0.00    -0.271 OA
HETATM   32  N   UNK N   1      23.683  13.952   7.865  0.00  0.00    -0.368 N 
HETATM   33  H   UNK N   1      24.665  14.019   7.873  0.00  0.00     0.159 HD
HETATM   34  H   UNK N   1      23.165  14.464   7.204  0.00  0.00     0.159 HD
ENDBRANCH  28  30
ENDBRANCH  25  28
ENDBRANCH  20  24
ENDBRANCH  16  17
BRANCH  16  35
HETATM   35  C   UNK N   1      19.623  14.786   2.252  0.00  0.00     0.035 C 
BRANCH  35  36
HETATM   36  C   UNK N   1      20.542  15.522   1.288  0.00  0.00     0.004 C 
BRANCH  36  37
HETATM   37  C   UNK N   1      20.205  16.998   1.146  0.00  0.00     0.019 C 
BRANCH  37  38
HETATM   38  C   UNK N   1      19.933  17.631   2.506  0.00  0.00     0.114 C 
BRANCH  38  39
HETATM   39  N   UNK N   1      19.254  18.922   2.385  0.00  0.00    -0.418 N 
HETATM   40  H   UNK N   1      18.322  19.065   1.996  0.00  0.00     0.153 HD
BRANCH  39  41
HETATM   41  C   UNK N   1      20.124  19.973   2.912  0.00  0.00     0.068 C 
HETATM   42  C   UNK N   1      20.901  20.618   1.785  0.00  0.00     0.031 C 
HETATM   43  C   UNK N   1      21.120  19.411   3.909  0.00  0.00     0.031 C 
ENDBRANCH  39  41
ENDBRANCH  38  39
ENDBRANCH  37  38
ENDBRANCH  36  37
ENDBRANCH  35  36
ENDBRANCH  16  35
ENDBRANCH  13  16
ENDBRANCH  11  12
BRANCH  11  44
HETATM   44  C   UNK N   1      23.717  11.235   1.938  0.00  0.00     0.038 C 
BRANCH  44  45
HETATM   45  C   UNK N   1      23.860  11.693   0.498  0.00  0.00    -0.020 C 
HETATM   46  C   UNK N   1      23.137  13.001   0.241  0.00  0.00     0.009 C 
HETATM   47  C   UNK N   1      23.293  10.624  -0.410  0.00  0.00     0.009 C 
ENDBRANCH  44  45
ENDBRANCH  11  44
ENDBRANCH   8  11
ENDBRANCH   6   7
BRANCH   6  48
HETATM   48  C   UNK N   1      24.920  15.059   2.696  0.00  0.00     0.073 C 
BRANCH  48  49
HETATM   49  C   UNK N   1      25.491  16.213   3.475  0.00  0.00    -0.056 C 
HETATM   50  C   UNK N   1      24.856  16.638   4.630  0.00  0.00     0.009 C 
HETATM   51  C   UNK N   1      25.201  17.816   5.245  0.00  0.00     0.030 C 
HETATM   52  C   UNK N   1      26.256  18.569   4.757  0.00  0.00     0.034 C 
HETATM   53  C   UNK N   1      27.001  18.106   3.661  0.00  0.00     0.030 C 
HETATM   54  C   UNK N   1      26.620  16.914   3.022  0.00  0.00     0.009 C 
BRANCH  52  55
HETATM   55  N   UNK N   1      26.267  19.929   5.113  0.00  0.00    -0.328 N 
HETATM   56  C   UNK N   1      27.111  20.323   6.105  0.00  0.00     0.218 C 
HETATM   57  O   UNK N   1      27.671  19.494   6.814  0.00  0.00    -0.274 OA
HETATM   58  C   UNK N   1      27.443  21.759   6.261  0.00  0.00     0.117 C 
HETATM   59  H   UNK N   1      25.682  20.577   4.658  0.00  0.00     0.169 HD
ENDBRANCH  52  55
ENDBRANCH  48  49
ENDBRANCH   6  48
ENDBRANCH   3   6
ENDBRANCH   1   2
BRANCH   1  60
HETATM   60  C   UNK N   1      29.578  13.455   1.542  0.00  0.00     0.073 C 
BRANCH  60  61
HETATM   61  C   UNK N   1      29.968  12.220   0.830  0.00  0.00    -0.056 A 
HETATM   62  C   UNK N   1      29.946  12.249  -0.560  0.00  0.00     0.009 A 
HETATM   63  C   UNK N   1      30.102  11.074  -1.276  0.00  0.00     0.030 A 
HETATM   64  C   UNK N   1      30.298   9.864  -0.603  0.00  0.00     0.034 A 
HETATM   65  C   UNK N   1      30.388   9.842   0.791  0.00  0.00     0.030 A 
HETATM   66  C   UNK N   1      30.232  11.023   1.511  0.00  0.00     0.009 A 
BRANCH  64  67
HETATM   67  N   UNK N   1      30.015   8.663  -1.279  0.00  0.00    -0.328 N 
HETATM   68  C   UNK N   1      31.005   8.056  -1.992  0.00  0.00     0.218 C 
HETATM   69  O   UNK N   1      30.773   7.018  -2.586  0.00  0.00    -0.274 OA
HETATM   70  C   UNK N   1      32.375   8.670  -2.114  0.00  0.00     0.117 C 
HETATM   71  H   UNK N   1      29.115   8.267  -1.237  0.00  0.00     0.169 HD
ENDBRANCH  64  67
ENDBRANCH  60  61
ENDBRANCH   1  60
BRANCH   1  72
HETATM   72  N   UNK N   1      28.988  14.371   3.678  0.00  0.00    -0.346 N 
HETATM   73  C   UNK N   1      29.656  14.290   4.847  0.00  0.00     0.243 C 
HETATM   74  O   UNK N   1      30.075  13.210   5.257  0.00  0.00    -0.271 OA
HETATM   75  H   UNK N   1      28.588  15.225   3.395  0.00  0.00     0.163 HD
BRANCH  73  76
HETATM   76  C   UNK N   1      29.977  15.524   5.580  0.00  0.00     0.200 C 
BRANCH  76  77
HETATM   77  C   UNK N   1      28.672  16.055   6.158  0.00  0.00     0.199 C 
BRANCH  77  78
HETATM   78  O   UNK N   1      27.636  15.125   6.027  0.00  0.00    -0.398 OA
HETATM   79  H   UNK N   1      26.817  14.945   6.514  0.00  0.00     0.209 HD
ENDBRANCH  77  78
ENDBRANCH  76  77
BRANCH  76  80
HETATM   80  N   UNK N   1      30.577  16.460   4.662  0.00  0.00    -0.344 N 
HETATM   81  C   UNK N   1      31.875  16.854   4.777  0.00  0.00     0.241 C 
HETATM   82  O   UNK N   1      32.342  17.588   3.922  0.00  0.00    -0.271 OA
HETATM   83  H   UNK N   1      30.031  16.824   3.928  0.00  0.00     0.163 HD
BRANCH  81  84
HETATM   84  C   UNK N   1      32.752  16.469   5.970  0.00  0.00     0.180 C 
BRANCH  84  85
HETATM   85  C   UNK N   1      32.459  17.238   7.273  0.00  0.00     0.074 C 
BRANCH  85  86
HETATM   86  C   UNK N   1      33.080  16.598   8.490  0.00  0.00    -0.040 A 
HETATM   87  C   UNK N   1      34.287  17.064   9.011  0.00  0.00     0.010 A 
HETATM   88  C   UNK N   1      34.827  16.463  10.152  0.00  0.00     0.018 A 
HETATM   89  C   UNK N   1      34.153  15.396  10.753  0.00  0.00     0.087 A 
HETATM   90  N   UNK N   1      32.981  14.950  10.232  0.00  0.00    -0.375 N 
HETATM   91  C   UNK N   1      32.437  15.529   9.130  0.00  0.00     0.094 A 
ATOM     92  HN  UNK N   1      32.500  14.168  10.675  1.00  0.00     0.164 HD
ENDBRANCH  85  86
ENDBRANCH  84  85
BRANCH  84  93
HETATM   93  N   UNK N   1      34.177  16.385   5.692  0.00  0.00    -0.346 N 
HETATM   94  C   UNK N   1      34.946  15.276   5.785  0.00  0.00     0.241 C 
HETATM   95  O   UNK N   1      36.156  15.388   5.681  0.00  0.00    -0.271 OA
HETATM   96  H   UNK N   1      34.625  17.214   5.409  0.00  0.00     0.163 HD
BRANCH  94  97
HETATM   97  C   UNK N   1      34.365  13.928   6.048  0.00  0.00     0.180 C 
BRANCH  97  98
HETATM   98  C   UNK N   1      33.457  13.240   5.031  0.00  0.00     0.073 C 
BRANCH  98  99
HETATM   99  C   UNK N   1      34.013  13.091   3.660  0.00  0.00    -0.056 A 
HETATM  100  C   UNK N   1      33.170  12.676   2.623  0.00  0.00     0.009 A 
HETATM  101  C   UNK N   1      33.652  12.603   1.313  0.00  0.00     0.024 A 
HETATM  102  C   UNK N   1      34.977  12.956   1.036  0.00  0.00     0.034 A 
HETATM  103  C   UNK N   1      35.819  13.381   2.071  0.00  0.00     0.024 A 
HETATM  104 Cl   UNK N   1      35.594  12.820  -0.595  0.00  0.00    -0.084 Cl
HETATM  105  C   UNK N   1      35.333  13.460   3.381  0.00  0.00     0.009 A 
ENDBRANCH  98  99
ENDBRANCH  97  98
BRANCH  97 106
HETATM  106  N   UNK N   1      34.595  13.351   7.355  0.00  0.00    -0.346 N 
HETATM  107  C   UNK N   1      35.692  12.642   7.702  0.00  0.00     0.241 C 
HETATM  108  O   UNK N   1      35.820  12.275   8.859  0.00  0.00    -0.271 OA
HETATM  109  H   UNK N   1      33.901  13.484   8.041  0.00  0.00     0.163 HD
BRANCH 107 110
HETATM  110  C   UNK N   1      36.751  12.285   6.709  0.00  0.00     0.180 C 
BRANCH 110 111
HETATM  111  C   UNK N   1      36.889  10.779   6.535  0.00  0.00     0.073 C 
BRANCH 111 112
HETATM  112  C   UNK N   1      35.995  10.363   5.434  0.00  0.00    -0.055 A 
HETATM  113  C   UNK N   1      34.693   9.969   5.746  0.00  0.00     0.008 A 
HETATM  114  C   UNK N   1      33.855   9.467   4.753  0.00  0.00     0.013 A 
HETATM  115  C   UNK N   1      34.322   9.347   3.444  0.00  0.00    -0.026 A 
HETATM  116  C   UNK N   1      33.493   8.817   2.455  0.00  0.00     0.012 A 
HETATM  117  C   UNK N   1      35.637   9.755   3.122  0.00  0.00    -0.025 A 
HETATM  118  C   UNK N   1      33.965   8.690   1.146  0.00  0.00     0.001 A 
HETATM  119  C   UNK N   1      35.264   9.099   0.823  0.00  0.00     0.001 A 
HETATM  120  C   UNK N   1      36.101   9.631   1.809  0.00  0.00     0.012 A 
HETATM  121  C   UNK N   1      36.473  10.259   4.121  0.00  0.00     0.019 A 
ENDBRANCH 111 112
ENDBRANCH 110 111
BRANCH 110 122
HETATM  122  N   UNK N   1      38.007  12.869   7.098  0.00  0.00    -0.348 N 
HETATM  123  C   UNK N   1      38.915  13.285   6.190  0.00  0.00     0.214 C 
HETATM  124  O   UNK N   1      39.957  13.789   6.573  0.00  0.00    -0.274 OA
HETATM  125  C   UNK N   1      38.661  13.151   4.721  0.00  0.00     0.117 C 
HETATM  126  H   UNK N   1      38.209  12.970   8.056  0.00  0.00     0.163 HD
ENDBRANCH 110 122
ENDBRANCH 107 110
ENDBRANCH  97 106
ENDBRANCH  94  97
ENDBRANCH  84  93
ENDBRANCH  81  84
ENDBRANCH  76  80
ENDBRANCH  73  76
ENDBRANCH   1  72
TORSDOF 41
ENDMDL
MODEL 4
REMARK VINA RESULT:      -8.3      2.256      4.347
REMARK WARNING: 32 MAX_TORS EXCEEDED!!!
REMARK  41 active torsions:
REMARK  status: ('A' for Active; 'I' for Inactive)
REMARK    1  A    between atoms: C_2  and  C_3 
REMARK    2  A    between atoms: C_2  and  N_6 
REMARK       I    between atoms: C_3  and  N_5 
REMARK       I    between atoms: N_6  and  C_7 
REMARK    3  A    between atoms: C_9  and  C_7 
REMARK       I    between atoms: N_13  and  C_14 
REMARK    4  A    between atoms: C_14  and  C_16 
REMARK    5  A    between atoms: C_16  and  C_17 
REMARK    6  A    between atoms: C_16  and  N_25 
REMARK    7  A    between atoms: C_17  and  C_18 
REMARK    8  A    between atoms: C_18  and  C_19 
REMARK    9  A    between atoms: C_19  and  C_20 
REMARK   10  A    between atoms: C_20  and  N_21 
REMARK   11  A    between atoms: N_21  and  C_22 
REMARK       I    between atoms: N_25  and  C_26 
REMARK   12  A    between atoms: C_26  and  C_28 
REMARK   13  A    between atoms: C_28  and  C_29 
REMARK   14  A    between atoms: C_28  and  N_33 
REMARK   15  A    between atoms: C_29  and  C_30 
REMARK       I    between atoms: N_33  and  C_34 
REMARK   16  A    between atoms: C_34  and  C_36 
REMARK   17  A    between atoms: C_36  and  C_37 
REMARK   18  A    between atoms: C_36  and  N_48 
REMARK   19  A    between atoms: C_37  and  C_38 
REMARK   20  A    between atoms: C_41  and  N_44 
REMARK       I    between atoms: N_44  and  C_45 
REMARK       I    between atoms: N_48  and  C_49 
REMARK   21  A    between atoms: C_49  and  C_51 
REMARK   22  A    between atoms: C_51  and  C_52 
REMARK   23  A    between atoms: C_51  and  N_63 
REMARK   24  A    between atoms: C_52  and  C_53 
REMARK   25  A    between atoms: C_56  and  N_59 
REMARK       I    between atoms: N_59  and  C_60 
REMARK       I    between atoms: N_63  and  C_64 
REMARK   26  A    between atoms: C_64  and  C_66 
REMARK   27  A    between atoms: C_66  and  C_67 
REMARK   28  A    between atoms: C_66  and  N_69 
REMARK   29  A    between atoms: C_67  and  O_68 
REMARK       I    between atoms: N_69  and  C_70 
REMARK   30  A    between atoms: C_70  and  C_72 
REMARK   31  A    between atoms: C_72  and  C_73 
REMARK   32  A    between atoms: C_72  and  N_81 
REMARK   33  A    between atoms: C_73  and  C_74 
REMARK       I    between atoms: N_81  and  C_82 
REMARK   34  A    between atoms: C_82  and  C_84 
REMARK   35  A    between atoms: C_84  and  C_85 
REMARK   36  A    between atoms: C_84  and  N_93 
REMARK   37  A    between atoms: C_85  and  C_86 
REMARK       I    between atoms: N_93  and  C_94 
REMARK   38  A    between atoms: C_94  and  C_96 
REMARK   39  A    between atoms: C_96  and  C_97 
REMARK   40  A    between atoms: C_96  and  N_108 
REMARK   41  A    between atoms: C_97  and  C_98 
REMARK       I    between atoms: N_108  and  C_109 
ROOT
HETATM    1  C   UNK N   1      29.117  13.846   2.705  0.00  0.00     0.180 C 
ENDROOT
BRANCH   1   2
HETATM    2  C   UNK N   1      27.729  13.292   2.599  0.00  0.00     0.241 C 
HETATM    3  N   UNK N   1      26.862  13.418   3.621  0.00  0.00    -0.346 N 
HETATM    4  H   UNK N   1      27.194  13.514   4.543  0.00  0.00     0.163 HD
HETATM    5  O   UNK N   1      27.350  12.843   1.524  0.00  0.00    -0.271 OA
BRANCH   3   6
HETATM    6  C   UNK N   1      25.454  13.409   3.361  0.00  0.00     0.180 C 
BRANCH   6   7
HETATM    7  C   UNK N   1      24.887  12.476   4.435  0.00  0.00     0.241 C 
HETATM    8  N   UNK N   1      23.882  11.636   4.126  0.00  0.00    -0.346 N 
HETATM    9  H   UNK N   1      23.509  11.055   4.829  0.00  0.00     0.163 HD
HETATM   10  O   UNK N   1      25.510  12.253   5.458  0.00  0.00    -0.271 OA
BRANCH   8  11
HETATM   11  C   UNK N   1      23.338  11.563   2.801  0.00  0.00     0.177 C 
BRANCH  11  12
HETATM   12  C   UNK N   1      21.937  11.011   2.782  0.00  0.00     0.241 C 
HETATM   13  N   UNK N   1      20.840  11.729   3.140  0.00  0.00    -0.346 N 
HETATM   14  H   UNK N   1      19.986  11.237   3.145  0.00  0.00     0.163 HD
HETATM   15  O   UNK N   1      21.782   9.867   2.394  0.00  0.00    -0.271 OA
BRANCH  13  16
HETATM   16  C   UNK N   1      20.767  13.125   3.515  0.00  0.00     0.176 C 
BRANCH  16  17
HETATM   17  C   UNK N   1      20.308  13.379   4.933  0.00  0.00     0.243 C 
HETATM   18  N   UNK N   1      21.059  14.114   5.809  0.00  0.00    -0.337 N 
HETATM   19  C   UNK N   1      22.246  14.839   5.464  0.00  0.00     0.127 C 
HETATM   20  C   UNK N   1      20.698  14.201   7.197  0.00  0.00     0.179 C 
HETATM   21  C   UNK N   1      22.584  15.640   6.712  0.00  0.00     0.022 C 
HETATM   22  C   UNK N   1      21.371  15.492   7.633  0.00  0.00     0.037 C 
HETATM   23  O   UNK N   1      19.263  12.875   5.294  0.00  0.00    -0.271 OA
BRANCH  20  24
HETATM   24  C   UNK N   1      21.405  13.083   7.913  0.00  0.00     0.241 C 
HETATM   25  N   UNK N   1      22.072  13.334   9.068  0.00  0.00    -0.346 N 
HETATM   26  H   UNK N   1      21.970  14.213   9.498  0.00  0.00     0.163 HD
HETATM   27  O   UNK N   1      21.444  11.966   7.412  0.00  0.00    -0.271 OA
BRANCH  25  28
HETATM   28  C   UNK N   1      22.932  12.345   9.687  0.00  0.00     0.172 C 
HETATM   29  C   UNK N   1      24.405  12.747   9.583  0.00  0.00     0.042 C 
BRANCH  28  30
HETATM   30  C   UNK N   1      22.476  12.121  11.106  0.00  0.00     0.237 C 
HETATM   31  O   UNK N   1      23.272  12.120  12.032  0.00  0.00    -0.271 OA
HETATM   32  N   UNK N   1      21.161  11.963  11.360  0.00  0.00    -0.368 N 
HETATM   33  H   UNK N   1      20.830  11.153  11.811  0.00  0.00     0.159 HD
HETATM   34  H   UNK N   1      20.526  12.665  11.092  0.00  0.00     0.159 HD
ENDBRANCH  28  30
ENDBRANCH  25  28
ENDBRANCH  20  24
ENDBRANCH  16  17
BRANCH  16  35
HETATM   35  C   UNK N   1      19.762  13.792   2.586  0.00  0.00     0.035 C 
BRANCH  35  36
HETATM   36  C   UNK N   1      20.410  14.434   1.368  0.00  0.00     0.004 C 
BRANCH  36  37
HETATM   37  C   UNK N   1      19.452  15.298   0.562  0.00  0.00     0.019 C 
BRANCH  37  38
HETATM   38  C   UNK N   1      19.936  16.742   0.503  0.00  0.00     0.114 C 
BRANCH  38  39
HETATM   39  N   UNK N   1      19.215  17.602   1.442  0.00  0.00    -0.418 N 
HETATM   40  H   UNK N   1      18.224  17.839   1.386  0.00  0.00     0.153 HD
BRANCH  39  41
HETATM   41  C   UNK N   1      20.141  18.067   2.474  0.00  0.00     0.068 C 
HETATM   42  C   UNK N   1      19.929  17.287   3.754  0.00  0.00     0.031 C 
HETATM   43  C   UNK N   1      19.929  19.538   2.779  0.00  0.00     0.031 C 
ENDBRANCH  39  41
ENDBRANCH  38  39
ENDBRANCH  37  38
ENDBRANCH  36  37
ENDBRANCH  35  36
ENDBRANCH  16  35
ENDBRANCH  13  16
ENDBRANCH  11  12
BRANCH  11  44
HETATM   44  C   UNK N   1      24.332  10.914   1.857  0.00  0.00     0.038 C 
BRANCH  44  45
HETATM   45  C   UNK N   1      24.270  11.515   0.464  0.00  0.00    -0.020 C 
HETATM   46  C   UNK N   1      23.443  12.786   0.429  0.00  0.00     0.009 C 
HETATM   47  C   UNK N   1      23.661  10.499  -0.477  0.00  0.00     0.009 C 
ENDBRANCH  44  45
ENDBRANCH  11  44
ENDBRANCH   8  11
ENDBRANCH   6   7
BRANCH   6  48
HETATM   48  C   UNK N   1      24.895  14.854   3.056  0.00  0.00     0.073 C 
BRANCH  48  49
HETATM   49  C   UNK N   1      25.564  16.039   3.700  0.00  0.00    -0.056 C 
HETATM   50  C   UNK N   1      26.027  15.937   5.002  0.00  0.00     0.009 C 
HETATM   51  C   UNK N   1      26.432  17.044   5.705  0.00  0.00     0.030 C 
HETATM   52  C   UNK N   1      26.459  18.285   5.090  0.00  0.00     0.034 C 
HETATM   53  C   UNK N   1      26.113  18.404   3.735  0.00  0.00     0.030 C 
HETATM   54  C   UNK N   1      25.671  17.269   3.033  0.00  0.00     0.009 C 
BRANCH  52  55
HETATM   55  N   UNK N   1      26.430  19.403   5.942  0.00  0.00    -0.328 N 
HETATM   56  C   UNK N   1      27.354  20.381   5.745  0.00  0.00     0.218 C 
HETATM   57  O   UNK N   1      28.314  20.193   5.006  0.00  0.00    -0.274 OA
HETATM   58  C   UNK N   1      27.145  21.722   6.339  0.00  0.00     0.117 C 
HETATM   59  H   UNK N   1      25.760  19.475   6.660  0.00  0.00     0.169 HD
ENDBRANCH  52  55
ENDBRANCH  48  49
ENDBRANCH   6  48
ENDBRANCH   3   6
ENDBRANCH   1   2
BRANCH   1  60
HETATM   60  C   UNK N   1      29.163  15.315   3.062  0.00  0.00     0.073 C 
BRANCH  60  61
HETATM   61  C   UNK N   1      30.343  15.703   3.862  0.00  0.00    -0.056 A 
HETATM   62  C   UNK N   1      30.111  16.335   5.078  0.00  0.00     0.009 A 
HETATM   63  C   UNK N   1      31.167  16.902   5.773  0.00  0.00     0.030 A 
HETATM   64  C   UNK N   1      32.465  16.824   5.259  0.00  0.00     0.034 A 
HETATM   65  C   UNK N   1      32.711  16.132   4.070  0.00  0.00     0.030 A 
HETATM   66  C   UNK N   1      31.650  15.562   3.373  0.00  0.00     0.009 A 
BRANCH  64  67
HETATM   67  N   UNK N   1      33.425  17.748   5.711  0.00  0.00    -0.328 N 
HETATM   68  C   UNK N   1      33.845  17.687   7.006  0.00  0.00     0.218 C 
HETATM   69  O   UNK N   1      34.672  18.483   7.412  0.00  0.00    -0.274 OA
HETATM   70  C   UNK N   1      33.264  16.687   7.973  0.00  0.00     0.117 C 
HETATM   71  H   UNK N   1      33.789  18.429   5.100  0.00  0.00     0.169 HD
ENDBRANCH  64  67
ENDBRANCH  60  61
ENDBRANCH   1  60
BRANCH   1  72
HETATM   72  N   UNK N   1      29.801  13.097   3.714  0.00  0.00    -0.346 N 
HETATM   73  C   UNK N   1      30.673  12.133   3.354  0.00  0.00     0.243 C 
HETATM   74  O   UNK N   1      30.814  11.824   2.174  0.00  0.00    -0.271 OA
HETATM   75  H   UNK N   1      29.635  13.285   4.666  0.00  0.00     0.163 HD
BRANCH  73  76
HETATM   76  C   UNK N   1      31.536  11.525   4.379  0.00  0.00     0.200 C 
BRANCH  76  77
HETATM   77  C   UNK N   1      30.952  10.158   4.706  0.00  0.00     0.199 C 
BRANCH  77  78
HETATM   78  O   UNK N   1      29.684  10.267   5.286  0.00  0.00    -0.398 OA
HETATM   79  H   UNK N   1      29.352  10.578   6.143  0.00  0.00     0.209 HD
ENDBRANCH  77  78
ENDBRANCH  76  77
BRANCH  76  80
HETATM   80  N   UNK N   1      31.558  12.389   5.532  0.00  0.00    -0.344 N 
HETATM   81  C   UNK N   1      32.720  12.862   6.060  0.00  0.00     0.241 C 
HETATM   82  O   UNK N   1      32.664  13.650   6.988  0.00  0.00    -0.271 OA
HETATM   83  H   UNK N   1      30.705  12.647   5.951  0.00  0.00     0.163 HD
BRANCH  81  84
HETATM   84  C   UNK N   1      34.095  12.393   5.580  0.00  0.00     0.180 C 
BRANCH  84  85
HETATM   85  C   UNK N   1      34.640  13.131   4.341  0.00  0.00     0.074 C 
BRANCH  85  86
HETATM   86  C   UNK N   1      36.115  13.437   4.436  0.00  0.00    -0.040 A 
HETATM   87  C   UNK N   1      37.009  12.980   3.466  0.00  0.00     0.010 A 
HETATM   88  C   UNK N   1      38.366  13.297   3.571  0.00  0.00     0.018 A 
HETATM   89  C   UNK N   1      38.813  14.062   4.652  0.00  0.00     0.087 A 
HETATM   90  N   UNK N   1      37.932  14.497   5.590  0.00  0.00    -0.375 N 
HETATM   91  C   UNK N   1      36.608  14.207   5.499  0.00  0.00     0.094 A 
ATOM     92  HN  UNK N   1      38.270  15.051   6.377  1.00  0.00     0.164 HD
ENDBRANCH  85  86
ENDBRANCH  84  85
BRANCH  84  93
HETATM   93  N   UNK N   1      34.262  10.953   5.476  0.00  0.00    -0.346 N 
HETATM   94  C   UNK N   1      35.083  10.186   6.229  0.00  0.00     0.241 C 
HETATM   95  O   UNK N   1      35.242   9.017   5.923  0.00  0.00    -0.271 OA
HETATM   96  H   UNK N   1      33.724  10.491   4.794  0.00  0.00     0.163 HD
BRANCH  94  97
HETATM   97  C   UNK N   1      35.830  10.736   7.397  0.00  0.00     0.180 C 
BRANCH  97  98
HETATM   98  C   UNK N   1      35.130  11.037   8.720  0.00  0.00     0.073 C 
BRANCH  98  99
HETATM   99  C   UNK N   1      35.221  12.441   9.198  0.00  0.00    -0.056 A 
HETATM  100  C   UNK N   1      34.201  12.955  10.007  0.00  0.00     0.009 A 
HETATM  101  C   UNK N   1      34.304  14.247  10.531  0.00  0.00     0.024 A 
HETATM  102  C   UNK N   1      35.433  15.025  10.255  0.00  0.00     0.034 A 
HETATM  103  C   UNK N   1      36.458  14.509   9.453  0.00  0.00     0.024 A 
HETATM  104 Cl   UNK N   1      35.540  16.658  10.871  0.00  0.00    -0.084 Cl
HETATM  105  C   UNK N   1      36.358  13.214   8.935  0.00  0.00     0.009 A 
ENDBRANCH  98  99
ENDBRANCH  97  98
BRANCH  97 106
HETATM  106  N   UNK N   1      37.219  11.087   7.190  0.00  0.00    -0.346 N 
HETATM  107  C   UNK N   1      38.270  10.417   7.712  0.00  0.00     0.241 C 
HETATM  108  O   UNK N   1      39.401  10.751   7.401  0.00  0.00    -0.271 OA
HETATM  109  H   UNK N   1      37.411  11.872   6.627  0.00  0.00     0.163 HD
BRANCH 107 110
HETATM  110  C   UNK N   1      38.088   9.282   8.669  0.00  0.00     0.180 C 
BRANCH 110 111
HETATM  111  C   UNK N   1      38.810   9.525   9.988  0.00  0.00     0.073 C 
BRANCH 111 112
HETATM  112  C   UNK N   1      37.807   9.963  10.982  0.00  0.00    -0.055 A 
HETATM  113  C   UNK N   1      36.746   9.107  11.280  0.00  0.00     0.008 A 
HETATM  114  C   UNK N   1      35.722   9.527  12.127  0.00  0.00     0.013 A 
HETATM  115  C   UNK N   1      35.753  10.810  12.671  0.00  0.00    -0.026 A 
HETATM  116  C   UNK N   1      34.714  11.242  13.495  0.00  0.00     0.012 A 
HETATM  117  C   UNK N   1      36.832  11.678  12.379  0.00  0.00    -0.025 A 
HETATM  118  C   UNK N   1      34.741  12.531  14.033  0.00  0.00     0.001 A 
HETATM  119  C   UNK N   1      35.810  13.389  13.752  0.00  0.00     0.001 A 
HETATM  120  C   UNK N   1      36.856  12.964  12.925  0.00  0.00     0.012 A 
HETATM  121  C   UNK N   1      37.856  11.252  11.530  0.00  0.00     0.019 A 
ENDBRANCH 111 112
ENDBRANCH 110 111
BRANCH 110 122
HETATM  122  N   UNK N   1      38.532   8.055   8.066  0.00  0.00    -0.348 N 
HETATM  123  C   UNK N   1      37.722   6.980   7.948  0.00  0.00     0.214 C 
HETATM  124  O   UNK N   1      38.142   5.970   7.413  0.00  0.00    -0.274 OA
HETATM  125  C   UNK N   1      36.313   7.013   8.451  0.00  0.00     0.117 C 
HETATM  126  H   UNK N   1      39.454   7.996   7.726  0.00  0.00     0.163 HD
ENDBRANCH 110 122
ENDBRANCH 107 110
ENDBRANCH  97 106
ENDBRANCH  94  97
ENDBRANCH  84  93
ENDBRANCH  81  84
ENDBRANCH  76  80
ENDBRANCH  73  76
ENDBRANCH   1  72
TORSDOF 41
ENDMDL
MODEL 5
REMARK VINA RESULT:      -8.2      3.422     13.425
REMARK WARNING: 32 MAX_TORS EXCEEDED!!!
REMARK  41 active torsions:
REMARK  status: ('A' for Active; 'I' for Inactive)
REMARK    1  A    between atoms: C_2  and  C_3 
REMARK    2  A    between atoms: C_2  and  N_6 
REMARK       I    between atoms: C_3  and  N_5 
REMARK       I    between atoms: N_6  and  C_7 
REMARK    3  A    between atoms: C_9  and  C_7 
REMARK       I    between atoms: N_13  and  C_14 
REMARK    4  A    between atoms: C_14  and  C_16 
REMARK    5  A    between atoms: C_16  and  C_17 
REMARK    6  A    between atoms: C_16  and  N_25 
REMARK    7  A    between atoms: C_17  and  C_18 
REMARK    8  A    between atoms: C_18  and  C_19 
REMARK    9  A    between atoms: C_19  and  C_20 
REMARK   10  A    between atoms: C_20  and  N_21 
REMARK   11  A    between atoms: N_21  and  C_22 
REMARK       I    between atoms: N_25  and  C_26 
REMARK   12  A    between atoms: C_26  and  C_28 
REMARK   13  A    between atoms: C_28  and  C_29 
REMARK   14  A    between atoms: C_28  and  N_33 
REMARK   15  A    between atoms: C_29  and  C_30 
REMARK       I    between atoms: N_33  and  C_34 
REMARK   16  A    between atoms: C_34  and  C_36 
REMARK   17  A    between atoms: C_36  and  C_37 
REMARK   18  A    between atoms: C_36  and  N_48 
REMARK   19  A    between atoms: C_37  and  C_38 
REMARK   20  A    between atoms: C_41  and  N_44 
REMARK       I    between atoms: N_44  and  C_45 
REMARK       I    between atoms: N_48  and  C_49 
REMARK   21  A    between atoms: C_49  and  C_51 
REMARK   22  A    between atoms: C_51  and  C_52 
REMARK   23  A    between atoms: C_51  and  N_63 
REMARK   24  A    between atoms: C_52  and  C_53 
REMARK   25  A    between atoms: C_56  and  N_59 
REMARK       I    between atoms: N_59  and  C_60 
REMARK       I    between atoms: N_63  and  C_64 
REMARK   26  A    between atoms: C_64  and  C_66 
REMARK   27  A    between atoms: C_66  and  C_67 
REMARK   28  A    between atoms: C_66  and  N_69 
REMARK   29  A    between atoms: C_67  and  O_68 
REMARK       I    between atoms: N_69  and  C_70 
REMARK   30  A    between atoms: C_70  and  C_72 
REMARK   31  A    between atoms: C_72  and  C_73 
REMARK   32  A    between atoms: C_72  and  N_81 
REMARK   33  A    between atoms: C_73  and  C_74 
REMARK       I    between atoms: N_81  and  C_82 
REMARK   34  A    between atoms: C_82  and  C_84 
REMARK   35  A    between atoms: C_84  and  C_85 
REMARK   36  A    between atoms: C_84  and  N_93 
REMARK   37  A    between atoms: C_85  and  C_86 
REMARK       I    between atoms: N_93  and  C_94 
REMARK   38  A    between atoms: C_94  and  C_96 
REMARK   39  A    between atoms: C_96  and  C_97 
REMARK   40  A    between atoms: C_96  and  N_108 
REMARK   41  A    between atoms: C_97  and  C_98 
REMARK       I    between atoms: N_108  and  C_109 
ROOT
HETATM    1  C   UNK N   1      26.373  11.730   5.148  0.00  0.00     0.180 C 
ENDROOT
BRANCH   1   2
HETATM    2  C   UNK N   1      27.770  12.023   4.691  0.00  0.00     0.241 C 
HETATM    3  N   UNK N   1      28.060  13.184   4.076  0.00  0.00    -0.346 N 
HETATM    4  H   UNK N   1      27.361  13.674   3.587  0.00  0.00     0.163 HD
HETATM    5  O   UNK N   1      28.670  11.252   5.004  0.00  0.00    -0.271 OA
BRANCH   3   6
HETATM    6  C   UNK N   1      29.394  13.704   4.136  0.00  0.00     0.180 C 
BRANCH   6   7
HETATM    7  C   UNK N   1      29.653  14.216   2.716  0.00  0.00     0.241 C 
HETATM    8  N   UNK N   1      30.900  14.182   2.212  0.00  0.00    -0.346 N 
HETATM    9  H   UNK N   1      31.061  14.534   1.306  0.00  0.00     0.163 HD
HETATM   10  O   UNK N   1      28.734  14.362   1.929  0.00  0.00    -0.271 OA
BRANCH   8  11
HETATM   11  C   UNK N   1      32.003  13.650   2.958  0.00  0.00     0.177 C 
BRANCH  11  12
HETATM   12  C   UNK N   1      32.949  14.721   3.434  0.00  0.00     0.241 C 
HETATM   13  N   UNK N   1      33.474  14.758   4.688  0.00  0.00    -0.346 N 
HETATM   14  H   UNK N   1      34.030  15.543   4.898  0.00  0.00     0.163 HD
HETATM   15  O   UNK N   1      33.281  15.581   2.639  0.00  0.00    -0.271 OA
BRANCH  13  16
HETATM   16  C   UNK N   1      33.319  13.789   5.752  0.00  0.00     0.176 C 
BRANCH  16  17
HETATM   17  C   UNK N   1      32.988  14.379   7.104  0.00  0.00     0.243 C 
HETATM   18  N   UNK N   1      33.396  15.636   7.457  0.00  0.00    -0.337 N 
HETATM   19  C   UNK N   1      34.023  16.573   6.574  0.00  0.00     0.127 C 
HETATM   20  C   UNK N   1      33.226  16.116   8.801  0.00  0.00     0.179 C 
HETATM   21  C   UNK N   1      34.091  17.868   7.371  0.00  0.00     0.022 C 
HETATM   22  C   UNK N   1      33.238  17.624   8.618  0.00  0.00     0.037 C 
HETATM   23  O   UNK N   1      32.377  13.687   7.895  0.00  0.00    -0.271 OA
BRANCH  20  24
HETATM   24  C   UNK N   1      34.475  15.764   9.562  0.00  0.00     0.241 C 
HETATM   25  N   UNK N   1      34.866  14.467   9.658  0.00  0.00    -0.346 N 
HETATM   26  H   UNK N   1      34.407  13.788   9.113  0.00  0.00     0.163 HD
HETATM   27  O   UNK N   1      35.093  16.637  10.158  0.00  0.00    -0.271 OA
BRANCH  25  28
HETATM   28  C   UNK N   1      35.939  14.054  10.540  0.00  0.00     0.172 C 
HETATM   29  C   UNK N   1      37.273  14.676  10.122  0.00  0.00     0.042 C 
BRANCH  28  30
HETATM   30  C   UNK N   1      35.552  14.375  11.962  0.00  0.00     0.237 C 
HETATM   31  O   UNK N   1      34.595  13.834  12.493  0.00  0.00    -0.271 OA
HETATM   32  N   UNK N   1      36.303  15.242  12.671  0.00  0.00    -0.368 N 
HETATM   33  H   UNK N   1      35.902  16.051  13.063  0.00  0.00     0.159 HD
HETATM   34  H   UNK N   1      37.263  15.064  12.797  0.00  0.00     0.159 HD
ENDBRANCH  28  30
ENDBRANCH  25  28
ENDBRANCH  20  24
ENDBRANCH  16  17
BRANCH  16  35
HETATM   35  C   UNK N   1      34.645  13.052   5.890  0.00  0.00     0.035 C 
BRANCH  35  36
HETATM   36  C   UNK N   1      35.829  13.854   5.372  0.00  0.00     0.004 C 
BRANCH  36  37
HETATM   37  C   UNK N   1      36.944  14.010   6.396  0.00  0.00     0.019 C 
BRANCH  37  38
HETATM   38  C   UNK N   1      38.161  13.177   6.011  0.00  0.00     0.114 C 
BRANCH  38  39
HETATM   39  N   UNK N   1      38.070  11.806   6.515  0.00  0.00    -0.418 N 
HETATM   40  H   UNK N   1      38.233  10.962   5.966  0.00  0.00     0.153 HD
BRANCH  39  41
HETATM   41  C   UNK N   1      37.707  11.839   7.932  0.00  0.00     0.068 C 
HETATM   42  C   UNK N   1      38.916  11.523   8.786  0.00  0.00     0.031 C 
HETATM   43  C   UNK N   1      36.629  10.820   8.245  0.00  0.00     0.031 C 
ENDBRANCH  39  41
ENDBRANCH  38  39
ENDBRANCH  37  38
ENDBRANCH  36  37
ENDBRANCH  35  36
ENDBRANCH  16  35
ENDBRANCH  13  16
ENDBRANCH  11  12
BRANCH  11  44
HETATM   44  C   UNK N   1      32.625  12.481   2.219  0.00  0.00     0.038 C 
BRANCH  44  45
HETATM   45  C   UNK N   1      32.378  11.161   2.929  0.00  0.00    -0.020 C 
HETATM   46  C   UNK N   1      33.672  10.443   3.260  0.00  0.00     0.009 C 
HETATM   47  C   UNK N   1      31.534  10.280   2.036  0.00  0.00     0.009 C 
ENDBRANCH  44  45
ENDBRANCH  11  44
ENDBRANCH   8  11
ENDBRANCH   6   7
BRANCH   6  48
HETATM   48  C   UNK N   1      29.645  14.551   5.444  0.00  0.00     0.073 C 
BRANCH  48  49
HETATM   49  C   UNK N   1      28.919  15.860   5.609  0.00  0.00    -0.056 C 
HETATM   50  C   UNK N   1      29.594  17.048   5.382  0.00  0.00     0.009 C 
HETATM   51  C   UNK N   1      29.051  18.258   5.737  0.00  0.00     0.030 C 
HETATM   52  C   UNK N   1      27.772  18.316   6.263  0.00  0.00     0.034 C 
HETATM   53  C   UNK N   1      27.013  17.143   6.393  0.00  0.00     0.030 C 
HETATM   54  C   UNK N   1      27.589  15.906   6.055  0.00  0.00     0.009 C 
BRANCH  52  55
HETATM   55  N   UNK N   1      27.458  19.464   7.011  0.00  0.00    -0.328 N 
HETATM   56  C   UNK N   1      26.970  20.545   6.347  0.00  0.00     0.218 C 
HETATM   57  O   UNK N   1      27.015  20.600   5.124  0.00  0.00    -0.274 OA
HETATM   58  C   UNK N   1      26.277  21.620   7.099  0.00  0.00     0.117 C 
HETATM   59  H   UNK N   1      27.588  19.484   7.988  0.00  0.00     0.169 HD
ENDBRANCH  52  55
ENDBRANCH  48  49
ENDBRANCH   6  48
ENDBRANCH   3   6
ENDBRANCH   1   2
BRANCH   1  60
HETATM   60  C   UNK N   1      25.619  12.951   5.625  0.00  0.00     0.073 C 
BRANCH  60  61
HETATM   61  C   UNK N   1      25.030  12.805   6.973  0.00  0.00    -0.056 A 
HETATM   62  C   UNK N   1      25.248  13.836   7.881  0.00  0.00     0.009 A 
HETATM   63  C   UNK N   1      24.899  13.668   9.211  0.00  0.00     0.030 A 
HETATM   64  C   UNK N   1      24.316  12.470   9.635  0.00  0.00     0.034 A 
HETATM   65  C   UNK N   1      24.035  11.458   8.714  0.00  0.00     0.030 A 
HETATM   66  C   UNK N   1      24.384  11.628   7.377  0.00  0.00     0.009 A 
BRANCH  64  67
HETATM   67  N   UNK N   1      24.376  12.138  11.002  0.00  0.00    -0.328 N 
HETATM   68  C   UNK N   1      23.215  11.988  11.698  0.00  0.00     0.218 C 
HETATM   69  O   UNK N   1      23.252  11.706  12.882  0.00  0.00    -0.274 OA
HETATM   70  C   UNK N   1      21.874  12.221  11.050  0.00  0.00     0.117 C 
HETATM   71  H   UNK N   1      25.245  12.017  11.448  0.00  0.00     0.169 HD
ENDBRANCH  64  67
ENDBRANCH  60  61
ENDBRANCH   1  60
BRANCH   1  72
HETATM   72  N   UNK N   1      25.675  11.151   4.042  0.00  0.00    -0.346 N 
HETATM   73  C   UNK N   1      25.439   9.823   4.024  0.00  0.00     0.243 C 
HETATM   74  O   UNK N   1      25.900   9.092   4.896  0.00  0.00    -0.271 OA
HETATM   75  H   UNK N   1      25.368  11.719   3.299  0.00  0.00     0.163 HD
BRANCH  73  76
HETATM   76  C   UNK N   1      24.530   9.268   3.008  0.00  0.00     0.200 C 
BRANCH  76  77
HETATM   77  C   UNK N   1      23.810   8.088   3.647  0.00  0.00     0.199 C 
BRANCH  77  78
HETATM   78  O   UNK N   1      23.023   8.493   4.730  0.00  0.00    -0.398 OA
HETATM   79  H   UNK N   1      22.719   9.350   5.068  0.00  0.00     0.209 HD
ENDBRANCH  77  78
ENDBRANCH  76  77
BRANCH  76  80
HETATM   80  N   UNK N   1      25.311   8.864   1.866  0.00  0.00    -0.344 N 
HETATM   81  C   UNK N   1      24.992   9.251   0.600  0.00  0.00     0.241 C 
HETATM   82  O   UNK N   1      25.738   8.939  -0.313  0.00  0.00    -0.271 OA
HETATM   83  H   UNK N   1      26.100   8.292   2.005  0.00  0.00     0.163 HD
BRANCH  81  84
HETATM   84  C   UNK N   1      23.703  10.004   0.267  0.00  0.00     0.180 C 
BRANCH  84  85
HETATM   85  C   UNK N   1      22.717   9.242  -0.640  0.00  0.00     0.074 C 
BRANCH  85  86
HETATM   86  C   UNK N   1      21.393   8.963   0.028  0.00  0.00    -0.040 A 
HETATM   87  C   UNK N   1      21.334   8.346   1.278  0.00  0.00     0.010 A 
HETATM   88  C   UNK N   1      20.093   8.118   1.880  0.00  0.00     0.018 A 
HETATM   89  C   UNK N   1      18.924   8.506   1.218  0.00  0.00     0.087 A 
HETATM   90  N   UNK N   1      18.998   9.102  -0.001  0.00  0.00    -0.375 N 
HETATM   91  C   UNK N   1      20.195   9.339  -0.596  0.00  0.00     0.094 A 
ATOM     92  HN  UNK N   1      18.138   9.376  -0.478  1.00  0.00     0.164 HD
ENDBRANCH  85  86
ENDBRANCH  84  85
BRANCH  84  93
HETATM   93  N   UNK N   1      23.880  11.384  -0.155  0.00  0.00    -0.346 N 
HETATM   94  C   UNK N   1      23.271  12.467   0.377  0.00  0.00     0.241 C 
HETATM   95  O   UNK N   1      23.388  13.544  -0.183  0.00  0.00    -0.271 OA
HETATM   96  H   UNK N   1      24.503  11.546  -0.899  0.00  0.00     0.163 HD
BRANCH  94  97
HETATM   97  C   UNK N   1      22.428  12.380   1.605  0.00  0.00     0.180 C 
BRANCH  97  98
HETATM   98  C   UNK N   1      23.000  12.690   2.986  0.00  0.00     0.073 C 
BRANCH  98  99
HETATM   99  C   UNK N   1      23.677  14.006   3.129  0.00  0.00    -0.056 A 
HETATM  100  C   UNK N   1      24.854  14.249   2.413  0.00  0.00     0.009 A 
HETATM  101  C   UNK N   1      25.464  15.506   2.472  0.00  0.00     0.024 A 
HETATM  102  C   UNK N   1      24.892  16.525   3.240  0.00  0.00     0.034 A 
HETATM  103  C   UNK N   1      23.709  16.286   3.950  0.00  0.00     0.024 A 
HETATM  104 Cl   UNK N   1      25.681  18.082   3.353  0.00  0.00    -0.084 Cl
HETATM  105  C   UNK N   1      23.095  15.030   3.885  0.00  0.00     0.009 A 
ENDBRANCH  98  99
ENDBRANCH  97  98
BRANCH  97 106
HETATM  106  N   UNK N   1      21.082  11.871   1.450  0.00  0.00    -0.346 N 
HETATM  107  C   UNK N   1      19.960  12.618   1.548  0.00  0.00     0.241 C 
HETATM  108  O   UNK N   1      18.880  12.100   1.314  0.00  0.00    -0.271 OA
HETATM  109  H   UNK N   1      20.976  10.911   1.260  0.00  0.00     0.163 HD
BRANCH 107 110
HETATM  110  C   UNK N   1      20.000  14.060   1.944  0.00  0.00     0.180 C 
BRANCH 110 111
HETATM  111  C   UNK N   1      18.948  14.395   2.992  0.00  0.00     0.073 C 
BRANCH 111 112
HETATM  112  C   UNK N   1      19.591  14.326   4.321  0.00  0.00    -0.055 A 
HETATM  113  C   UNK N   1      20.060  13.091   4.771  0.00  0.00     0.008 A 
HETATM  114  C   UNK N   1      20.572  12.962   6.061  0.00  0.00     0.013 A 
HETATM  115  C   UNK N   1      20.607  14.069   6.909  0.00  0.00    -0.026 A 
HETATM  116  C   UNK N   1      21.092  13.935   8.209  0.00  0.00     0.012 A 
HETATM  117  C   UNK N   1      20.142  15.325   6.453  0.00  0.00    -0.025 A 
HETATM  118  C   UNK N   1      21.118  15.043   9.061  0.00  0.00     0.001 A 
HETATM  119  C   UNK N   1      20.665  16.288   8.610  0.00  0.00     0.001 A 
HETATM  120  C   UNK N   1      20.176  16.431   7.307  0.00  0.00     0.012 A 
HETATM  121  C   UNK N   1      19.630  15.449   5.159  0.00  0.00     0.019 A 
ENDBRANCH 111 112
ENDBRANCH 110 111
BRANCH 110 122
HETATM  122  N   UNK N   1      19.844  14.893   0.782  0.00  0.00    -0.348 N 
HETATM  123  C   UNK N   1      20.184  16.200   0.787  0.00  0.00     0.214 C 
HETATM  124  O   UNK N   1      20.047  16.857  -0.230  0.00  0.00    -0.274 OA
HETATM  125  C   UNK N   1      20.739  16.852   2.014  0.00  0.00     0.117 C 
HETATM  126  H   UNK N   1      19.479  14.498  -0.043  0.00  0.00     0.163 HD
ENDBRANCH 110 122
ENDBRANCH 107 110
ENDBRANCH  97 106
ENDBRANCH  94  97
ENDBRANCH  84  93
ENDBRANCH  81  84
ENDBRANCH  76  80
ENDBRANCH  73  76
ENDBRANCH   1  72
TORSDOF 41
ENDMDL
MODEL 6
REMARK VINA RESULT:      -8.1      3.429     12.831
REMARK WARNING: 32 MAX_TORS EXCEEDED!!!
REMARK  41 active torsions:
REMARK  status: ('A' for Active; 'I' for Inactive)
REMARK    1  A    between atoms: C_2  and  C_3 
REMARK    2  A    between atoms: C_2  and  N_6 
REMARK       I    between atoms: C_3  and  N_5 
REMARK       I    between atoms: N_6  and  C_7 
REMARK    3  A    between atoms: C_9  and  C_7 
REMARK       I    between atoms: N_13  and  C_14 
REMARK    4  A    between atoms: C_14  and  C_16 
REMARK    5  A    between atoms: C_16  and  C_17 
REMARK    6  A    between atoms: C_16  and  N_25 
REMARK    7  A    between atoms: C_17  and  C_18 
REMARK    8  A    between atoms: C_18  and  C_19 
REMARK    9  A    between atoms: C_19  and  C_20 
REMARK   10  A    between atoms: C_20  and  N_21 
REMARK   11  A    between atoms: N_21  and  C_22 
REMARK       I    between atoms: N_25  and  C_26 
REMARK   12  A    between atoms: C_26  and  C_28 
REMARK   13  A    between atoms: C_28  and  C_29 
REMARK   14  A    between atoms: C_28  and  N_33 
REMARK   15  A    between atoms: C_29  and  C_30 
REMARK       I    between atoms: N_33  and  C_34 
REMARK   16  A    between atoms: C_34  and  C_36 
REMARK   17  A    between atoms: C_36  and  C_37 
REMARK   18  A    between atoms: C_36  and  N_48 
REMARK   19  A    between atoms: C_37  and  C_38 
REMARK   20  A    between atoms: C_41  and  N_44 
REMARK       I    between atoms: N_44  and  C_45 
REMARK       I    between atoms: N_48  and  C_49 
REMARK   21  A    between atoms: C_49  and  C_51 
REMARK   22  A    between atoms: C_51  and  C_52 
REMARK   23  A    between atoms: C_51  and  N_63 
REMARK   24  A    between atoms: C_52  and  C_53 
REMARK   25  A    between atoms: C_56  and  N_59 
REMARK       I    between atoms: N_59  and  C_60 
REMARK       I    between atoms: N_63  and  C_64 
REMARK   26  A    between atoms: C_64  and  C_66 
REMARK   27  A    between atoms: C_66  and  C_67 
REMARK   28  A    between atoms: C_66  and  N_69 
REMARK   29  A    between atoms: C_67  and  O_68 
REMARK       I    between atoms: N_69  and  C_70 
REMARK   30  A    between atoms: C_70  and  C_72 
REMARK   31  A    between atoms: C_72  and  C_73 
REMARK   32  A    between atoms: C_72  and  N_81 
REMARK   33  A    between atoms: C_73  and  C_74 
REMARK       I    between atoms: N_81  and  C_82 
REMARK   34  A    between atoms: C_82  and  C_84 
REMARK   35  A    between atoms: C_84  and  C_85 
REMARK   36  A    between atoms: C_84  and  N_93 
REMARK   37  A    between atoms: C_85  and  C_86 
REMARK       I    between atoms: N_93  and  C_94 
REMARK   38  A    between atoms: C_94  and  C_96 
REMARK   39  A    between atoms: C_96  and  C_97 
REMARK   40  A    between atoms: C_96  and  N_108 
REMARK   41  A    between atoms: C_97  and  C_98 
REMARK       I    between atoms: N_108  and  C_109 
ROOT
HETATM    1  C   UNK N   1      28.172  15.024   4.732  0.00  0.00     0.180 C 
ENDROOT
BRANCH   1   2
HETATM    2  C   UNK N   1      29.307  14.072   4.511  0.00  0.00     0.241 C 
HETATM    3  N   UNK N   1      30.290  14.369   3.641  0.00  0.00    -0.346 N 
HETATM    4  H   UNK N   1      30.118  14.980   2.888  0.00  0.00     0.163 HD
HETATM    5  O   UNK N   1      29.401  13.083   5.229  0.00  0.00    -0.271 OA
BRANCH   3   6
HETATM    6  C   UNK N   1      31.589  13.791   3.814  0.00  0.00     0.180 C 
BRANCH   6   7
HETATM    7  C   UNK N   1      31.664  12.720   2.721  0.00  0.00     0.241 C 
HETATM    8  N   UNK N   1      32.258  11.541   2.982  0.00  0.00    -0.346 N 
HETATM    9  H   UNK N   1      32.321  10.868   2.265  0.00  0.00     0.163 HD
HETATM   10  O   UNK N   1      30.944  12.781   1.739  0.00  0.00    -0.271 OA
BRANCH   8  11
HETATM   11  C   UNK N   1      32.803  11.239   4.272  0.00  0.00     0.177 C 
BRANCH  11  12
HETATM   12  C   UNK N   1      34.274  10.919   4.218  0.00  0.00     0.241 C 
HETATM   13  N   UNK N   1      35.193  11.456   5.064  0.00  0.00    -0.346 N 
HETATM   14  H   UNK N   1      36.132  11.217   4.887  0.00  0.00     0.163 HD
HETATM   15  O   UNK N   1      34.650  10.111   3.387  0.00  0.00    -0.271 OA
BRANCH  13  16
HETATM   16  C   UNK N   1      34.966  12.334   6.192  0.00  0.00     0.176 C 
BRANCH  16  17
HETATM   17  C   UNK N   1      36.130  13.233   6.542  0.00  0.00     0.243 C 
HETATM   18  N   UNK N   1      37.225  12.759   7.210  0.00  0.00    -0.337 N 
HETATM   19  C   UNK N   1      37.471  11.380   7.508  0.00  0.00     0.127 C 
HETATM   20  C   UNK N   1      38.242  13.655   7.688  0.00  0.00     0.179 C 
HETATM   21  C   UNK N   1      38.887  11.352   8.065  0.00  0.00     0.022 C 
HETATM   22  C   UNK N   1      39.456  12.748   7.802  0.00  0.00     0.037 C 
HETATM   23  O   UNK N   1      36.051  14.409   6.249  0.00  0.00    -0.271 OA
BRANCH  20  24
HETATM   24  C   UNK N   1      37.865  14.050   9.089  0.00  0.00     0.241 C 
HETATM   25  N   UNK N   1      36.610  14.493   9.354  0.00  0.00    -0.346 N 
HETATM   26  H   UNK N   1      35.921  14.420   8.654  0.00  0.00     0.163 HD
HETATM   27  O   UNK N   1      38.713  14.044   9.974  0.00  0.00    -0.271 OA
BRANCH  25  28
HETATM   28  C   UNK N   1      36.255  15.073  10.633  0.00  0.00     0.172 C 
HETATM   29  C   UNK N   1      35.405  16.333  10.455  0.00  0.00     0.042 C 
BRANCH  28  30
HETATM   30  C   UNK N   1      35.587  14.018  11.478  0.00  0.00     0.237 C 
HETATM   31  O   UNK N   1      34.493  14.215  11.984  0.00  0.00    -0.271 OA
HETATM   32  N   UNK N   1      36.189  12.823  11.641  0.00  0.00    -0.368 N 
HETATM   33  H   UNK N   1      36.403  12.487  12.541  0.00  0.00     0.159 HD
HETATM   34  H   UNK N   1      36.416  12.281  10.851  0.00  0.00     0.159 HD
ENDBRANCH  28  30
ENDBRANCH  25  28
ENDBRANCH  20  24
ENDBRANCH  16  17
BRANCH  16  35
HETATM   35  C   UNK N   1      34.692  11.453   7.404  0.00  0.00     0.035 C 
BRANCH  35  36
HETATM   36  C   UNK N   1      33.417  11.834   8.142  0.00  0.00     0.004 C 
BRANCH  36  37
HETATM   37  C   UNK N   1      33.458  11.500   9.625  0.00  0.00     0.019 C 
BRANCH  37  38
HETATM   38  C   UNK N   1      32.937  10.091   9.884  0.00  0.00     0.114 C 
BRANCH  38  39
HETATM   39  N   UNK N   1      31.897   9.707   8.929  0.00  0.00    -0.418 N 
HETATM   40  H   UNK N   1      31.190  10.331   8.542  0.00  0.00     0.153 HD
BRANCH  39  41
HETATM   41  C   UNK N   1      32.033   8.284   8.618  0.00  0.00     0.068 C 
HETATM   42  C   UNK N   1      33.396   8.010   8.020  0.00  0.00     0.031 C 
HETATM   43  C   UNK N   1      30.982   7.838   7.619  0.00  0.00     0.031 C 
ENDBRANCH  39  41
ENDBRANCH  38  39
ENDBRANCH  37  38
ENDBRANCH  36  37
ENDBRANCH  35  36
ENDBRANCH  16  35
ENDBRANCH  13  16
ENDBRANCH  11  12
BRANCH  11  44
HETATM   44  C   UNK N   1      31.923  10.239   4.997  0.00  0.00     0.038 C 
BRANCH  44  45
HETATM   45  C   UNK N   1      30.941   9.558   4.060  0.00  0.00    -0.020 C 
HETATM   46  C   UNK N   1      29.525   9.588   4.600  0.00  0.00     0.009 C 
HETATM   47  C   UNK N   1      31.371   8.121   3.868  0.00  0.00     0.009 C 
ENDBRANCH  44  45
ENDBRANCH  11  44
ENDBRANCH   8  11
ENDBRANCH   6   7
BRANCH   6  48
HETATM   48  C   UNK N   1      32.700  14.884   4.062  0.00  0.00     0.073 C 
BRANCH  48  49
HETATM   49  C   UNK N   1      32.751  15.574   5.400  0.00  0.00    -0.056 C 
HETATM   50  C   UNK N   1      32.279  14.917   6.524  0.00  0.00     0.009 C 
HETATM   51  C   UNK N   1      32.093  15.578   7.713  0.00  0.00     0.030 C 
HETATM   52  C   UNK N   1      32.453  16.910   7.829  0.00  0.00     0.034 C 
HETATM   53  C   UNK N   1      33.049  17.573   6.745  0.00  0.00     0.030 C 
HETATM   54  C   UNK N   1      33.207  16.896   5.524  0.00  0.00     0.009 C 
BRANCH  52  55
HETATM   55  N   UNK N   1      31.838  17.634   8.866  0.00  0.00    -0.328 N 
HETATM   56  C   UNK N   1      30.538  17.998   8.706  0.00  0.00     0.218 C 
HETATM   57  O   UNK N   1      29.992  17.902   7.613  0.00  0.00    -0.274 OA
HETATM   58  C   UNK N   1      29.739  18.413   9.884  0.00  0.00     0.117 C 
HETATM   59  H   UNK N   1      32.334  17.869   9.684  0.00  0.00     0.169 HD
ENDBRANCH  52  55
ENDBRANCH  48  49
ENDBRANCH   6  48
ENDBRANCH   3   6
ENDBRANCH   1   2
BRANCH   1  60
HETATM   60  C   UNK N   1      27.667  15.677   3.465  0.00  0.00     0.073 C 
BRANCH  60  61
HETATM   61  C   UNK N   1      27.409  17.126   3.598  0.00  0.00    -0.056 A 
HETATM   62  C   UNK N   1      28.455  17.924   4.046  0.00  0.00     0.009 A 
HETATM   63  C   UNK N   1      28.218  19.247   4.383  0.00  0.00     0.030 A 
HETATM   64  C   UNK N   1      26.932  19.781   4.257  0.00  0.00     0.034 A 
HETATM   65  C   UNK N   1      25.893  19.001   3.744  0.00  0.00     0.030 A 
HETATM   66  C   UNK N   1      26.132  17.673   3.404  0.00  0.00     0.009 A 
BRANCH  64  67
HETATM   67  N   UNK N   1      26.607  20.936   4.994  0.00  0.00    -0.328 N 
HETATM   68  C   UNK N   1      26.753  20.920   6.348  0.00  0.00     0.218 C 
HETATM   69  O   UNK N   1      26.471  21.910   6.999  0.00  0.00    -0.274 OA
HETATM   70  C   UNK N   1      27.202  19.678   7.075  0.00  0.00     0.117 C 
HETATM   71  H   UNK N   1      26.280  21.744   4.536  0.00  0.00     0.169 HD
ENDBRANCH  64  67
ENDBRANCH  60  61
ENDBRANCH   1  60
BRANCH   1  72
HETATM   72  N   UNK N   1      27.106  14.285   5.335  0.00  0.00    -0.346 N 
HETATM   73  C   UNK N   1      26.435  14.811   6.381  0.00  0.00     0.243 C 
HETATM   74  O   UNK N   1      26.791  15.874   6.882  0.00  0.00    -0.271 OA
HETATM   75  H   UNK N   1      26.863  13.396   4.989  0.00  0.00     0.163 HD
BRANCH  73  76
HETATM   76  C   UNK N   1      25.204  14.157   6.849  0.00  0.00     0.200 C 
BRANCH  76  77
HETATM   77  C   UNK N   1      24.046  15.089   6.517  0.00  0.00     0.199 C 
BRANCH  77  78
HETATM   78  O   UNK N   1      24.164  15.614   5.227  0.00  0.00    -0.398 OA
HETATM   79  H   UNK N   1      23.539  15.979   4.581  0.00  0.00     0.209 HD
ENDBRANCH  77  78
ENDBRANCH  76  77
BRANCH  76  80
HETATM   80  N   UNK N   1      25.318  13.926   8.266  0.00  0.00    -0.344 N 
HETATM   81  C   UNK N   1      24.579  12.978   8.906  0.00  0.00     0.241 C 
HETATM   82  O   UNK N   1      24.780  12.781  10.093  0.00  0.00    -0.271 OA
HETATM   83  H   UNK N   1      25.950  14.470   8.789  0.00  0.00     0.163 HD
BRANCH  81  84
HETATM   84  C   UNK N   1      23.462  12.195   8.213  0.00  0.00     0.180 C 
BRANCH  84  85
HETATM   85  C   UNK N   1      22.072  12.325   8.865  0.00  0.00     0.074 C 
BRANCH  85  86
HETATM   86  C   UNK N   1      21.337  13.575   8.448  0.00  0.00    -0.040 A 
HETATM   87  C   UNK N   1      21.161  14.637   9.337  0.00  0.00     0.010 A 
HETATM   88  C   UNK N   1      20.493  15.790   8.915  0.00  0.00     0.018 A 
HETATM   89  C   UNK N   1      20.002  15.862   7.608  0.00  0.00     0.087 A 
HETATM   90  N   UNK N   1      20.177  14.819   6.756  0.00  0.00    -0.375 N 
HETATM   91  C   UNK N   1      20.832  13.695   7.146  0.00  0.00     0.094 A 
ATOM     92  HN  UNK N   1      19.810  14.881   5.806  1.00  0.00     0.164 HD
ENDBRANCH  85  86
ENDBRANCH  84  85
BRANCH  84  93
HETATM   93  N   UNK N   1      23.783  10.817   7.878  0.00  0.00    -0.346 N 
HETATM   94  C   UNK N   1      23.283  10.109   6.841  0.00  0.00     0.241 C 
HETATM   95  O   UNK N   1      23.516   8.913   6.777  0.00  0.00    -0.271 OA
HETATM   96  H   UNK N   1      24.427  10.356   8.462  0.00  0.00     0.163 HD
BRANCH  94  97
HETATM   97  C   UNK N   1      22.424  10.734   5.794  0.00  0.00     0.180 C 
BRANCH  97  98
HETATM   98  C   UNK N   1      22.973  11.796   4.844  0.00  0.00     0.073 C 
BRANCH  98  99
HETATM   99  C   UNK N   1      24.181  11.409   4.067  0.00  0.00    -0.056 A 
HETATM  100  C   UNK N   1      24.510  10.055   3.946  0.00  0.00     0.009 A 
HETATM  101  C   UNK N   1      25.596   9.665   3.157  0.00  0.00     0.024 A 
HETATM  102  C   UNK N   1      26.349  10.628   2.478  0.00  0.00     0.034 A 
HETATM  103  C   UNK N   1      26.015  11.983   2.590  0.00  0.00     0.024 A 
HETATM  104 Cl   UNK N   1      27.736  10.145   1.529  0.00  0.00    -0.084 Cl
HETATM  105  C   UNK N   1      24.924  12.373   3.375  0.00  0.00     0.009 A 
ENDBRANCH  98  99
ENDBRANCH  97  98
BRANCH  97 106
HETATM  106  N   UNK N   1      21.019  10.387   5.795  0.00  0.00    -0.346 N 
HETATM  107  C   UNK N   1      20.500   9.274   5.230  0.00  0.00     0.241 C 
HETATM  108  O   UNK N   1      19.311   9.039   5.366  0.00  0.00    -0.271 OA
HETATM  109  H   UNK N   1      20.396  11.007   6.239  0.00  0.00     0.163 HD
BRANCH 107 110
HETATM  110  C   UNK N   1      21.339   8.325   4.436  0.00  0.00     0.180 C 
BRANCH 110 111
HETATM  111  C   UNK N   1      20.778   8.097   3.038  0.00  0.00     0.073 C 
BRANCH 111 112
HETATM  112  C   UNK N   1      21.475   9.014   2.112  0.00  0.00    -0.055 A 
HETATM  113  C   UNK N   1      22.490   8.501   1.303  0.00  0.00     0.008 A 
HETATM  114  C   UNK N   1      23.244   9.352   0.498  0.00  0.00     0.013 A 
HETATM  115  C   UNK N   1      22.991  10.724   0.509  0.00  0.00    -0.026 A 
HETATM  116  C   UNK N   1      23.764  11.580  -0.274  0.00  0.00     0.012 A 
HETATM  117  C   UNK N   1      21.957  11.247   1.320  0.00  0.00    -0.025 A 
HETATM  118  C   UNK N   1      23.516  12.955  -0.257  0.00  0.00     0.001 A 
HETATM  119  C   UNK N   1      22.489  13.475   0.540  0.00  0.00     0.001 A 
HETATM  120  C   UNK N   1      21.709  12.623   1.329  0.00  0.00     0.012 A 
HETATM  121  C   UNK N   1      21.203  10.389   2.125  0.00  0.00     0.019 A 
ENDBRANCH 111 112
ENDBRANCH 110 111
BRANCH 110 122
HETATM  122  N   UNK N   1      21.471   7.078   5.140  0.00  0.00    -0.348 N 
HETATM  123  C   UNK N   1      22.549   6.279   4.986  0.00  0.00     0.214 C 
HETATM  124  O   UNK N   1      22.620   5.240   5.619  0.00  0.00    -0.274 OA
HETATM  125  C   UNK N   1      23.665   6.652   4.061  0.00  0.00     0.117 C 
HETATM  126  H   UNK N   1      20.755   6.799   5.755  0.00  0.00     0.163 HD
ENDBRANCH 110 122
ENDBRANCH 107 110
ENDBRANCH  97 106
ENDBRANCH  94  97
ENDBRANCH  84  93
ENDBRANCH  81  84
ENDBRANCH  76  80
ENDBRANCH  73  76
ENDBRANCH   1  72
TORSDOF 41
ENDMDL
MODEL 7
REMARK VINA RESULT:      -8.1      3.401      6.844
REMARK WARNING: 32 MAX_TORS EXCEEDED!!!
REMARK  41 active torsions:
REMARK  status: ('A' for Active; 'I' for Inactive)
REMARK    1  A    between atoms: C_2  and  C_3 
REMARK    2  A    between atoms: C_2  and  N_6 
REMARK       I    between atoms: C_3  and  N_5 
REMARK       I    between atoms: N_6  and  C_7 
REMARK    3  A    between atoms: C_9  and  C_7 
REMARK       I    between atoms: N_13  and  C_14 
REMARK    4  A    between atoms: C_14  and  C_16 
REMARK    5  A    between atoms: C_16  and  C_17 
REMARK    6  A    between atoms: C_16  and  N_25 
REMARK    7  A    between atoms: C_17  and  C_18 
REMARK    8  A    between atoms: C_18  and  C_19 
REMARK    9  A    between atoms: C_19  and  C_20 
REMARK   10  A    between atoms: C_20  and  N_21 
REMARK   11  A    between atoms: N_21  and  C_22 
REMARK       I    between atoms: N_25  and  C_26 
REMARK   12  A    between atoms: C_26  and  C_28 
REMARK   13  A    between atoms: C_28  and  C_29 
REMARK   14  A    between atoms: C_28  and  N_33 
REMARK   15  A    between atoms: C_29  and  C_30 
REMARK       I    between atoms: N_33  and  C_34 
REMARK   16  A    between atoms: C_34  and  C_36 
REMARK   17  A    between atoms: C_36  and  C_37 
REMARK   18  A    between atoms: C_36  and  N_48 
REMARK   19  A    between atoms: C_37  and  C_38 
REMARK   20  A    between atoms: C_41  and  N_44 
REMARK       I    between atoms: N_44  and  C_45 
REMARK       I    between atoms: N_48  and  C_49 
REMARK   21  A    between atoms: C_49  and  C_51 
REMARK   22  A    between atoms: C_51  and  C_52 
REMARK   23  A    between atoms: C_51  and  N_63 
REMARK   24  A    between atoms: C_52  and  C_53 
REMARK   25  A    between atoms: C_56  and  N_59 
REMARK       I    between atoms: N_59  and  C_60 
REMARK       I    between atoms: N_63  and  C_64 
REMARK   26  A    between atoms: C_64  and  C_66 
REMARK   27  A    between atoms: C_66  and  C_67 
REMARK   28  A    between atoms: C_66  and  N_69 
REMARK   29  A    between atoms: C_67  and  O_68 
REMARK       I    between atoms: N_69  and  C_70 
REMARK   30  A    between atoms: C_70  and  C_72 
REMARK   31  A    between atoms: C_72  and  C_73 
REMARK   32  A    between atoms: C_72  and  N_81 
REMARK   33  A    between atoms: C_73  and  C_74 
REMARK       I    between atoms: N_81  and  C_82 
REMARK   34  A    between atoms: C_82  and  C_84 
REMARK   35  A    between atoms: C_84  and  C_85 
REMARK   36  A    between atoms: C_84  and  N_93 
REMARK   37  A    between atoms: C_85  and  C_86 
REMARK       I    between atoms: N_93  and  C_94 
REMARK   38  A    between atoms: C_94  and  C_96 
REMARK   39  A    between atoms: C_96  and  C_97 
REMARK   40  A    between atoms: C_96  and  N_108 
REMARK   41  A    between atoms: C_97  and  C_98 
REMARK       I    between atoms: N_108  and  C_109 
ROOT
HETATM    1  C   UNK N   1      25.880  14.471   2.324  0.00  0.00     0.180 C 
ENDROOT
BRANCH   1   2
HETATM    2  C   UNK N   1      25.305  13.126   2.651  0.00  0.00     0.241 C 
HETATM    3  N   UNK N   1      25.280  12.682   3.921  0.00  0.00    -0.346 N 
HETATM    4  H   UNK N   1      25.937  13.014   4.574  0.00  0.00     0.163 HD
HETATM    5  O   UNK N   1      24.736  12.495   1.768  0.00  0.00    -0.271 OA
BRANCH   3   6
HETATM    6  C   UNK N   1      24.293  11.722   4.317  0.00  0.00     0.180 C 
BRANCH   6   7
HETATM    7  C   UNK N   1      25.066  10.400   4.367  0.00  0.00     0.241 C 
HETATM    8  N   UNK N   1      24.705   9.386   3.560  0.00  0.00    -0.346 N 
HETATM    9  H   UNK N   1      25.193   8.532   3.615  0.00  0.00     0.163 HD
HETATM   10  O   UNK N   1      26.170  10.343   4.881  0.00  0.00    -0.271 OA
BRANCH   8  11
HETATM   11  C   UNK N   1      23.627   9.512   2.623  0.00  0.00     0.177 C 
BRANCH  11  12
HETATM   12  C   UNK N   1      22.280   9.284   3.258  0.00  0.00     0.241 C 
HETATM   13  N   UNK N   1      21.224  10.127   3.108  0.00  0.00    -0.346 N 
HETATM   14  H   UNK N   1      20.416   9.901   3.624  0.00  0.00     0.163 HD
HETATM   15  O   UNK N   1      22.126   8.270   3.916  0.00  0.00    -0.271 OA
BRANCH  13  16
HETATM   16  C   UNK N   1      21.138  11.316   2.286  0.00  0.00     0.176 C 
BRANCH  16  17
HETATM   17  C   UNK N   1      20.366  12.460   2.903  0.00  0.00     0.243 C 
HETATM   18  N   UNK N   1      20.595  13.758   2.537  0.00  0.00    -0.337 N 
HETATM   19  C   UNK N   1      21.442  14.169   1.458  0.00  0.00     0.127 C 
HETATM   20  C   UNK N   1      19.982  14.844   3.251  0.00  0.00     0.179 C 
HETATM   21  C   UNK N   1      21.205  15.667   1.330  0.00  0.00     0.022 C 
HETATM   22  C   UNK N   1      20.002  15.966   2.228  0.00  0.00     0.037 C 
HETATM   23  O   UNK N   1      19.556  12.200   3.771  0.00  0.00    -0.271 OA
BRANCH  20  24
HETATM   24  C   UNK N   1      20.928  15.246   4.349  0.00  0.00     0.241 C 
HETATM   25  N   UNK N   1      20.524  16.122   5.304  0.00  0.00    -0.346 N 
HETATM   26  H   UNK N   1      19.575  16.377   5.347  0.00  0.00     0.163 HD
HETATM   27  O   UNK N   1      22.084  14.843   4.337  0.00  0.00    -0.271 OA
BRANCH  25  28
HETATM   28  C   UNK N   1      21.451  16.695   6.260  0.00  0.00     0.172 C 
HETATM   29  C   UNK N   1      21.475  18.222   6.164  0.00  0.00     0.042 C 
BRANCH  28  30
HETATM   30  C   UNK N   1      21.102  16.191   7.639  0.00  0.00     0.237 C 
HETATM   31  O   UNK N   1      20.655  16.943   8.490  0.00  0.00    -0.271 OA
HETATM   32  N   UNK N   1      21.245  14.880   7.919  0.00  0.00    -0.368 N 
HETATM   33  H   UNK N   1      21.820  14.585   8.662  0.00  0.00     0.159 HD
HETATM   34  H   UNK N   1      20.771  14.211   7.374  0.00  0.00     0.159 HD
ENDBRANCH  28  30
ENDBRANCH  25  28
ENDBRANCH  20  24
ENDBRANCH  16  17
BRANCH  16  35
HETATM   35  C   UNK N   1      20.422  10.926   1.000  0.00  0.00     0.035 C 
BRANCH  35  36
HETATM   36  C   UNK N   1      19.970   9.473   0.986  0.00  0.00     0.004 C 
BRANCH  36  37
HETATM   37  C   UNK N   1      20.167   8.795  -0.361  0.00  0.00     0.019 C 
BRANCH  37  38
HETATM   38  C   UNK N   1      20.825   7.430  -0.195  0.00  0.00     0.114 C 
BRANCH  38  39
HETATM   39  N   UNK N   1      21.191   6.837  -1.482  0.00  0.00    -0.418 N 
HETATM   40  H   UNK N   1      20.535   6.510  -2.191  0.00  0.00     0.153 HD
BRANCH  39  41
HETATM   41  C   UNK N   1      22.649   6.788  -1.589  0.00  0.00     0.068 C 
HETATM   42  C   UNK N   1      23.071   6.966  -3.032  0.00  0.00     0.031 C 
HETATM   43  C   UNK N   1      23.190   5.457  -1.101  0.00  0.00     0.031 C 
ENDBRANCH  39  41
ENDBRANCH  38  39
ENDBRANCH  37  38
ENDBRANCH  36  37
ENDBRANCH  35  36
ENDBRANCH  16  35
ENDBRANCH  13  16
ENDBRANCH  11  12
BRANCH  11  44
HETATM   44  C   UNK N   1      23.923   8.718   1.366  0.00  0.00     0.038 C 
BRANCH  44  45
HETATM   45  C   UNK N   1      24.642   9.552   0.321  0.00  0.00    -0.020 C 
HETATM   46  C   UNK N   1      23.680  10.163  -0.680  0.00  0.00     0.009 C 
HETATM   47  C   UNK N   1      25.627   8.668  -0.411  0.00  0.00     0.009 C 
ENDBRANCH  44  45
ENDBRANCH  11  44
ENDBRANCH   8  11
ENDBRANCH   6   7
BRANCH   6  48
HETATM   48  C   UNK N   1      23.376  12.257   5.484  0.00  0.00     0.073 C 
BRANCH  48  49
HETATM   49  C   UNK N   1      23.912  12.243   6.891  0.00  0.00    -0.056 C 
HETATM   50  C   UNK N   1      23.729  11.119   7.679  0.00  0.00     0.009 C 
HETATM   51  C   UNK N   1      23.993  11.139   9.027  0.00  0.00     0.030 C 
HETATM   52  C   UNK N   1      24.526  12.276   9.612  0.00  0.00     0.034 C 
HETATM   53  C   UNK N   1      24.838  13.392   8.820  0.00  0.00     0.030 C 
HETATM   54  C   UNK N   1      24.537  13.371   7.447  0.00  0.00     0.009 C 
BRANCH  52  55
HETATM   55  N   UNK N   1      24.345  12.405  11.000  0.00  0.00    -0.328 N 
HETATM   56  C   UNK N   1      23.113  12.141  11.510  0.00  0.00     0.218 C 
HETATM   57  O   UNK N   1      22.143  12.017  10.770  0.00  0.00    -0.274 OA
HETATM   58  C   UNK N   1      22.956  11.891  12.963  0.00  0.00     0.117 C 
HETATM   59  H   UNK N   1      25.089  12.679  11.584  0.00  0.00     0.169 HD
ENDBRANCH  52  55
ENDBRANCH  48  49
ENDBRANCH   6  48
ENDBRANCH   3   6
ENDBRANCH   1   2
BRANCH   1  60
HETATM   60  C   UNK N   1      24.890  15.606   2.457  0.00  0.00     0.073 C 
BRANCH  60  61
HETATM   61  C   UNK N   1      25.336  16.690   3.358  0.00  0.00    -0.056 A 
HETATM   62  C   UNK N   1      24.936  16.621   4.688  0.00  0.00     0.009 A 
HETATM   63  C   UNK N   1      25.148  17.702   5.528  0.00  0.00     0.030 A 
HETATM   64  C   UNK N   1      25.776  18.853   5.043  0.00  0.00     0.034 A 
HETATM   65  C   UNK N   1      26.238  18.900   3.725  0.00  0.00     0.030 A 
HETATM   66  C   UNK N   1      26.026  17.814   2.881  0.00  0.00     0.009 A 
BRANCH  64  67
HETATM   67  N   UNK N   1      25.592  20.064   5.736  0.00  0.00    -0.328 N 
HETATM   68  C   UNK N   1      26.590  20.524   6.542  0.00  0.00     0.218 C 
HETATM   69  O   UNK N   1      26.442  21.567   7.151  0.00  0.00    -0.274 OA
HETATM   70  C   UNK N   1      27.859  19.737   6.747  0.00  0.00     0.117 C 
HETATM   71  H   UNK N   1      24.754  20.572   5.639  0.00  0.00     0.169 HD
ENDBRANCH  64  67
ENDBRANCH  60  61
ENDBRANCH   1  60
BRANCH   1  72
HETATM   72  N   UNK N   1      26.974  14.696   3.217  0.00  0.00    -0.346 N 
HETATM   73  C   UNK N   1      28.175  15.063   2.723  0.00  0.00     0.243 C 
HETATM   74  O   UNK N   1      28.365  15.113   1.511  0.00  0.00    -0.271 OA
HETATM   75  H   UNK N   1      26.852  14.583   4.187  0.00  0.00     0.163 HD
BRANCH  73  76
HETATM   76  C   UNK N   1      29.226  15.512   3.648  0.00  0.00     0.200 C 
BRANCH  76  77
HETATM   77  C   UNK N   1      28.531  16.058   4.888  0.00  0.00     0.199 C 
BRANCH  77  78
HETATM   78  O   UNK N   1      28.212  15.037   5.789  0.00  0.00    -0.398 OA
HETATM   79  H   UNK N   1      27.968  14.103   5.700  0.00  0.00     0.209 HD
ENDBRANCH  77  78
ENDBRANCH  76  77
BRANCH  76  80
HETATM   80  N   UNK N   1      30.018  16.519   2.989  0.00  0.00    -0.344 N 
HETATM   81  C   UNK N   1      31.370  16.414   2.871  0.00  0.00     0.241 C 
HETATM   82  O   UNK N   1      31.971  17.263   2.234  0.00  0.00    -0.271 OA
HETATM   83  H   UNK N   1      29.567  17.308   2.611  0.00  0.00     0.163 HD
BRANCH  81  84
HETATM   84  C   UNK N   1      32.176  15.310   3.560  0.00  0.00     0.180 C 
BRANCH  84  85
HETATM   85  C   UNK N   1      33.448  15.787   4.288  0.00  0.00     0.074 C 
BRANCH  85  86
HETATM   86  C   UNK N   1      33.177  16.294   5.683  0.00  0.00    -0.040 A 
HETATM   87  C   UNK N   1      34.109  17.086   6.355  0.00  0.00     0.010 A 
HETATM   88  C   UNK N   1      33.820  17.557   7.639  0.00  0.00     0.018 A 
HETATM   89  C   UNK N   1      32.602  17.223   8.238  0.00  0.00     0.087 A 
HETATM   90  N   UNK N   1      31.706  16.449   7.573  0.00  0.00    -0.375 N 
HETATM   91  C   UNK N   1      31.966  15.990   6.321  0.00  0.00     0.094 A 
ATOM     92  HN  UNK N   1      30.822  16.207   8.021  1.00  0.00     0.164 HD
ENDBRANCH  85  86
ENDBRANCH  84  85
BRANCH  84  93
HETATM   93  N   UNK N   1      32.417  14.122   2.757  0.00  0.00    -0.346 N 
HETATM   94  C   UNK N   1      32.347  12.841   3.183  0.00  0.00     0.241 C 
HETATM   95  O   UNK N   1      32.734  11.952   2.444  0.00  0.00    -0.271 OA
HETATM   96  H   UNK N   1      32.652  14.264   1.812  0.00  0.00     0.163 HD
BRANCH  94  97
HETATM   97  C   UNK N   1      31.849  12.484   4.543  0.00  0.00     0.180 C 
BRANCH  97  98
HETATM   98  C   UNK N   1      32.727  11.729   5.539  0.00  0.00     0.073 C 
BRANCH  98  99
HETATM   99  C   UNK N   1      33.538  12.571   6.458  0.00  0.00    -0.056 A 
HETATM  100  C   UNK N   1      33.023  12.898   7.717  0.00  0.00     0.009 A 
HETATM  101  C   UNK N   1      33.800  13.623   8.626  0.00  0.00     0.024 A 
HETATM  102  C   UNK N   1      35.097  14.014   8.280  0.00  0.00     0.034 A 
HETATM  103  C   UNK N   1      35.617  13.680   7.024  0.00  0.00     0.024 A 
HETATM  104 Cl   UNK N   1      36.052  14.962   9.398  0.00  0.00    -0.084 Cl
HETATM  105  C   UNK N   1      34.842  12.948   6.118  0.00  0.00     0.009 A 
ENDBRANCH  98  99
ENDBRANCH  97  98
BRANCH  97 106
HETATM  106  N   UNK N   1      30.462  12.771   4.838  0.00  0.00    -0.346 N 
HETATM  107  C   UNK N   1      29.414  12.031   4.413  0.00  0.00     0.241 C 
HETATM  108  O   UNK N   1      28.291  12.318   4.794  0.00  0.00    -0.271 OA
HETATM  109  H   UNK N   1      30.268  13.565   5.388  0.00  0.00     0.163 HD
BRANCH 107 110
HETATM  110  C   UNK N   1      29.588  10.875   3.481  0.00  0.00     0.180 C 
BRANCH 110 111
HETATM  111  C   UNK N   1      28.464  10.790   2.457  0.00  0.00     0.073 C 
BRANCH 111 112
HETATM  112  C   UNK N   1      29.074  10.792   1.110  0.00  0.00    -0.055 A 
HETATM  113  C   UNK N   1      29.693  11.960   0.661  0.00  0.00     0.008 A 
HETATM  114  C   UNK N   1      30.182  12.038  -0.642  0.00  0.00     0.013 A 
HETATM  115  C   UNK N   1      30.043  10.950  -1.503  0.00  0.00    -0.026 A 
HETATM  116  C   UNK N   1      30.505  11.038  -2.815  0.00  0.00     0.012 A 
HETATM  117  C   UNK N   1      29.425   9.761  -1.048  0.00  0.00    -0.025 A 
HETATM  118  C   UNK N   1      30.358   9.950  -3.680  0.00  0.00     0.001 A 
HETATM  119  C   UNK N   1      29.753   8.771  -3.232  0.00  0.00     0.001 A 
HETATM  120  C   UNK N   1      29.286   8.675  -1.916  0.00  0.00     0.012 A 
HETATM  121  C   UNK N   1      28.937   9.687   0.259  0.00  0.00     0.019 A 
ENDBRANCH 111 112
ENDBRANCH 110 111
BRANCH 110 122
HETATM  122  N   UNK N   1      29.686   9.651   4.229  0.00  0.00    -0.348 N 
HETATM  123  C   UNK N   1      30.629   8.721   3.962  0.00  0.00     0.214 C 
HETATM  124  O   UNK N   1      30.679   7.708   4.638  0.00  0.00    -0.274 OA
HETATM  125  C   UNK N   1      31.621   8.917   2.859  0.00  0.00     0.117 C 
HETATM  126  H   UNK N   1      29.048   9.486   4.961  0.00  0.00     0.163 HD
ENDBRANCH 110 122
ENDBRANCH 107 110
ENDBRANCH  97 106
ENDBRANCH  94  97
ENDBRANCH  84  93
ENDBRANCH  81  84
ENDBRANCH  76  80
ENDBRANCH  73  76
ENDBRANCH   1  72
TORSDOF 41
ENDMDL
MODEL 8
REMARK VINA RESULT:      -8.0      3.348      7.976
REMARK WARNING: 32 MAX_TORS EXCEEDED!!!
REMARK  41 active torsions:
REMARK  status: ('A' for Active; 'I' for Inactive)
REMARK    1  A    between atoms: C_2  and  C_3 
REMARK    2  A    between atoms: C_2  and  N_6 
REMARK       I    between atoms: C_3  and  N_5 
REMARK       I    between atoms: N_6  and  C_7 
REMARK    3  A    between atoms: C_9  and  C_7 
REMARK       I    between atoms: N_13  and  C_14 
REMARK    4  A    between atoms: C_14  and  C_16 
REMARK    5  A    between atoms: C_16  and  C_17 
REMARK    6  A    between atoms: C_16  and  N_25 
REMARK    7  A    between atoms: C_17  and  C_18 
REMARK    8  A    between atoms: C_18  and  C_19 
REMARK    9  A    between atoms: C_19  and  C_20 
REMARK   10  A    between atoms: C_20  and  N_21 
REMARK   11  A    between atoms: N_21  and  C_22 
REMARK       I    between atoms: N_25  and  C_26 
REMARK   12  A    between atoms: C_26  and  C_28 
REMARK   13  A    between atoms: C_28  and  C_29 
REMARK   14  A    between atoms: C_28  and  N_33 
REMARK   15  A    between atoms: C_29  and  C_30 
REMARK       I    between atoms: N_33  and  C_34 
REMARK   16  A    between atoms: C_34  and  C_36 
REMARK   17  A    between atoms: C_36  and  C_37 
REMARK   18  A    between atoms: C_36  and  N_48 
REMARK   19  A    between atoms: C_37  and  C_38 
REMARK   20  A    between atoms: C_41  and  N_44 
REMARK       I    between atoms: N_44  and  C_45 
REMARK       I    between atoms: N_48  and  C_49 
REMARK   21  A    between atoms: C_49  and  C_51 
REMARK   22  A    between atoms: C_51  and  C_52 
REMARK   23  A    between atoms: C_51  and  N_63 
REMARK   24  A    between atoms: C_52  and  C_53 
REMARK   25  A    between atoms: C_56  and  N_59 
REMARK       I    between atoms: N_59  and  C_60 
REMARK       I    between atoms: N_63  and  C_64 
REMARK   26  A    between atoms: C_64  and  C_66 
REMARK   27  A    between atoms: C_66  and  C_67 
REMARK   28  A    between atoms: C_66  and  N_69 
REMARK   29  A    between atoms: C_67  and  O_68 
REMARK       I    between atoms: N_69  and  C_70 
REMARK   30  A    between atoms: C_70  and  C_72 
REMARK   31  A    between atoms: C_72  and  C_73 
REMARK   32  A    between atoms: C_72  and  N_81 
REMARK   33  A    between atoms: C_73  and  C_74 
REMARK       I    between atoms: N_81  and  C_82 
REMARK   34  A    between atoms: C_82  and  C_84 
REMARK   35  A    between atoms: C_84  and  C_85 
REMARK   36  A    between atoms: C_84  and  N_93 
REMARK   37  A    between atoms: C_85  and  C_86 
REMARK       I    between atoms: N_93  and  C_94 
REMARK   38  A    between atoms: C_94  and  C_96 
REMARK   39  A    between atoms: C_96  and  C_97 
REMARK   40  A    between atoms: C_96  and  N_108 
REMARK   41  A    between atoms: C_97  and  C_98 
REMARK       I    between atoms: N_108  and  C_109 
ROOT
HETATM    1  C   UNK N   1      34.680  14.570   5.592  0.00  0.00     0.180 C 
ENDROOT
BRANCH   1   2
HETATM    2  C   UNK N   1      33.642  13.615   5.087  0.00  0.00     0.241 C 
HETATM    3  N   UNK N   1      33.500  13.392   3.768  0.00  0.00    -0.346 N 
HETATM    4  H   UNK N   1      33.773  14.079   3.117  0.00  0.00     0.163 HD
HETATM    5  O   UNK N   1      33.015  12.939   5.895  0.00  0.00    -0.271 OA
BRANCH   3   6
HETATM    6  C   UNK N   1      32.950  12.150   3.314  0.00  0.00     0.180 C 
BRANCH   6   7
HETATM    7  C   UNK N   1      31.896  12.569   2.284  0.00  0.00     0.241 C 
HETATM    8  N   UNK N   1      30.647  12.863   2.689  0.00  0.00    -0.346 N 
HETATM    9  H   UNK N   1      29.970  13.110   2.017  0.00  0.00     0.163 HD
HETATM   10  O   UNK N   1      32.226  12.939   1.170  0.00  0.00    -0.271 OA
BRANCH   8  11
HETATM   11  C   UNK N   1      30.273  12.824   4.073  0.00  0.00     0.177 C 
BRANCH  11  12
HETATM   12  C   UNK N   1      29.607  11.528   4.455  0.00  0.00     0.241 C 
HETATM   13  N   UNK N   1      28.413  11.118   3.951  0.00  0.00    -0.346 N 
HETATM   14  H   UNK N   1      28.051  10.282   4.326  0.00  0.00     0.163 HD
HETATM   15  O   UNK N   1      30.190  10.797   5.236  0.00  0.00    -0.271 OA
BRANCH  13  16
HETATM   16  C   UNK N   1      27.605  11.754   2.932  0.00  0.00     0.176 C 
BRANCH  16  17
HETATM   17  C   UNK N   1      26.120  11.766   3.214  0.00  0.00     0.243 C 
HETATM   18  N   UNK N   1      25.302  12.739   2.709  0.00  0.00    -0.337 N 
HETATM   19  C   UNK N   1      25.701  13.736   1.761  0.00  0.00     0.127 C 
HETATM   20  C   UNK N   1      23.930  12.838   3.124  0.00  0.00     0.179 C 
HETATM   21  C   UNK N   1      24.408  14.436   1.369  0.00  0.00     0.022 C 
HETATM   22  C   UNK N   1      23.287  13.584   1.968  0.00  0.00     0.037 C 
HETATM   23  O   UNK N   1      25.670  10.903   3.941  0.00  0.00    -0.271 OA
BRANCH  20  24
HETATM   24  C   UNK N   1      23.888  13.763   4.310  0.00  0.00     0.241 C 
HETATM   25  N   UNK N   1      24.848  13.682   5.266  0.00  0.00    -0.346 N 
HETATM   26  H   UNK N   1      25.636  13.115   5.104  0.00  0.00     0.163 HD
HETATM   27  O   UNK N   1      22.947  14.534   4.450  0.00  0.00    -0.271 OA
BRANCH  25  28
HETATM   28  C   UNK N   1      24.746  14.403   6.519  0.00  0.00     0.172 C 
HETATM   29  C   UNK N   1      25.142  13.518   7.703  0.00  0.00     0.042 C 
BRANCH  28  30
HETATM   30  C   UNK N   1      25.562  15.667   6.422  0.00  0.00     0.237 C 
HETATM   31  O   UNK N   1      26.670  15.743   6.930  0.00  0.00    -0.271 OA
HETATM   32  N   UNK N   1      25.076  16.715   5.726  0.00  0.00    -0.368 N 
HETATM   33  H   UNK N   1      24.959  17.592   6.155  0.00  0.00     0.159 HD
HETATM   34  H   UNK N   1      24.837  16.600   4.778  0.00  0.00     0.159 HD
ENDBRANCH  28  30
ENDBRANCH  25  28
ENDBRANCH  20  24
ENDBRANCH  16  17
BRANCH  16  35
HETATM   35  C   UNK N   1      27.816  10.981   1.637  0.00  0.00     0.035 C 
BRANCH  35  36
HETATM   36  C   UNK N   1      28.522  11.795   0.564  0.00  0.00     0.004 C 
BRANCH  36  37
HETATM   37  C   UNK N   1      29.416  10.956  -0.337  0.00  0.00     0.019 C 
BRANCH  37  38
HETATM   38  C   UNK N   1      30.187  11.836  -1.315  0.00  0.00     0.114 C 
BRANCH  38  39
HETATM   39  N   UNK N   1      30.352  11.193  -2.619  0.00  0.00    -0.418 N 
HETATM   40  H   UNK N   1      29.608  11.032  -3.297  0.00  0.00     0.153 HD
BRANCH  39  41
HETATM   41  C   UNK N   1      31.755  10.818  -2.794  0.00  0.00     0.068 C 
HETATM   42  C   UNK N   1      32.655  11.963  -2.382  0.00  0.00     0.031 C 
HETATM   43  C   UNK N   1      32.055  10.481  -4.242  0.00  0.00     0.031 C 
ENDBRANCH  39  41
ENDBRANCH  38  39
ENDBRANCH  37  38
ENDBRANCH  36  37
ENDBRANCH  35  36
ENDBRANCH  16  35
ENDBRANCH  13  16
ENDBRANCH  11  12
BRANCH  11  44
HETATM   44  C   UNK N   1      29.543  14.096   4.459  0.00  0.00     0.038 C 
BRANCH  44  45
HETATM   45  C   UNK N   1      29.305  15.002   3.264  0.00  0.00    -0.020 C 
HETATM   46  C   UNK N   1      30.405  16.034   3.105  0.00  0.00     0.009 C 
HETATM   47  C   UNK N   1      27.981  15.710   3.448  0.00  0.00     0.009 C 
ENDBRANCH  44  45
ENDBRANCH  11  44
ENDBRANCH   8  11
ENDBRANCH   6   7
BRANCH   6  48
HETATM   48  C   UNK N   1      34.064  11.064   3.050  0.00  0.00     0.073 C 
BRANCH  48  49
HETATM   49  C   UNK N   1      33.647   9.632   2.848  0.00  0.00    -0.056 C 
HETATM   50  C   UNK N   1      32.392   9.222   3.265  0.00  0.00     0.009 C 
HETATM   51  C   UNK N   1      32.052   7.893   3.313  0.00  0.00     0.030 C 
HETATM   52  C   UNK N   1      32.945   6.933   2.866  0.00  0.00     0.034 C 
HETATM   53  C   UNK N   1      34.179   7.322   2.322  0.00  0.00     0.030 C 
HETATM   54  C   UNK N   1      34.528   8.683   2.305  0.00  0.00     0.009 C 
BRANCH  52  55
HETATM   55  N   UNK N   1      32.750   5.627   3.349  0.00  0.00    -0.328 N 
HETATM   56  C   UNK N   1      32.248   4.697   2.494  0.00  0.00     0.218 C 
HETATM   57  O   UNK N   1      31.772   5.034   1.415  0.00  0.00    -0.274 OA
HETATM   58  C   UNK N   1      32.376   3.256   2.815  0.00  0.00     0.117 C 
HETATM   59  H   UNK N   1      32.970   5.394   4.281  0.00  0.00     0.169 HD
ENDBRANCH  52  55
ENDBRANCH  48  49
ENDBRANCH   6  48
ENDBRANCH   3   6
ENDBRANCH   1   2
BRANCH   1  60
HETATM   60  C   UNK N   1      34.371  16.020   5.295  0.00  0.00     0.073 C 
BRANCH  60  61
HETATM   61  C   UNK N   1      33.359  16.615   6.191  0.00  0.00    -0.056 A 
HETATM   62  C   UNK N   1      33.793  17.573   7.101  0.00  0.00     0.009 A 
HETATM   63  C   UNK N   1      32.939  18.016   8.097  0.00  0.00     0.030 A 
HETATM   64  C   UNK N   1      31.637  17.511   8.177  0.00  0.00     0.034 A 
HETATM   65  C   UNK N   1      31.175  16.599   7.225  0.00  0.00     0.030 A 
HETATM   66  C   UNK N   1      32.034  16.155   6.223  0.00  0.00     0.009 A 
BRANCH  64  67
HETATM   67  N   UNK N   1      30.949  17.614   9.401  0.00  0.00    -0.328 N 
HETATM   68  C   UNK N   1      29.717  18.195   9.421  0.00  0.00     0.218 C 
HETATM   69  O   UNK N   1      29.113  18.294  10.473  0.00  0.00    -0.274 OA
HETATM   70  C   UNK N   1      29.102  18.775   8.174  0.00  0.00     0.117 C 
HETATM   71  H   UNK N   1      31.353  17.270  10.230  0.00  0.00     0.169 HD
ENDBRANCH  64  67
ENDBRANCH  60  61
ENDBRANCH   1  60
BRANCH   1  72
HETATM   72  N   UNK N   1      34.772  14.391   7.009  0.00  0.00    -0.346 N 
HETATM   73  C   UNK N   1      35.869  13.814   7.539  0.00  0.00     0.243 C 
HETATM   74  O   UNK N   1      36.747  13.351   6.815  0.00  0.00    -0.271 OA
HETATM   75  H   UNK N   1      34.037  14.689   7.593  0.00  0.00     0.163 HD
BRANCH  73  76
HETATM   76  C   UNK N   1      36.062  13.838   8.997  0.00  0.00     0.200 C 
BRANCH  76  77
HETATM   77  C   UNK N   1      35.299  15.043   9.531  0.00  0.00     0.199 C 
BRANCH  77  78
HETATM   78  O   UNK N   1      33.981  14.711   9.860  0.00  0.00    -0.398 OA
HETATM   79  H   UNK N   1      33.258  14.255   9.401  0.00  0.00     0.209 HD
ENDBRANCH  77  78
ENDBRANCH  76  77
BRANCH  76  80
HETATM   80  N   UNK N   1      37.473  13.931   9.273  0.00  0.00    -0.344 N 
HETATM   81  C   UNK N   1      38.145  12.955   9.942  0.00  0.00     0.241 C 
HETATM   82  O   UNK N   1      39.353  13.060  10.074  0.00  0.00    -0.271 OA
HETATM   83  H   UNK N   1      37.967  14.726   8.966  0.00  0.00     0.163 HD
BRANCH  81  84
HETATM   84  C   UNK N   1      37.439  11.763  10.593  0.00  0.00     0.180 C 
BRANCH  84  85
HETATM   85  C   UNK N   1      37.877  11.454  12.038  0.00  0.00     0.074 C 
BRANCH  85  86
HETATM   86  C   UNK N   1      37.128  12.263  13.069  0.00  0.00    -0.040 A 
HETATM   87  C   UNK N   1      37.501  12.237  14.413  0.00  0.00     0.010 A 
HETATM   88  C   UNK N   1      36.801  13.013  15.341  0.00  0.00     0.018 A 
HETATM   89  C   UNK N   1      35.729  13.800  14.912  0.00  0.00     0.087 A 
HETATM   90  N   UNK N   1      35.375  13.812  13.600  0.00  0.00    -0.375 N 
HETATM   91  C   UNK N   1      36.051  13.073  12.683  0.00  0.00     0.094 A 
ATOM     92  HN  UNK N   1      34.589  14.388  13.298  1.00  0.00     0.164 HD
ENDBRANCH  85  86
ENDBRANCH  84  85
BRANCH  84  93
HETATM   93  N   UNK N   1      37.362  10.564   9.775  0.00  0.00    -0.346 N 
HETATM   94  C   UNK N   1      36.340   9.679   9.747  0.00  0.00     0.241 C 
HETATM   95  O   UNK N   1      36.482   8.633   9.137  0.00  0.00    -0.271 OA
HETATM   96  H   UNK N   1      38.127  10.377   9.185  0.00  0.00     0.163 HD
BRANCH  94  97
HETATM   97  C   UNK N   1      35.059   9.925  10.471  0.00  0.00     0.180 C 
BRANCH  97  98
HETATM   98  C   UNK N   1      34.536   8.943  11.518  0.00  0.00     0.073 C 
BRANCH  98  99
HETATM   99  C   UNK N   1      34.675   9.369  12.935  0.00  0.00    -0.056 A 
HETATM  100  C   UNK N   1      33.798  10.331  13.449  0.00  0.00     0.009 A 
HETATM  101  C   UNK N   1      33.862  10.689  14.799  0.00  0.00     0.024 A 
HETATM  102  C   UNK N   1      34.798  10.079  15.640  0.00  0.00     0.034 A 
HETATM  103  C   UNK N   1      35.670   9.110  15.130  0.00  0.00     0.024 A 
HETATM  104 Cl   UNK N   1      34.910  10.561  17.318  0.00  0.00    -0.084 Cl
HETATM  105  C   UNK N   1      35.601   8.746  13.781  0.00  0.00     0.009 A 
ENDBRANCH  98  99
ENDBRANCH  97  98
BRANCH  97 106
HETATM  106  N   UNK N   1      34.271  11.066  10.057  0.00  0.00    -0.346 N 
HETATM  107  C   UNK N   1      33.211  11.008   9.220  0.00  0.00     0.241 C 
HETATM  108  O   UNK N   1      32.567  12.022   9.007  0.00  0.00    -0.271 OA
HETATM  109  H   UNK N   1      34.526  11.949  10.410  0.00  0.00     0.163 HD
BRANCH 107 110
HETATM  110  C   UNK N   1      32.810   9.738   8.539  0.00  0.00     0.180 C 
BRANCH 110 111
HETATM  111  C   UNK N   1      32.845   9.866   7.022  0.00  0.00     0.073 C 
BRANCH 111 112
HETATM  112  C   UNK N   1      34.129   9.308   6.548  0.00  0.00    -0.055 A 
HETATM  113  C   UNK N   1      35.167  10.191   6.245  0.00  0.00     0.008 A 
HETATM  114  C   UNK N   1      36.354   9.714   5.691  0.00  0.00     0.013 A 
HETATM  115  C   UNK N   1      36.501   8.352   5.430  0.00  0.00    -0.026 A 
HETATM  116  C   UNK N   1      37.677   7.878   4.849  0.00  0.00     0.012 A 
HETATM  117  C   UNK N   1      35.455   7.453   5.745  0.00  0.00    -0.025 A 
HETATM  118  C   UNK N   1      37.821   6.514   4.579  0.00  0.00     0.001 A 
HETATM  119  C   UNK N   1      36.790   5.622   4.896  0.00  0.00     0.001 A 
HETATM  120  C   UNK N   1      35.607   6.090   5.478  0.00  0.00     0.012 A 
HETATM  121  C   UNK N   1      34.268   7.936   6.300  0.00  0.00     0.019 A 
ENDBRANCH 111 112
ENDBRANCH 110 111
BRANCH 110 122
HETATM  122  N   UNK N   1      31.503   9.335   8.984  0.00  0.00    -0.348 N 
HETATM  123  C   UNK N   1      31.256   8.089   9.444  0.00  0.00     0.214 C 
HETATM  124  O   UNK N   1      30.134   7.803   9.825  0.00  0.00    -0.274 OA
HETATM  125  C   UNK N   1      32.338   7.057   9.506  0.00  0.00     0.117 C 
HETATM  126  H   UNK N   1      30.766   9.987   8.955  0.00  0.00     0.163 HD
ENDBRANCH 110 122
ENDBRANCH 107 110
ENDBRANCH  97 106
ENDBRANCH  94  97
ENDBRANCH  84  93
ENDBRANCH  81  84
ENDBRANCH  76  80
ENDBRANCH  73  76
ENDBRANCH   1  72
TORSDOF 41
ENDMDL
MODEL 9
REMARK VINA RESULT:      -8.0      3.128      7.034
REMARK WARNING: 32 MAX_TORS EXCEEDED!!!
REMARK  41 active torsions:
REMARK  status: ('A' for Active; 'I' for Inactive)
REMARK    1  A    between atoms: C_2  and  C_3 
REMARK    2  A    between atoms: C_2  and  N_6 
REMARK       I    between atoms: C_3  and  N_5 
REMARK       I    between atoms: N_6  and  C_7 
REMARK    3  A    between atoms: C_9  and  C_7 
REMARK       I    between atoms: N_13  and  C_14 
REMARK    4  A    between atoms: C_14  and  C_16 
REMARK    5  A    between atoms: C_16  and  C_17 
REMARK    6  A    between atoms: C_16  and  N_25 
REMARK    7  A    between atoms: C_17  and  C_18 
REMARK    8  A    between atoms: C_18  and  C_19 
REMARK    9  A    between atoms: C_19  and  C_20 
REMARK   10  A    between atoms: C_20  and  N_21 
REMARK   11  A    between atoms: N_21  and  C_22 
REMARK       I    between atoms: N_25  and  C_26 
REMARK   12  A    between atoms: C_26  and  C_28 
REMARK   13  A    between atoms: C_28  and  C_29 
REMARK   14  A    between atoms: C_28  and  N_33 
REMARK   15  A    between atoms: C_29  and  C_30 
REMARK       I    between atoms: N_33  and  C_34 
REMARK   16  A    between atoms: C_34  and  C_36 
REMARK   17  A    between atoms: C_36  and  C_37 
REMARK   18  A    between atoms: C_36  and  N_48 
REMARK   19  A    between atoms: C_37  and  C_38 
REMARK   20  A    between atoms: C_41  and  N_44 
REMARK       I    between atoms: N_44  and  C_45 
REMARK       I    between atoms: N_48  and  C_49 
REMARK   21  A    between atoms: C_49  and  C_51 
REMARK   22  A    between atoms: C_51  and  C_52 
REMARK   23  A    between atoms: C_51  and  N_63 
REMARK   24  A    between atoms: C_52  and  C_53 
REMARK   25  A    between atoms: C_56  and  N_59 
REMARK       I    between atoms: N_59  and  C_60 
REMARK       I    between atoms: N_63  and  C_64 
REMARK   26  A    between atoms: C_64  and  C_66 
REMARK   27  A    between atoms: C_66  and  C_67 
REMARK   28  A    between atoms: C_66  and  N_69 
REMARK   29  A    between atoms: C_67  and  O_68 
REMARK       I    between atoms: N_69  and  C_70 
REMARK   30  A    between atoms: C_70  and  C_72 
REMARK   31  A    between atoms: C_72  and  C_73 
REMARK   32  A    between atoms: C_72  and  N_81 
REMARK   33  A    between atoms: C_73  and  C_74 
REMARK       I    between atoms: N_81  and  C_82 
REMARK   34  A    between atoms: C_82  and  C_84 
REMARK   35  A    between atoms: C_84  and  C_85 
REMARK   36  A    between atoms: C_84  and  N_93 
REMARK   37  A    between atoms: C_85  and  C_86 
REMARK       I    between atoms: N_93  and  C_94 
REMARK   38  A    between atoms: C_94  and  C_96 
REMARK   39  A    between atoms: C_96  and  C_97 
REMARK   40  A    between atoms: C_96  and  N_108 
REMARK   41  A    between atoms: C_97  and  C_98 
REMARK       I    between atoms: N_108  and  C_109 
ROOT
HETATM    1  C   UNK N   1      29.833  17.138   5.883  0.00  0.00     0.180 C 
ENDROOT
BRANCH   1   2
HETATM    2  C   UNK N   1      29.297  15.818   5.419  0.00  0.00     0.241 C 
HETATM    3  N   UNK N   1      29.771  15.242   4.299  0.00  0.00    -0.346 N 
HETATM    4  H   UNK N   1      30.166  15.796   3.586  0.00  0.00     0.163 HD
HETATM    5  O   UNK N   1      28.519  15.206   6.142  0.00  0.00    -0.271 OA
BRANCH   3   6
HETATM    6  C   UNK N   1      29.698  13.820   4.147  0.00  0.00     0.180 C 
BRANCH   6   7
HETATM    7  C   UNK N   1      29.039  13.630   2.777  0.00  0.00     0.241 C 
HETATM    8  N   UNK N   1      27.769  13.189   2.703  0.00  0.00    -0.346 N 
HETATM    9  H   UNK N   1      27.362  13.049   1.817  0.00  0.00     0.163 HD
HETATM   10  O   UNK N   1      29.512  14.149   1.781  0.00  0.00    -0.271 OA
BRANCH   8  11
HETATM   11  C   UNK N   1      26.994  12.917   3.877  0.00  0.00     0.177 C 
BRANCH  11  12
HETATM   12  C   UNK N   1      26.849  11.442   4.145  0.00  0.00     0.241 C 
HETATM   13  N   UNK N   1      26.097  10.608   3.377  0.00  0.00    -0.346 N 
HETATM   14  H   UNK N   1      26.031   9.677   3.691  0.00  0.00     0.163 HD
HETATM   15  O   UNK N   1      27.465  10.971   5.084  0.00  0.00    -0.271 OA
BRANCH  13  16
HETATM   16  C   UNK N   1      25.383  10.916   2.157  0.00  0.00     0.176 C 
BRANCH  16  17
HETATM   17  C   UNK N   1      23.878  10.959   2.295  0.00  0.00     0.243 C 
HETATM   18  N   UNK N   1      23.143  12.003   1.804  0.00  0.00    -0.337 N 
HETATM   19  C   UNK N   1      23.663  13.062   0.992  0.00  0.00     0.127 C 
HETATM   20  C   UNK N   1      21.740  12.117   2.093  0.00  0.00     0.179 C 
HETATM   21  C   UNK N   1      22.436  13.842   0.542  0.00  0.00     0.022 C 
HETATM   22  C   UNK N   1      21.236  12.984   0.952  0.00  0.00     0.037 C 
HETATM   23  O   UNK N   1      23.334  10.054   2.896  0.00  0.00    -0.271 OA
BRANCH  20  24
HETATM   24  C   UNK N   1      21.609  12.937   3.347  0.00  0.00     0.241 C 
HETATM   25  N   UNK N   1      20.771  14.006   3.374  0.00  0.00    -0.346 N 
HETATM   26  H   UNK N   1      20.156  14.148   2.618  0.00  0.00     0.163 HD
HETATM   27  O   UNK N   1      22.314  12.687   4.316  0.00  0.00    -0.271 OA
BRANCH  25  28
HETATM   28  C   UNK N   1      20.758  14.942   4.479  0.00  0.00     0.172 C 
HETATM   29  C   UNK N   1      21.852  16.001   4.323  0.00  0.00     0.042 C 
BRANCH  28  30
HETATM   30  C   UNK N   1      19.375  15.530   4.604  0.00  0.00     0.237 C 
HETATM   31  O   UNK N   1      18.555  15.054   5.373  0.00  0.00    -0.271 OA
HETATM   32  N   UNK N   1      19.055  16.625   3.886  0.00  0.00    -0.368 N 
HETATM   33  H   UNK N   1      18.291  16.614   3.265  0.00  0.00     0.159 HD
HETATM   34  H   UNK N   1      19.592  17.445   3.983  0.00  0.00     0.159 HD
ENDBRANCH  28  30
ENDBRANCH  25  28
ENDBRANCH  20  24
ENDBRANCH  16  17
BRANCH  16  35
HETATM   35  C   UNK N   1      25.715   9.824   1.149  0.00  0.00     0.035 C 
BRANCH  35  36
HETATM   36  C   UNK N   1      27.211   9.646   0.934  0.00  0.00     0.004 C 
BRANCH  36  37
HETATM   37  C   UNK N   1      27.547   8.819  -0.298  0.00  0.00     0.019 C 
BRANCH  37  38
HETATM   38  C   UNK N   1      29.022   8.954  -0.661  0.00  0.00     0.114 C 
BRANCH  38  39
HETATM   39  N   UNK N   1      29.657  10.077   0.029  0.00  0.00    -0.418 N 
HETATM   40  H   UNK N   1      29.295  10.539   0.864  0.00  0.00     0.153 HD
BRANCH  39  41
HETATM   41  C   UNK N   1      30.893  10.432  -0.668  0.00  0.00     0.068 C 
HETATM   42  C   UNK N   1      30.916  11.916  -0.963  0.00  0.00     0.031 C 
HETATM   43  C   UNK N   1      31.012   9.688  -1.985  0.00  0.00     0.031 C 
ENDBRANCH  39  41
ENDBRANCH  38  39
ENDBRANCH  37  38
ENDBRANCH  36  37
ENDBRANCH  35  36
ENDBRANCH  16  35
ENDBRANCH  13  16
ENDBRANCH  11  12
BRANCH  11  44
HETATM   44  C   UNK N   1      25.713  13.729   3.865  0.00  0.00     0.038 C 
BRANCH  44  45
HETATM   45  C   UNK N   1      25.984  15.221   3.941  0.00  0.00    -0.020 C 
HETATM   46  C   UNK N   1      25.405  15.841   5.198  0.00  0.00     0.009 C 
HETATM   47  C   UNK N   1      25.370  15.887   2.729  0.00  0.00     0.009 C 
ENDBRANCH  44  45
ENDBRANCH  11  44
ENDBRANCH   8  11
ENDBRANCH   6   7
BRANCH   6  48
HETATM   48  C   UNK N   1      31.029  13.103   4.598  0.00  0.00     0.073 C 
BRANCH  48  49
HETATM   49  C   UNK N   1      32.245  13.213   3.717  0.00  0.00    -0.056 C 
HETATM   50  C   UNK N   1      33.172  14.214   3.955  0.00  0.00     0.009 C 
HETATM   51  C   UNK N   1      34.167  14.498   3.053  0.00  0.00     0.030 C 
HETATM   52  C   UNK N   1      34.308  13.726   1.912  0.00  0.00     0.034 C 
HETATM   53  C   UNK N   1      33.462  12.627   1.699  0.00  0.00     0.030 C 
HETATM   54  C   UNK N   1      32.428  12.364   2.614  0.00  0.00     0.009 C 
BRANCH  52  55
HETATM   55  N   UNK N   1      35.005  14.317   0.843  0.00  0.00    -0.328 N 
HETATM   56  C   UNK N   1      36.242  13.838   0.545  0.00  0.00     0.218 C 
HETATM   57  O   UNK N   1      36.821  13.080   1.315  0.00  0.00    -0.274 OA
HETATM   58  C   UNK N   1      36.853  14.145  -0.771  0.00  0.00     0.117 C 
HETATM   59  H   UNK N   1      34.608  15.055   0.326  0.00  0.00     0.169 HD
ENDBRANCH  52  55
ENDBRANCH  48  49
ENDBRANCH   6  48
ENDBRANCH   3   6
ENDBRANCH   1   2
BRANCH   1  60
HETATM   60  C   UNK N   1      28.794  18.024   6.534  0.00  0.00     0.073 C 
BRANCH  60  61
HETATM   61  C   UNK N   1      28.110  18.937   5.595  0.00  0.00    -0.056 A 
HETATM   62  C   UNK N   1      27.514  20.074   6.129  0.00  0.00     0.009 A 
HETATM   63  C   UNK N   1      26.690  20.857   5.338  0.00  0.00     0.030 A 
HETATM   64  C   UNK N   1      26.472  20.513   4.000  0.00  0.00     0.034 A 
HETATM   65  C   UNK N   1      27.122  19.410   3.442  0.00  0.00     0.030 A 
HETATM   66  C   UNK N   1      27.951  18.623   4.238  0.00  0.00     0.009 A 
BRANCH  64  67
HETATM   67  N   UNK N   1      25.331  21.022   3.351  0.00  0.00    -0.328 N 
HETATM   68  C   UNK N   1      24.152  20.347   3.457  0.00  0.00     0.218 C 
HETATM   69  O   UNK N   1      23.159  20.772   2.897  0.00  0.00    -0.274 OA
HETATM   70  C   UNK N   1      24.059  19.044   4.209  0.00  0.00     0.117 C 
HETATM   71  H   UNK N   1      25.385  21.854   2.827  0.00  0.00     0.169 HD
ENDBRANCH  64  67
ENDBRANCH  60  61
ENDBRANCH   1  60
BRANCH   1  72
HETATM   72  N   UNK N   1      30.875  16.868   6.825  0.00  0.00    -0.346 N 
HETATM   73  C   UNK N   1      32.164  16.937   6.433  0.00  0.00     0.243 C 
HETATM   74  O   UNK N   1      32.451  17.133   5.255  0.00  0.00    -0.271 OA
HETATM   75  H   UNK N   1      30.652  16.634   7.755  0.00  0.00     0.163 HD
BRANCH  73  76
HETATM   76  C   UNK N   1      33.228  16.885   7.447  0.00  0.00     0.200 C 
BRANCH  76  77
HETATM   77  C   UNK N   1      33.493  18.316   7.895  0.00  0.00     0.199 C 
BRANCH  77  78
HETATM   78  O   UNK N   1      34.680  18.412   8.628  0.00  0.00    -0.398 OA
HETATM   79  H   UNK N   1      35.621  18.449   8.398  0.00  0.00     0.209 HD
ENDBRANCH  77  78
ENDBRANCH  76  77
BRANCH  76  80
HETATM   80  N   UNK N   1      34.397  16.284   6.855  0.00  0.00    -0.344 N 
HETATM   81  C   UNK N   1      35.018  15.208   7.413  0.00  0.00     0.241 C 
HETATM   82  O   UNK N   1      35.955  14.700   6.820  0.00  0.00    -0.271 OA
HETATM   83  H   UNK N   1      34.757  16.662   6.020  0.00  0.00     0.163 HD
BRANCH  81  84
HETATM   84  C   UNK N   1      34.631  14.651   8.784  0.00  0.00     0.180 C 
BRANCH  84  85
HETATM   85  C   UNK N   1      33.310  13.857   8.818  0.00  0.00     0.074 C 
BRANCH  85  86
HETATM   86  C   UNK N   1      33.468  12.427   8.362  0.00  0.00    -0.040 A 
HETATM   87  C   UNK N   1      33.588  12.113   7.008  0.00  0.00     0.010 A 
HETATM   88  C   UNK N   1      33.752  10.780   6.619  0.00  0.00     0.018 A 
HETATM   89  C   UNK N   1      33.786   9.777   7.592  0.00  0.00     0.087 A 
HETATM   90  N   UNK N   1      33.663  10.099   8.906  0.00  0.00    -0.375 N 
HETATM   91  C   UNK N   1      33.513  11.389   9.303  0.00  0.00     0.094 A 
ATOM     92  HN  UNK N   1      33.684   9.358   9.607  1.00  0.00     0.164 HD
ENDBRANCH  85  86
ENDBRANCH  84  85
BRANCH  84  93
HETATM   93  N   UNK N   1      34.734  15.590   9.889  0.00  0.00    -0.346 N 
HETATM   94  C   UNK N   1      35.293  15.348  11.096  0.00  0.00     0.241 C 
HETATM   95  O   UNK N   1      35.162  16.174  11.983  0.00  0.00    -0.271 OA
HETATM   96  H   UNK N   1      34.361  16.490   9.745  0.00  0.00     0.163 HD
BRANCH  94  97
HETATM   97  C   UNK N   1      36.030  14.085  11.388  0.00  0.00     0.180 C 
BRANCH  97  98
HETATM   98  C   UNK N   1      35.373  12.938  12.154  0.00  0.00     0.073 C 
BRANCH  98  99
HETATM   99  C   UNK N   1      35.370  13.064  13.635  0.00  0.00    -0.056 A 
HETATM  100  C   UNK N   1      34.375  12.414  14.374  0.00  0.00     0.009 A 
HETATM  101  C   UNK N   1      34.398  12.455  15.771  0.00  0.00     0.024 A 
HETATM  102  C   UNK N   1      35.423  13.138  16.433  0.00  0.00     0.034 A 
HETATM  103  C   UNK N   1      36.425  13.780  15.696  0.00  0.00     0.024 A 
HETATM  104 Cl   UNK N   1      35.426  13.230  18.180  0.00  0.00    -0.084 Cl
HETATM  105  C   UNK N   1      36.405  13.733  14.298  0.00  0.00     0.009 A 
ENDBRANCH  98  99
ENDBRANCH  97  98
BRANCH  97 106
HETATM  106  N   UNK N   1      37.430  14.035  11.026  0.00  0.00    -0.346 N 
HETATM  107  C   UNK N   1      37.990  13.092  10.236  0.00  0.00     0.241 C 
HETATM  108  O   UNK N   1      39.165  13.198   9.927  0.00  0.00    -0.271 OA
HETATM  109  H   UNK N   1      38.019  14.741  11.382  0.00  0.00     0.163 HD
BRANCH 107 110
HETATM  110  C   UNK N   1      37.213  11.916   9.737  0.00  0.00     0.180 C 
BRANCH 110 111
HETATM  111  C   UNK N   1      37.899  10.596  10.063  0.00  0.00     0.073 C 
BRANCH 111 112
HETATM  112  C   UNK N   1      37.305  10.069  11.309  0.00  0.00    -0.055 A 
HETATM  113  C   UNK N   1      36.105   9.361  11.228  0.00  0.00     0.008 A 
HETATM  114  C   UNK N   1      35.456   8.944  12.388  0.00  0.00     0.013 A 
HETATM  115  C   UNK N   1      36.002   9.244  13.636  0.00  0.00    -0.026 A 
HETATM  116  C   UNK N   1      35.339   8.852  14.798  0.00  0.00     0.012 A 
HETATM  117  C   UNK N   1      37.224   9.952  13.723  0.00  0.00    -0.025 A 
HETATM  118  C   UNK N   1      35.883   9.160  16.048  0.00  0.00     0.001 A 
HETATM  119  C   UNK N   1      37.094   9.855  16.137  0.00  0.00     0.001 A 
HETATM  120  C   UNK N   1      37.766  10.252  14.976  0.00  0.00     0.012 A 
HETATM  121  C   UNK N   1      37.871  10.368  12.556  0.00  0.00     0.019 A 
ENDBRANCH 111 112
ENDBRANCH 110 111
BRANCH 110 122
HETATM  122  N   UNK N   1      36.993  12.038   8.321  0.00  0.00    -0.348 N 
HETATM  123  C   UNK N   1      37.751  11.378   7.419  0.00  0.00     0.214 C 
HETATM  124  O   UNK N   1      37.512  11.503   6.230  0.00  0.00    -0.274 OA
HETATM  125  C   UNK N   1      38.871  10.485   7.852  0.00  0.00     0.117 C 
HETATM  126  H   UNK N   1      36.267  12.619   7.999  0.00  0.00     0.163 HD
ENDBRANCH 110 122
ENDBRANCH 107 110
ENDBRANCH  97 106
ENDBRANCH  94  97
ENDBRANCH  84  93
ENDBRANCH  81  84
ENDBRANCH  76  80
ENDBRANCH  73  76
ENDBRANCH   1  72
TORSDOF 41
ENDMDL
