MODEL 1
REMARK VINA RESULT:      -9.0      0.000      0.000
REMARK  9 active torsions:
REMARK  status: ('A' for Active; 'I' for Inactive)
REMARK    1  A    between atoms: C_22  and  C_5 
REMARK    2  A    between atoms: C_23  and  C_6 
REMARK    3  A    between atoms: C_12  and  C_11 
REMARK    4  A    between atoms: C_20  and  C_11 
REMARK    5  A    between atoms: C_29  and  C_12 
REMARK    6  A    between atoms: C_24  and  C_16 
REMARK    7  A    between atoms: C_26  and  C_16 
REMARK    8  A    between atoms: C_29  and  C_21 
REMARK    9  A    between atoms: O_39  and  C_25 
ROOT
HETATM    1  C   UNK N   1      33.213  15.090   8.561  0.00  0.00     0.104 C 
HETATM    2  C   UNK N   1      35.302  14.981   9.862  0.00  0.00     0.053 C 
HETATM    3  C   UNK N   1      34.377  14.326   9.147  0.00  0.00     0.059 C 
HETATM    4  C   UNK N   1      35.247  16.451   9.891  0.00  0.00     0.293 C 
HETATM    5  C   UNK N   1      33.586  16.534   8.108  0.00  0.00     0.080 C 
HETATM    6  O   UNK N   1      35.917  17.083  10.693  0.00  0.00    -0.259 OA
HETATM    7  O   UNK N   1      34.568  17.105   8.915  0.00  0.00    -0.305 OA
ENDROOT
BRANCH   5   8
HETATM    8  C   UNK N   1      32.406  17.491   8.209  0.00  0.00     0.044 C 
BRANCH   8   9
HETATM    9  C   UNK N   1      31.104  16.811   8.564  0.00  0.00     0.041 C 
BRANCH   9  10
HETATM   10  C   UNK N   1      30.081  17.128   7.530  0.00  0.00    -0.054 A 
HETATM   11  C   UNK N   1      29.909  16.326   6.391  0.00  0.00     0.032 A 
HETATM   12  C   UNK N   1      28.957  16.678   5.440  0.00  0.00     0.009 A 
HETATM   13  N   UNK N   1      28.210  17.804   5.614  0.00  0.00    -0.363 N 
HETATM   14  C   UNK N   1      28.369  18.599   6.709  0.00  0.00     0.009 A 
ATOM     15  HN  UNK N   1      27.516  18.056   4.911  1.00  0.00     0.165 HD
HETATM   16  C   UNK N   1      29.306  18.267   7.687  0.00  0.00     0.032 A 
BRANCH  12  17
HETATM   17  C   UNK N   1      28.773  15.829   4.231  0.00  0.00     0.052 C 
HETATM   18  C   UNK N   1      29.522  16.426   3.054  0.00  0.00     0.011 C 
ENDBRANCH  12  17
BRANCH  14  19
HETATM   19  C   UNK N   1      27.578  19.848   6.844  0.00  0.00     0.052 C 
HETATM   20  C   UNK N   1      27.449  20.518   5.487  0.00  0.00     0.011 C 
ENDBRANCH  14  19
ENDBRANCH   9  10
ENDBRANCH   8   9
ENDBRANCH   5   8
BRANCH   5  21
HETATM   21  C   UNK N   1      33.938  16.528   6.601  0.00  0.00     0.021 C 
HETATM   22  C   UNK N   1      33.403  17.791   5.908  0.00  0.00     0.007 C 
HETATM   23  C   UNK N   1      32.887  17.378   4.548  0.00  0.00     0.000 C 
HETATM   24  C   UNK N   1      33.278  15.924   4.386  0.00  0.00     0.000 C 
HETATM   25  C   UNK N   1      33.380  15.374   5.796  0.00  0.00     0.007 C 
ENDBRANCH   5  21
BRANCH   3  26
HETATM   26  O   UNK N   1      34.461  12.991   8.971  0.00  0.00    -0.364 OA
HETATM   27  H   UNK N   1      34.717  12.090   8.998  0.00  0.00     0.217 HD
ENDBRANCH   3  26
BRANCH   2  28
HETATM   28  C   UNK N   1      36.468  14.262  10.480  0.00  0.00     0.126 C 
BRANCH  28  29
HETATM   29  C   UNK N   1      36.033  13.881  11.856  0.00  0.00     0.117 A 
HETATM   30  N   UNK N   1      36.370  14.533  13.002  0.00  0.00    -0.177 N 
HETATM   31  C   UNK N   1      35.804  13.751  13.942  0.00  0.00     0.705 A 
ATOM     32  HN  UNK N   1      36.911  15.389  13.121  1.00  0.00     0.185 HD
HETATM   33  N   UNK N   1      35.824  13.952  15.284  0.00  0.00    -0.194 N 
HETATM   34  N   UNK N   1      35.186  12.701  13.408  0.00  0.00    -0.089 N 
HETATM   35  C   UNK N   1      35.191  13.041  16.088  0.00  0.00     0.024 A 
ATOM     36  HN  UNK N   1      36.299  14.762  15.685  1.00  0.00     0.184 HD
HETATM   37  C   UNK N   1      35.171  13.238  17.560  0.00  0.00     0.068 C 
HETATM   38  C   UNK N   1      34.548  11.913  15.530  0.00  0.00     0.052 A 
HETATM   39  C   UNK N   1      34.560  11.755  14.140  0.00  0.00     0.050 A 
HETATM   40  C   UNK N   1      33.904  10.584  13.494  0.00  0.00     0.071 C 
HETATM   41  N   UNK N   1      35.313  12.762  12.101  0.00  0.00    -0.267 N 
ATOM     42  HN  UNK N   1      34.945  12.104  11.414  1.00  0.00     0.189 HD
ENDBRANCH  28  29
ENDBRANCH   2  28
TORSDOF 9
ENDMDL
MODEL 2
REMARK VINA RESULT:      -8.9      0.315      1.823
REMARK  9 active torsions:
REMARK  status: ('A' for Active; 'I' for Inactive)
REMARK    1  A    between atoms: C_22  and  C_5 
REMARK    2  A    between atoms: C_23  and  C_6 
REMARK    3  A    between atoms: C_12  and  C_11 
REMARK    4  A    between atoms: C_20  and  C_11 
REMARK    5  A    between atoms: C_29  and  C_12 
REMARK    6  A    between atoms: C_24  and  C_16 
REMARK    7  A    between atoms: C_26  and  C_16 
REMARK    8  A    between atoms: C_29  and  C_21 
REMARK    9  A    between atoms: O_39  and  C_25 
ROOT
HETATM    1  C   UNK N   1      33.244  15.074   8.484  0.00  0.00     0.104 C 
HETATM    2  C   UNK N   1      35.319  14.998   9.808  0.00  0.00     0.053 C 
HETATM    3  C   UNK N   1      34.415  14.329   9.079  0.00  0.00     0.059 C 
HETATM    4  C   UNK N   1      35.236  16.466   9.844  0.00  0.00     0.293 C 
HETATM    5  C   UNK N   1      33.595  16.528   8.043  0.00  0.00     0.080 C 
HETATM    6  O   UNK N   1      35.886  17.106  10.657  0.00  0.00    -0.259 OA
HETATM    7  O   UNK N   1      34.557  17.113   8.863  0.00  0.00    -0.305 OA
ENDROOT
BRANCH   5   8
HETATM    8  C   UNK N   1      32.396  17.462   8.135  0.00  0.00     0.044 C 
BRANCH   8   9
HETATM    9  C   UNK N   1      31.091  16.748   8.403  0.00  0.00     0.041 C 
BRANCH   9  10
HETATM   10  C   UNK N   1      30.065  17.208   7.427  0.00  0.00    -0.054 A 
HETATM   11  C   UNK N   1      29.275  18.343   7.668  0.00  0.00     0.032 A 
HETATM   12  C   UNK N   1      28.311  18.718   6.736  0.00  0.00     0.009 A 
HETATM   13  N   UNK N   1      28.135  17.976   5.608  0.00  0.00    -0.363 N 
HETATM   14  C   UNK N   1      28.887  16.867   5.363  0.00  0.00     0.009 A 
ATOM     15  HN  UNK N   1      27.424  18.257   4.933  1.00  0.00     0.165 HD
HETATM   16  C   UNK N   1      29.869  16.471   6.270  0.00  0.00     0.032 A 
BRANCH  12  17
HETATM   17  C   UNK N   1      27.471  19.921   6.989  0.00  0.00     0.052 C 
HETATM   18  C   UNK N   1      27.485  20.833   5.777  0.00  0.00     0.011 C 
ENDBRANCH  12  17
BRANCH  14  19
HETATM   19  C   UNK N   1      28.634  16.048   4.151  0.00  0.00     0.052 C 
HETATM   20  C   UNK N   1      27.384  16.550   3.449  0.00  0.00     0.011 C 
ENDBRANCH  14  19
ENDBRANCH   9  10
ENDBRANCH   8   9
ENDBRANCH   5   8
BRANCH   5  21
HETATM   21  C   UNK N   1      33.964  16.536   6.539  0.00  0.00     0.021 C 
HETATM   22  C   UNK N   1      33.432  17.803   5.851  0.00  0.00     0.007 C 
HETATM   23  C   UNK N   1      32.933  17.400   4.483  0.00  0.00     0.000 C 
HETATM   24  C   UNK N   1      33.331  15.949   4.312  0.00  0.00     0.000 C 
HETATM   25  C   UNK N   1      33.420  15.387   5.718  0.00  0.00     0.007 C 
ENDBRANCH   5  21
BRANCH   3  26
HETATM   26  O   UNK N   1      34.526  12.997   8.898  0.00  0.00    -0.364 OA
HETATM   27  H   UNK N   1      34.443  12.066   8.962  0.00  0.00     0.217 HD
ENDBRANCH   3  26
BRANCH   2  28
HETATM   28  C   UNK N   1      36.492  14.297  10.436  0.00  0.00     0.126 C 
BRANCH  28  29
HETATM   29  C   UNK N   1      36.050  13.905  11.806  0.00  0.00     0.117 A 
HETATM   30  N   UNK N   1      36.381  14.547  12.960  0.00  0.00    -0.177 N 
HETATM   31  C   UNK N   1      35.810  13.758  13.890  0.00  0.00     0.705 A 
ATOM     32  HN  UNK N   1      36.921  15.403  13.088  1.00  0.00     0.185 HD
HETATM   33  N   UNK N   1      35.823  13.948  15.234  0.00  0.00    -0.194 N 
HETATM   34  N   UNK N   1      35.195  12.712  13.345  0.00  0.00    -0.089 N 
HETATM   35  C   UNK N   1      35.187  13.030  16.027  0.00  0.00     0.024 A 
ATOM     36  HN  UNK N   1      36.296  14.754  15.643  1.00  0.00     0.184 HD
HETATM   37  C   UNK N   1      35.160  13.215  17.501  0.00  0.00     0.068 C 
HETATM   38  C   UNK N   1      34.546  11.907  15.456  0.00  0.00     0.052 A 
HETATM   39  C   UNK N   1      34.565  11.760  14.065  0.00  0.00     0.050 A 
HETATM   40  C   UNK N   1      33.913  10.594  13.407  0.00  0.00     0.071 C 
HETATM   41  N   UNK N   1      35.329  12.784  12.039  0.00  0.00    -0.267 N 
ATOM     42  HN  UNK N   1      34.964  12.132  11.345  1.00  0.00     0.189 HD
ENDBRANCH  28  29
ENDBRANCH   2  28
TORSDOF 9
ENDMDL
MODEL 3
REMARK VINA RESULT:      -8.8      1.385      2.058
REMARK  9 active torsions:
REMARK  status: ('A' for Active; 'I' for Inactive)
REMARK    1  A    between atoms: C_22  and  C_5 
REMARK    2  A    between atoms: C_23  and  C_6 
REMARK    3  A    between atoms: C_12  and  C_11 
REMARK    4  A    between atoms: C_20  and  C_11 
REMARK    5  A    between atoms: C_29  and  C_12 
REMARK    6  A    between atoms: C_24  and  C_16 
REMARK    7  A    between atoms: C_26  and  C_16 
REMARK    8  A    between atoms: C_29  and  C_21 
REMARK    9  A    between atoms: O_39  and  C_25 
ROOT
HETATM    1  C   UNK N   1      32.054  15.701   8.530  0.00  0.00     0.104 C 
HETATM    2  C   UNK N   1      34.411  15.463   9.203  0.00  0.00     0.053 C 
HETATM    3  C   UNK N   1      33.310  14.882   8.707  0.00  0.00     0.059 C 
HETATM    4  C   UNK N   1      34.408  16.923   9.380  0.00  0.00     0.293 C 
HETATM    5  C   UNK N   1      32.333  17.181   8.128  0.00  0.00     0.080 C 
HETATM    6  O   UNK N   1      35.287  17.473  10.026  0.00  0.00    -0.259 OA
HETATM    7  O   UNK N   1      33.511  17.670   8.688  0.00  0.00    -0.305 OA
ENDROOT
BRANCH   5   8
HETATM    8  C   UNK N   1      31.250  18.127   8.632  0.00  0.00     0.044 C 
BRANCH   8   9
HETATM    9  C   UNK N   1      29.956  17.432   8.986  0.00  0.00     0.041 C 
BRANCH   9  10
HETATM   10  C   UNK N   1      28.916  17.779   7.978  0.00  0.00    -0.054 A 
HETATM   11  C   UNK N   1      28.321  16.801   7.166  0.00  0.00     0.032 A 
HETATM   12  C   UNK N   1      27.371  17.178   6.221  0.00  0.00     0.009 A 
HETATM   13  N   UNK N   1      27.037  18.491   6.083  0.00  0.00    -0.363 N 
HETATM   14  C   UNK N   1      27.611  19.454   6.857  0.00  0.00     0.009 A 
ATOM     15  HN  UNK N   1      26.343  18.758   5.386  1.00  0.00     0.165 HD
HETATM   16  C   UNK N   1      28.557  19.108   7.822  0.00  0.00     0.032 A 
BRANCH  12  17
HETATM   17  C   UNK N   1      26.739  16.143   5.358  0.00  0.00     0.052 C 
HETATM   18  C   UNK N   1      27.463  14.819   5.513  0.00  0.00     0.011 C 
ENDBRANCH  12  17
BRANCH  14  19
HETATM   19  C   UNK N   1      27.267  20.883   6.646  0.00  0.00     0.052 C 
HETATM   20  C   UNK N   1      26.704  21.070   5.247  0.00  0.00     0.011 C 
ENDBRANCH  14  19
ENDBRANCH   9  10
ENDBRANCH   8   9
ENDBRANCH   5   8
BRANCH   5  21
HETATM   21  C   UNK N   1      32.266  17.319   6.588  0.00  0.00     0.021 C 
HETATM   22  C   UNK N   1      31.576  16.099   5.958  0.00  0.00     0.007 C 
HETATM   23  C   UNK N   1      32.316  15.768   4.682  0.00  0.00     0.000 C 
HETATM   24  C   UNK N   1      33.313  16.889   4.485  0.00  0.00     0.000 C 
HETATM   25  C   UNK N   1      33.596  17.427   5.874  0.00  0.00     0.007 C 
ENDBRANCH   5  21
BRANCH   3  26
HETATM   26  O   UNK N   1      33.306  13.569   8.393  0.00  0.00    -0.364 OA
HETATM   27  H   UNK N   1      33.478  12.650   8.352  0.00  0.00     0.217 HD
ENDBRANCH   3  26
BRANCH   2  28
HETATM   28  C   UNK N   1      35.680  14.685   9.414  0.00  0.00     0.126 C 
BRANCH  28  29
HETATM   29  C   UNK N   1      35.515  13.977  10.718  0.00  0.00     0.117 A 
HETATM   30  N   UNK N   1      34.749  12.872  10.928  0.00  0.00    -0.177 N 
HETATM   31  C   UNK N   1      34.876  12.695  12.257  0.00  0.00     0.705 A 
ATOM     32  HN  UNK N   1      34.218  12.320  10.255  1.00  0.00     0.185 HD
HETATM   33  N   UNK N   1      34.316  11.708  13.002  0.00  0.00    -0.194 N 
HETATM   34  N   UNK N   1      35.645  13.629  12.812  0.00  0.00    -0.089 N 
HETATM   35  C   UNK N   1      34.557  11.693  14.350  0.00  0.00     0.024 A 
ATOM     36  HN  UNK N   1      33.729  10.995  12.568  1.00  0.00     0.184 HD
HETATM   37  C   UNK N   1      33.980  10.617  15.195  0.00  0.00     0.068 C 
HETATM   38  C   UNK N   1      35.358  12.692  14.949  0.00  0.00     0.052 A 
HETATM   39  C   UNK N   1      35.909  13.686  14.134  0.00  0.00     0.050 A 
HETATM   40  C   UNK N   1      36.756  14.769  14.708  0.00  0.00     0.071 C 
HETATM   41  N   UNK N   1      36.060  14.442  11.865  0.00  0.00    -0.267 N 
ATOM     42  HN  UNK N   1      36.667  15.255  11.974  1.00  0.00     0.189 HD
ENDBRANCH  28  29
ENDBRANCH   2  28
TORSDOF 9
ENDMDL
MODEL 4
REMARK VINA RESULT:      -8.4      0.979      2.553
REMARK  9 active torsions:
REMARK  status: ('A' for Active; 'I' for Inactive)
REMARK    1  A    between atoms: C_22  and  C_5 
REMARK    2  A    between atoms: C_23  and  C_6 
REMARK    3  A    between atoms: C_12  and  C_11 
REMARK    4  A    between atoms: C_20  and  C_11 
REMARK    5  A    between atoms: C_29  and  C_12 
REMARK    6  A    between atoms: C_24  and  C_16 
REMARK    7  A    between atoms: C_26  and  C_16 
REMARK    8  A    between atoms: C_29  and  C_21 
REMARK    9  A    between atoms: O_39  and  C_25 
ROOT
HETATM    1  C   UNK N   1      33.307  15.175   7.948  0.00  0.00     0.104 C 
HETATM    2  C   UNK N   1      35.364  15.343   9.293  0.00  0.00     0.053 C 
HETATM    3  C   UNK N   1      34.563  14.579   8.537  0.00  0.00     0.059 C 
HETATM    4  C   UNK N   1      35.083  16.785   9.367  0.00  0.00     0.293 C 
HETATM    5  C   UNK N   1      33.462  16.674   7.549  0.00  0.00     0.080 C 
HETATM    6  O   UNK N   1      35.634  17.483  10.204  0.00  0.00    -0.259 OA
HETATM    7  O   UNK N   1      34.330  17.360   8.396  0.00  0.00    -0.305 OA
ENDROOT
BRANCH   5   8
HETATM    8  C   UNK N   1      32.147  17.435   7.653  0.00  0.00     0.044 C 
BRANCH   8   9
HETATM    9  C   UNK N   1      30.958  16.552   7.954  0.00  0.00     0.041 C 
BRANCH   9  10
HETATM   10  C   UNK N   1      29.945  16.700   6.873  0.00  0.00    -0.054 A 
HETATM   11  C   UNK N   1      29.044  17.776   6.849  0.00  0.00     0.032 A 
HETATM   12  C   UNK N   1      28.098  17.856   5.831  0.00  0.00     0.009 A 
HETATM   13  N   UNK N   1      28.046  16.887   4.877  0.00  0.00    -0.363 N 
HETATM   14  C   UNK N   1      28.907  15.831   4.890  0.00  0.00     0.009 A 
ATOM     15  HN  UNK N   1      27.348  16.952   4.136  1.00  0.00     0.165 HD
HETATM   16  C   UNK N   1      29.875  15.727   5.889  0.00  0.00     0.032 A 
BRANCH  12  17
HETATM   17  C   UNK N   1      27.140  18.996   5.804  0.00  0.00     0.052 C 
HETATM   18  C   UNK N   1      27.662  20.139   6.654  0.00  0.00     0.011 C 
ENDBRANCH  12  17
BRANCH  14  19
HETATM   19  C   UNK N   1      28.790  14.761   3.867  0.00  0.00     0.052 C 
HETATM   20  C   UNK N   1      29.710  15.073   2.697  0.00  0.00     0.011 C 
ENDBRANCH  14  19
ENDBRANCH   9  10
ENDBRANCH   8   9
ENDBRANCH   5   8
BRANCH   5  21
HETATM   21  C   UNK N   1      33.838  16.774   6.051  0.00  0.00     0.021 C 
HETATM   22  C   UNK N   1      33.034  17.884   5.357  0.00  0.00     0.007 C 
HETATM   23  C   UNK N   1      32.660  17.381   3.981  0.00  0.00     0.000 C 
HETATM   24  C   UNK N   1      33.389  16.064   3.815  0.00  0.00     0.000 C 
HETATM   25  C   UNK N   1      33.588  15.533   5.222  0.00  0.00     0.007 C 
ENDBRANCH   5  21
BRANCH   3  26
HETATM   26  O   UNK N   1      34.855  13.279   8.321  0.00  0.00    -0.364 OA
HETATM   27  H   UNK N   1      34.833  12.344   8.273  0.00  0.00     0.217 HD
ENDBRANCH   3  26
BRANCH   2  28
HETATM   28  C   UNK N   1      36.615  14.790   9.916  0.00  0.00     0.126 C 
BRANCH  28  29
HETATM   29  C   UNK N   1      36.176  14.066  11.145  0.00  0.00     0.117 A 
HETATM   30  N   UNK N   1      35.256  13.064  11.189  0.00  0.00    -0.177 N 
HETATM   31  C   UNK N   1      35.167  12.828  12.512  0.00  0.00     0.705 A 
ATOM     32  HN  UNK N   1      34.762  12.610  10.421  1.00  0.00     0.185 HD
HETATM   33  N   UNK N   1      34.386  11.899  13.119  0.00  0.00    -0.194 N 
HETATM   34  N   UNK N   1      35.958  13.633  13.216  0.00  0.00    -0.089 N 
HETATM   35  C   UNK N   1      34.426  11.807  14.485  0.00  0.00     0.024 A 
ATOM     36  HN  UNK N   1      33.783  11.283  12.572  1.00  0.00     0.184 HD
HETATM   37  C   UNK N   1      33.603  10.787  15.185  0.00  0.00     0.068 C 
HETATM   38  C   UNK N   1      35.251  12.671  15.241  0.00  0.00     0.052 A 
HETATM   39  C   UNK N   1      36.034  13.611  14.563  0.00  0.00     0.050 A 
HETATM   40  C   UNK N   1      36.918  14.552  15.305  0.00  0.00     0.071 C 
HETATM   41  N   UNK N   1      36.604  14.417  12.380  0.00  0.00    -0.267 N 
ATOM     42  HN  UNK N   1      37.286  15.138  12.614  1.00  0.00     0.189 HD
ENDBRANCH  28  29
ENDBRANCH   2  28
TORSDOF 9
ENDMDL
MODEL 5
REMARK VINA RESULT:      -7.9      2.355      4.603
REMARK  9 active torsions:
REMARK  status: ('A' for Active; 'I' for Inactive)
REMARK    1  A    between atoms: C_22  and  C_5 
REMARK    2  A    between atoms: C_23  and  C_6 
REMARK    3  A    between atoms: C_12  and  C_11 
REMARK    4  A    between atoms: C_20  and  C_11 
REMARK    5  A    between atoms: C_29  and  C_12 
REMARK    6  A    between atoms: C_24  and  C_16 
REMARK    7  A    between atoms: C_26  and  C_16 
REMARK    8  A    between atoms: C_29  and  C_21 
REMARK    9  A    between atoms: O_39  and  C_25 
ROOT
HETATM    1  C   UNK N   1      31.767  17.277   5.996  0.00  0.00     0.104 C 
HETATM    2  C   UNK N   1      33.381  15.424   6.161  0.00  0.00     0.053 C 
HETATM    3  C   UNK N   1      33.175  16.748   6.130  0.00  0.00     0.059 C 
HETATM    4  C   UNK N   1      32.208  14.539   6.250  0.00  0.00     0.293 C 
HETATM    5  C   UNK N   1      30.703  16.397   6.720  0.00  0.00     0.080 C 
HETATM    6  O   UNK N   1      32.321  13.338   6.058  0.00  0.00    -0.259 OA
HETATM    7  O   UNK N   1      31.033  15.045   6.702  0.00  0.00    -0.305 OA
ENDROOT
BRANCH   5   8
HETATM    8  C   UNK N   1      29.342  16.467   6.042  0.00  0.00     0.044 C 
BRANCH   8   9
HETATM    9  C   UNK N   1      29.244  17.546   4.988  0.00  0.00     0.041 C 
BRANCH   9  10
HETATM   10  C   UNK N   1      27.956  18.276   5.145  0.00  0.00    -0.054 A 
HETATM   11  C   UNK N   1      26.745  17.744   4.675  0.00  0.00     0.032 A 
HETATM   12  C   UNK N   1      25.571  18.477   4.822  0.00  0.00     0.009 A 
HETATM   13  N   UNK N   1      25.608  19.705   5.408  0.00  0.00    -0.363 N 
HETATM   14  C   UNK N   1      26.776  20.240   5.863  0.00  0.00     0.009 A 
ATOM     15  HN  UNK N   1      24.743  20.236   5.509  1.00  0.00     0.165 HD
HETATM   16  C   UNK N   1      27.968  19.527   5.741  0.00  0.00     0.032 A 
BRANCH  12  17
HETATM   17  C   UNK N   1      24.285  17.916   4.323  0.00  0.00     0.052 C 
HETATM   18  C   UNK N   1      23.366  19.036   3.872  0.00  0.00     0.011 C 
ENDBRANCH  12  17
BRANCH  14  19
HETATM   19  C   UNK N   1      26.793  21.604   6.448  0.00  0.00     0.052 C 
HETATM   20  C   UNK N   1      25.950  21.626   7.712  0.00  0.00     0.011 C 
ENDBRANCH  14  19
ENDBRANCH   9  10
ENDBRANCH   8   9
ENDBRANCH   5   8
BRANCH   5  21
HETATM   21  C   UNK N   1      30.447  16.962   8.139  0.00  0.00     0.021 C 
HETATM   22  C   UNK N   1      28.941  17.037   8.435  0.00  0.00     0.007 C 
HETATM   23  C   UNK N   1      28.692  18.317   9.199  0.00  0.00     0.000 C 
HETATM   24  C   UNK N   1      30.062  18.889   9.495  0.00  0.00     0.000 C 
HETATM   25  C   UNK N   1      30.967  18.359   8.400  0.00  0.00     0.007 C 
ENDBRANCH   5  21
BRANCH   3  26
HETATM   26  O   UNK N   1      34.213  17.608   6.190  0.00  0.00    -0.364 OA
HETATM   27  H   UNK N   1      34.941  18.160   5.986  0.00  0.00     0.217 HD
ENDBRANCH   3  26
BRANCH   2  28
HETATM   28  C   UNK N   1      34.765  14.849   6.275  0.00  0.00     0.126 C 
BRANCH  28  29
HETATM   29  C   UNK N   1      34.913  14.415   7.695  0.00  0.00     0.117 A 
HETATM   30  N   UNK N   1      34.761  13.144   8.156  0.00  0.00    -0.177 N 
HETATM   31  C   UNK N   1      34.912  13.310   9.484  0.00  0.00     0.705 A 
ATOM     32  HN  UNK N   1      34.580  12.287   7.632  1.00  0.00     0.185 HD
HETATM   33  N   UNK N   1      34.865  12.341  10.433  0.00  0.00    -0.194 N 
HETATM   34  N   UNK N   1      35.122  14.583   9.805  0.00  0.00    -0.089 N 
HETATM   35  C   UNK N   1      35.038  12.703  11.742  0.00  0.00     0.024 A 
ATOM     36  HN  UNK N   1      34.704  11.366  10.177  1.00  0.00     0.184 HD
HETATM   37  C   UNK N   1      35.016  11.669  12.808  0.00  0.00     0.068 C 
HETATM   38  C   UNK N   1      35.245  14.057  12.093  0.00  0.00     0.052 A 
HETATM   39  C   UNK N   1      35.282  15.014  11.074  0.00  0.00     0.050 A 
HETATM   40  C   UNK N   1      35.490  16.456  11.382  0.00  0.00     0.071 C 
HETATM   41  N   UNK N   1      35.131  15.295   8.699  0.00  0.00    -0.267 N 
ATOM     42  HN  UNK N   1      35.273  16.302   8.616  1.00  0.00     0.189 HD
ENDBRANCH  28  29
ENDBRANCH   2  28
TORSDOF 9
ENDMDL
MODEL 6
REMARK VINA RESULT:      -7.9      1.665      2.205
REMARK  9 active torsions:
REMARK  status: ('A' for Active; 'I' for Inactive)
REMARK    1  A    between atoms: C_22  and  C_5 
REMARK    2  A    between atoms: C_23  and  C_6 
REMARK    3  A    between atoms: C_12  and  C_11 
REMARK    4  A    between atoms: C_20  and  C_11 
REMARK    5  A    between atoms: C_29  and  C_12 
REMARK    6  A    between atoms: C_24  and  C_16 
REMARK    7  A    between atoms: C_26  and  C_16 
REMARK    8  A    between atoms: C_29  and  C_21 
REMARK    9  A    between atoms: O_39  and  C_25 
ROOT
HETATM    1  C   UNK N   1      33.985  14.079   9.250  0.00  0.00     0.104 C 
HETATM    2  C   UNK N   1      36.073  13.353  10.335  0.00  0.00     0.053 C 
HETATM    3  C   UNK N   1      34.780  13.105  10.086  0.00  0.00     0.059 C 
HETATM    4  C   UNK N   1      36.716  14.472   9.628  0.00  0.00     0.293 C 
HETATM    5  C   UNK N   1      34.822  14.752   8.120  0.00  0.00     0.080 C 
HETATM    6  O   UNK N   1      37.814  14.879   9.977  0.00  0.00    -0.259 OA
HETATM    7  O   UNK N   1      36.151  14.944   8.488  0.00  0.00    -0.305 OA
ENDROOT
BRANCH   5   8
HETATM    8  C   UNK N   1      34.315  16.148   7.783  0.00  0.00     0.044 C 
BRANCH   8   9
HETATM    9  C   UNK N   1      33.189  16.616   8.676  0.00  0.00     0.041 C 
BRANCH   9  10
HETATM   10  C   UNK N   1      31.999  16.942   7.844  0.00  0.00    -0.054 A 
HETATM   11  C   UNK N   1      32.016  16.808   6.447  0.00  0.00     0.032 A 
HETATM   12  C   UNK N   1      30.886  17.150   5.710  0.00  0.00     0.009 A 
HETATM   13  N   UNK N   1      29.780  17.623   6.348  0.00  0.00    -0.363 N 
HETATM   14  C   UNK N   1      29.749  17.768   7.702  0.00  0.00     0.009 A 
ATOM     15  HN  UNK N   1      28.958  17.874   5.800  1.00  0.00     0.165 HD
HETATM   16  C   UNK N   1      30.860  17.423   8.470  0.00  0.00     0.032 A 
BRANCH  12  17
HETATM   17  C   UNK N   1      30.902  17.010   4.228  0.00  0.00     0.052 C 
HETATM   18  C   UNK N   1      32.227  17.496   3.671  0.00  0.00     0.011 C 
ENDBRANCH  12  17
BRANCH  14  19
HETATM   19  C   UNK N   1      28.548  18.338   8.363  0.00  0.00     0.052 C 
HETATM   20  C   UNK N   1      27.966  17.318   9.328  0.00  0.00     0.011 C 
ENDBRANCH  14  19
ENDBRANCH   9  10
ENDBRANCH   8   9
ENDBRANCH   5   8
BRANCH   5  21
HETATM   21  C   UNK N   1      34.644  13.958   6.803  0.00  0.00     0.021 C 
HETATM   22  C   UNK N   1      35.091  14.794   5.594  0.00  0.00     0.007 C 
HETATM   23  C   UNK N   1      34.119  14.523   4.469  0.00  0.00     0.000 C 
HETATM   24  C   UNK N   1      33.221  13.409   4.965  0.00  0.00     0.000 C 
HETATM   25  C   UNK N   1      33.231  13.525   6.477  0.00  0.00     0.007 C 
ENDBRANCH   5  21
BRANCH   3  26
HETATM   26  O   UNK N   1      34.179  12.010  10.597  0.00  0.00    -0.364 OA
HETATM   27  H   UNK N   1      33.717  11.405  11.141  0.00  0.00     0.217 HD
ENDBRANCH   3  26
BRANCH   2  28
HETATM   28  C   UNK N   1      36.902  12.423  11.176  0.00  0.00     0.126 C 
BRANCH  28  29
HETATM   29  C   UNK N   1      36.467  12.648  12.586  0.00  0.00     0.117 A 
HETATM   30  N   UNK N   1      36.843  13.693  13.374  0.00  0.00    -0.177 N 
HETATM   31  C   UNK N   1      36.257  13.381  14.546  0.00  0.00     0.705 A 
ATOM     32  HN  UNK N   1      37.419  14.501  13.139  1.00  0.00     0.185 HD
HETATM   33  N   UNK N   1      36.300  14.106  15.693  0.00  0.00    -0.194 N 
HETATM   34  N   UNK N   1      35.592  12.231  14.479  0.00  0.00    -0.089 N 
HETATM   35  C   UNK N   1      35.641  13.624  16.792  0.00  0.00     0.024 A 
ATOM     36  HN  UNK N   1      36.812  14.988  15.734  1.00  0.00     0.184 HD
HETATM   37  C   UNK N   1      35.646  14.400  18.059  0.00  0.00     0.068 C 
HETATM   38  C   UNK N   1      34.947  12.395  16.734  0.00  0.00     0.052 A 
HETATM   39  C   UNK N   1      34.937  11.689  15.526  0.00  0.00     0.050 A 
HETATM   40  C   UNK N   1      34.228  10.384  15.405  0.00  0.00     0.071 C 
HETATM   41  N   UNK N   1      35.707  11.754  13.259  0.00  0.00    -0.267 N 
ATOM     42  HN  UNK N   1      35.305  10.891  12.894  1.00  0.00     0.189 HD
ENDBRANCH  28  29
ENDBRANCH   2  28
TORSDOF 9
ENDMDL
MODEL 7
REMARK VINA RESULT:      -7.9      1.988      3.549
REMARK  9 active torsions:
REMARK  status: ('A' for Active; 'I' for Inactive)
REMARK    1  A    between atoms: C_22  and  C_5 
REMARK    2  A    between atoms: C_23  and  C_6 
REMARK    3  A    between atoms: C_12  and  C_11 
REMARK    4  A    between atoms: C_20  and  C_11 
REMARK    5  A    between atoms: C_29  and  C_12 
REMARK    6  A    between atoms: C_24  and  C_16 
REMARK    7  A    between atoms: C_26  and  C_16 
REMARK    8  A    between atoms: C_29  and  C_21 
REMARK    9  A    between atoms: O_39  and  C_25 
ROOT
HETATM    1  C   UNK N   1      32.675  16.103   7.990  0.00  0.00     0.104 C 
HETATM    2  C   UNK N   1      34.445  17.090   9.391  0.00  0.00     0.053 C 
HETATM    3  C   UNK N   1      33.540  16.115   9.228  0.00  0.00     0.059 C 
HETATM    4  C   UNK N   1      34.689  18.007   8.267  0.00  0.00     0.293 C 
HETATM    5  C   UNK N   1      33.410  16.628   6.718  0.00  0.00     0.080 C 
HETATM    6  O   UNK N   1      35.329  19.035   8.432  0.00  0.00    -0.259 OA
HETATM    7  O   UNK N   1      34.336  17.624   7.015  0.00  0.00    -0.305 OA
ENDROOT
BRANCH   5   8
HETATM    8  C   UNK N   1      32.452  17.278   5.729  0.00  0.00     0.044 C 
BRANCH   8   9
HETATM    9  C   UNK N   1      31.178  16.495   5.514  0.00  0.00     0.041 C 
BRANCH   9  10
HETATM   10  C   UNK N   1      30.007  17.355   5.835  0.00  0.00    -0.054 A 
HETATM   11  C   UNK N   1      29.318  18.066   4.840  0.00  0.00     0.032 A 
HETATM   12  C   UNK N   1      28.244  18.877   5.195  0.00  0.00     0.009 A 
HETATM   13  N   UNK N   1      27.879  18.984   6.502  0.00  0.00    -0.363 N 
HETATM   14  C   UNK N   1      28.541  18.308   7.482  0.00  0.00     0.009 A 
ATOM     15  HN  UNK N   1      27.092  19.583   6.753  1.00  0.00     0.165 HD
HETATM   16  C   UNK N   1      29.614  17.477   7.159  0.00  0.00     0.032 A 
BRANCH  12  17
HETATM   17  C   UNK N   1      27.513  19.633   4.141  0.00  0.00     0.052 C 
HETATM   18  C   UNK N   1      26.594  20.660   4.777  0.00  0.00     0.011 C 
ENDBRANCH  12  17
BRANCH  14  19
HETATM   19  C   UNK N   1      28.154  18.487   8.904  0.00  0.00     0.052 C 
HETATM   20  C   UNK N   1      28.738  17.358   9.736  0.00  0.00     0.011 C 
ENDBRANCH  14  19
ENDBRANCH   9  10
ENDBRANCH   8   9
ENDBRANCH   5   8
BRANCH   5  21
HETATM   21  C   UNK N   1      34.004  15.431   5.936  0.00  0.00     0.021 C 
HETATM   22  C   UNK N   1      33.422  14.102   6.441  0.00  0.00     0.007 C 
HETATM   23  C   UNK N   1      34.544  13.089   6.451  0.00  0.00     0.000 C 
HETATM   24  C   UNK N   1      35.721  13.777   5.793  0.00  0.00     0.000 C 
HETATM   25  C   UNK N   1      35.505  15.260   6.027  0.00  0.00     0.007 C 
ENDBRANCH   5  21
BRANCH   3  26
HETATM   26  O   UNK N   1      33.375  15.163  10.171  0.00  0.00    -0.364 OA
HETATM   27  H   UNK N   1      33.074  14.434  10.676  0.00  0.00     0.217 HD
ENDBRANCH   3  26
BRANCH   2  28
HETATM   28  C   UNK N   1      35.315  17.154  10.615  0.00  0.00     0.126 C 
BRANCH  28  29
HETATM   29  C   UNK N   1      35.991  15.827  10.708  0.00  0.00     0.117 A 
HETATM   30  N   UNK N   1      36.490  15.117   9.659  0.00  0.00    -0.177 N 
HETATM   31  C   UNK N   1      36.903  13.985  10.262  0.00  0.00     0.705 A 
ATOM     32  HN  UNK N   1      36.540  15.374   8.674  1.00  0.00     0.185 HD
HETATM   33  N   UNK N   1      37.501  12.921   9.669  0.00  0.00    -0.194 N 
HETATM   34  N   UNK N   1      36.658  14.001  11.570  0.00  0.00    -0.089 N 
HETATM   35  C   UNK N   1      37.848  11.851  10.449  0.00  0.00     0.024 A 
ATOM     36  HN  UNK N   1      37.686  12.918   8.665  1.00  0.00     0.184 HD
HETATM   37  C   UNK N   1      38.525  10.677   9.840  0.00  0.00     0.068 C 
HETATM   38  C   UNK N   1      37.576  11.853  11.836  0.00  0.00     0.052 A 
HETATM   39  C   UNK N   1      36.957  12.975  12.395  0.00  0.00     0.050 A 
HETATM   40  C   UNK N   1      36.639  13.033  13.849  0.00  0.00     0.071 C 
HETATM   41  N   UNK N   1      36.090  15.147  11.874  0.00  0.00    -0.267 N 
ATOM     42  HN  UNK N   1      35.787  15.459  12.796  1.00  0.00     0.189 HD
ENDBRANCH  28  29
ENDBRANCH   2  28
TORSDOF 9
ENDMDL
MODEL 8
REMARK VINA RESULT:      -7.8      1.281      2.447
REMARK  9 active torsions:
REMARK  status: ('A' for Active; 'I' for Inactive)
REMARK    1  A    between atoms: C_22  and  C_5 
REMARK    2  A    between atoms: C_23  and  C_6 
REMARK    3  A    between atoms: C_12  and  C_11 
REMARK    4  A    between atoms: C_20  and  C_11 
REMARK    5  A    between atoms: C_29  and  C_12 
REMARK    6  A    between atoms: C_24  and  C_16 
REMARK    7  A    between atoms: C_26  and  C_16 
REMARK    8  A    between atoms: C_29  and  C_21 
REMARK    9  A    between atoms: O_39  and  C_25 
ROOT
HETATM    1  C   UNK N   1      33.843  14.182   8.748  0.00  0.00     0.104 C 
HETATM    2  C   UNK N   1      35.836  14.010  10.185  0.00  0.00     0.053 C 
HETATM    3  C   UNK N   1      34.866  13.376   9.513  0.00  0.00     0.059 C 
HETATM    4  C   UNK N   1      35.977  15.463   9.998  0.00  0.00     0.293 C 
HETATM    5  C   UNK N   1      34.428  15.482   8.117  0.00  0.00     0.080 C 
HETATM    6  O   UNK N   1      36.688  16.119  10.744  0.00  0.00    -0.259 OA
HETATM    7  O   UNK N   1      35.438  16.041   8.895  0.00  0.00    -0.305 OA
ENDROOT
BRANCH   5   8
HETATM    8  C   UNK N   1      33.383  16.583   8.000  0.00  0.00     0.044 C 
BRANCH   8   9
HETATM    9  C   UNK N   1      31.994  16.147   8.407  0.00  0.00     0.041 C 
BRANCH   9  10
HETATM   10  C   UNK N   1      30.991  16.785   7.510  0.00  0.00    -0.054 A 
HETATM   11  C   UNK N   1      29.983  17.624   8.010  0.00  0.00     0.032 A 
HETATM   12  C   UNK N   1      29.054  18.177   7.134  0.00  0.00     0.009 A 
HETATM   13  N   UNK N   1      29.122  17.890   5.805  0.00  0.00    -0.363 N 
HETATM   14  C   UNK N   1      30.088  17.070   5.304  0.00  0.00     0.009 A 
ATOM     15  HN  UNK N   1      28.434  18.297   5.171  1.00  0.00     0.165 HD
HETATM   16  C   UNK N   1      31.042  16.510   6.153  0.00  0.00     0.032 A 
BRANCH  12  17
HETATM   17  C   UNK N   1      27.983  19.066   7.661  0.00  0.00     0.052 C 
HETATM   18  C   UNK N   1      27.418  19.924   6.545  0.00  0.00     0.011 C 
ENDBRANCH  12  17
BRANCH  14  19
HETATM   19  C   UNK N   1      30.103  16.733   3.858  0.00  0.00     0.052 C 
HETATM   20  C   UNK N   1      31.539  16.682   3.363  0.00  0.00     0.011 C 
ENDBRANCH  14  19
ENDBRANCH   9  10
ENDBRANCH   8   9
ENDBRANCH   5   8
BRANCH   5  21
HETATM   21  C   UNK N   1      34.845  15.203   6.652  0.00  0.00     0.021 C 
HETATM   22  C   UNK N   1      33.887  14.199   5.991  0.00  0.00     0.007 C 
HETATM   23  C   UNK N   1      34.719  13.280   5.126  0.00  0.00     0.000 C 
HETATM   24  C   UNK N   1      36.119  13.854   5.149  0.00  0.00     0.000 C 
HETATM   25  C   UNK N   1      36.225  14.612   6.458  0.00  0.00     0.007 C 
ENDBRANCH   5  21
BRANCH   3  26
HETATM   26  O   UNK N   1      34.778  12.029   9.538  0.00  0.00    -0.364 OA
HETATM   27  H   UNK N   1      34.480  11.142   9.499  0.00  0.00     0.217 HD
ENDBRANCH   3  26
BRANCH   2  28
HETATM   28  C   UNK N   1      36.865  13.253  10.977  0.00  0.00     0.126 C 
BRANCH  28  29
HETATM   29  C   UNK N   1      36.366  13.230  12.383  0.00  0.00     0.117 A 
HETATM   30  N   UNK N   1      36.838  13.997  13.404  0.00  0.00    -0.177 N 
HETATM   31  C   UNK N   1      36.125  13.536  14.449  0.00  0.00     0.705 A 
ATOM     32  HN  UNK N   1      37.547  14.730  13.384  1.00  0.00     0.185 HD
HETATM   33  N   UNK N   1      36.193  13.971  15.733  0.00  0.00    -0.194 N 
HETATM   34  N   UNK N   1      35.298  12.556  14.094  0.00  0.00    -0.089 N 
HETATM   35  C   UNK N   1      35.387  13.375  16.666  0.00  0.00     0.024 A 
ATOM     36  HN  UNK N   1      36.829  14.725  15.997  1.00  0.00     0.184 HD
HETATM   37  C   UNK N   1      35.416  13.839  18.077  0.00  0.00     0.068 C 
HETATM   38  C   UNK N   1      34.519  12.321  16.300  0.00  0.00     0.052 A 
HETATM   39  C   UNK N   1      34.491  11.912  14.963  0.00  0.00     0.050 A 
HETATM   40  C   UNK N   1      33.602  10.803  14.517  0.00  0.00     0.071 C 
HETATM   41  N   UNK N   1      35.429  12.349  12.802  0.00  0.00    -0.267 N 
ATOM     42  HN  UNK N   1      34.928  11.666  12.234  1.00  0.00     0.189 HD
ENDBRANCH  28  29
ENDBRANCH   2  28
TORSDOF 9
ENDMDL
MODEL 9
REMARK VINA RESULT:      -7.8      2.172      4.281
REMARK  9 active torsions:
REMARK  status: ('A' for Active; 'I' for Inactive)
REMARK    1  A    between atoms: C_22  and  C_5 
REMARK    2  A    between atoms: C_23  and  C_6 
REMARK    3  A    between atoms: C_12  and  C_11 
REMARK    4  A    between atoms: C_20  and  C_11 
REMARK    5  A    between atoms: C_29  and  C_12 
REMARK    6  A    between atoms: C_24  and  C_16 
REMARK    7  A    between atoms: C_26  and  C_16 
REMARK    8  A    between atoms: C_29  and  C_21 
REMARK    9  A    between atoms: O_39  and  C_25 
ROOT
HETATM    1  C   UNK N   1      32.212  17.395   6.328  0.00  0.00     0.104 C 
HETATM    2  C   UNK N   1      33.925  15.670   6.724  0.00  0.00     0.053 C 
HETATM    3  C   UNK N   1      33.620  16.974   6.677  0.00  0.00     0.059 C 
HETATM    4  C   UNK N   1      32.829  14.694   6.618  0.00  0.00     0.293 C 
HETATM    5  C   UNK N   1      31.123  16.417   6.867  0.00  0.00     0.080 C 
HETATM    6  O   UNK N   1      33.066  13.510   6.433  0.00  0.00    -0.259 OA
HETATM    7  O   UNK N   1      31.561  15.096   6.885  0.00  0.00    -0.305 OA
ENDROOT
BRANCH   5   8
HETATM    8  C   UNK N   1      29.883  16.397   5.983  0.00  0.00     0.044 C 
BRANCH   8   9
HETATM    9  C   UNK N   1      29.937  17.382   4.839  0.00  0.00     0.041 C 
BRANCH   9  10
HETATM   10  C   UNK N   1      28.572  17.915   4.578  0.00  0.00    -0.054 A 
HETATM   11  C   UNK N   1      28.193  19.204   4.983  0.00  0.00     0.032 A 
HETATM   12  C   UNK N   1      26.896  19.647   4.739  0.00  0.00     0.009 A 
HETATM   13  N   UNK N   1      26.004  18.824   4.122  0.00  0.00    -0.363 N 
HETATM   14  C   UNK N   1      26.352  17.566   3.730  0.00  0.00     0.009 A 
ATOM     15  HN  UNK N   1      25.056  19.156   3.950  1.00  0.00     0.165 HD
HETATM   16  C   UNK N   1      27.647  17.097   3.949  0.00  0.00     0.032 A 
BRANCH  12  17
HETATM   17  C   UNK N   1      26.491  21.014   5.168  0.00  0.00     0.052 C 
HETATM   18  C   UNK N   1      27.287  21.436   6.389  0.00  0.00     0.011 C 
ENDBRANCH  12  17
BRANCH  14  19
HETATM   19  C   UNK N   1      25.343  16.673   3.109  0.00  0.00     0.052 C 
HETATM   20  C   UNK N   1      24.029  16.787   3.864  0.00  0.00     0.011 C 
ENDBRANCH  14  19
ENDBRANCH   9  10
ENDBRANCH   8   9
ENDBRANCH   5   8
BRANCH   5  21
HETATM   21  C   UNK N   1      30.604  16.926   8.233  0.00  0.00     0.021 C 
HETATM   22  C   UNK N   1      29.072  17.052   8.225  0.00  0.00     0.007 C 
HETATM   23  C   UNK N   1      28.716  18.305   8.992  0.00  0.00     0.000 C 
HETATM   24  C   UNK N   1      30.016  18.804   9.586  0.00  0.00     0.000 C 
HETATM   25  C   UNK N   1      31.105  18.286   8.667  0.00  0.00     0.007 C 
ENDBRANCH   5  21
BRANCH   3  26
HETATM   26  O   UNK N   1      34.564  17.910   6.909  0.00  0.00    -0.364 OA
HETATM   27  H   UNK N   1      35.241  18.552   6.822  0.00  0.00     0.217 HD
ENDBRANCH   3  26
BRANCH   2  28
HETATM   28  C   UNK N   1      35.316  15.202   7.049  0.00  0.00     0.126 C 
BRANCH  28  29
HETATM   29  C   UNK N   1      35.261  14.691   8.450  0.00  0.00     0.117 A 
HETATM   30  N   UNK N   1      35.589  15.401   9.565  0.00  0.00    -0.177 N 
HETATM   31  C   UNK N   1      35.452  14.474  10.533  0.00  0.00     0.705 A 
ATOM     32  HN  UNK N   1      35.866  16.379   9.647  1.00  0.00     0.185 HD
HETATM   33  N   UNK N   1      35.648  14.656  11.863  0.00  0.00    -0.194 N 
HETATM   34  N   UNK N   1      35.086  13.293  10.042  0.00  0.00    -0.089 N 
HETATM   35  C   UNK N   1      35.463  13.588  12.701  0.00  0.00     0.024 A 
ATOM     36  HN  UNK N   1      35.927  15.566  12.231  1.00  0.00     0.184 HD
HETATM   37  C   UNK N   1      35.646  13.753  14.165  0.00  0.00     0.068 C 
HETATM   38  C   UNK N   1      35.091  12.325  12.185  0.00  0.00     0.052 A 
HETATM   39  C   UNK N   1      34.904  12.195  10.805  0.00  0.00     0.050 A 
HETATM   40  C   UNK N   1      34.518  10.888  10.202  0.00  0.00     0.071 C 
HETATM   41  N   UNK N   1      34.957  13.405   8.738  0.00  0.00    -0.267 N 
ATOM     42  HN  UNK N   1      34.683  12.675   8.081  1.00  0.00     0.189 HD
ENDBRANCH  28  29
ENDBRANCH   2  28
TORSDOF 9
ENDMDL
