MODEL 1
REMARK VINA RESULT:      -7.7      0.000      0.000
REMARK  9 active torsions:
REMARK  status: ('A' for Active; 'I' for Inactive)
REMARK    1  A    between atoms: C_2  and  N_3 
REMARK       I    between atoms: N_3  and  C_4 
REMARK    2  A    between atoms: C_4  and  C_6 
REMARK    3  A    between atoms: C_7  and  C_24 
REMARK    4  A    between atoms: C_8  and  C_12 
REMARK    5  A    between atoms: C_14  and  C_20 
REMARK    6  A    between atoms: C_15  and  O_19 
REMARK    7  A    between atoms: C_17  and  O_18 
REMARK    8  A    between atoms: C_27  and  C_30 
REMARK    9  A    between atoms: C_30  and  N_31 
ROOT
HETATM    1  C   UNK N   1      19.709  16.305   4.309  0.00  0.00     0.136 A 
HETATM    2  C   UNK N   1      20.831  15.998   5.085  0.00  0.00     0.045 A 
HETATM    3  C   UNK N   1      20.302  15.267   6.174  0.00  0.00     0.125 A 
HETATM    4  O   UNK N   1      18.999  15.199   5.998  0.00  0.00    -0.235 OA
HETATM    5  N   UNK N   1      18.618  15.799   4.912  0.00  0.00    -0.254 N 
ATOM      6  HN  UNK N   1      17.659  15.874   4.574  1.00  0.00     0.195 HD
ENDROOT
BRANCH   3   7
HETATM    7  C   UNK N   1      20.945  14.682   7.407  0.00  0.00     0.035 A 
HETATM    8  C   UNK N   1      22.200  14.056   7.366  0.00  0.00     0.028 A 
HETATM    9  C   UNK N   1      22.799  13.494   8.512  0.00  0.00    -0.016 A 
HETATM   10  C   UNK N   1      22.114  13.584   9.740  0.00  0.00     0.075 A 
HETATM   11  C   UNK N   1      20.875  14.216   9.802  0.00  0.00     0.074 A 
HETATM   12  C   UNK N   1      20.287  14.759   8.659  0.00  0.00     0.081 A 
BRANCH   9  13
HETATM   13  C   UNK N   1      24.151  12.787   8.427  0.00  0.00    -0.021 C 
HETATM   14  C   UNK N   1      23.974  11.285   8.552  0.00  0.00     0.019 C 
HETATM   15  C   UNK N   1      25.119  13.209   9.514  0.00  0.00     0.019 C 
HETATM   16  C   UNK N   1      24.816  13.098   7.096  0.00  0.00     0.019 C 
ENDBRANCH   9  13
BRANCH  10  17
HETATM   17  O   UNK N   1      22.639  13.064  10.864  0.00  0.00    -0.360 OA
HETATM   18  H   UNK N   1      23.081  13.618  11.476  0.00  0.00     0.217 HD
ENDBRANCH  10  17
BRANCH  12  19
HETATM   19  O   UNK N   1      19.089  15.358   8.780  0.00  0.00    -0.360 OA
HETATM   20  H   UNK N   1      18.636  15.659   8.017  0.00  0.00     0.217 HD
ENDBRANCH  12  19
ENDBRANCH   3   7
BRANCH   2  21
HETATM   21  C   UNK N   1      22.234  16.426   4.817  0.00  0.00    -0.021 A 
HETATM   22  C   UNK N   1      22.666  17.712   5.188  0.00  0.00     0.013 A 
HETATM   23  C   UNK N   1      24.004  18.094   5.039  0.00  0.00     0.010 A 
HETATM   24  C   UNK N   1      24.927  17.190   4.512  0.00  0.00    -0.030 A 
HETATM   25  C   UNK N   1      24.491  15.925   4.105  0.00  0.00     0.010 A 
HETATM   26  C   UNK N   1      23.161  15.552   4.261  0.00  0.00     0.013 A 
BRANCH  24  27
HETATM   27  C   UNK N   1      26.380  17.560   4.432  0.00  0.00     0.311 C 
BRANCH  27  28
HETATM   28  N   UNK N   1      26.702  18.603   5.401  0.00  0.00     0.096 N 
HETATM   29  C   UNK N   1      27.683  18.097   6.360  0.00  0.00     0.299 C 
HETATM   30  C   UNK N   1      28.154  19.242   7.278  0.00  0.00     0.198 C 
HETATM   31  O   UNK N   1      27.433  20.425   7.018  0.00  0.00    -0.388 OA
HETATM   32  C   UNK N   1      27.756  20.810   5.701  0.00  0.00     0.198 C 
HETATM   33  C   UNK N   1      27.253  19.764   4.693  0.00  0.00     0.299 C 
ENDBRANCH  27  28
ENDBRANCH  24  27
ENDBRANCH   2  21
BRANCH   1  34
HETATM   34  C   UNK N   1      19.619  17.011   3.006  0.00  0.00     0.271 C 
HETATM   35  N   UNK N   1      19.942  16.352   1.867  0.00  0.00    -0.356 N 
HETATM   36  H   UNK N   1      20.245  15.417   1.924  0.00  0.00     0.162 HD
HETATM   37  O   UNK N   1      19.284  18.185   2.953  0.00  0.00    -0.266 OA
BRANCH  35  38
HETATM   38  C   UNK N   1      19.854  16.984   0.573  0.00  0.00     0.118 C 
HETATM   39  C   UNK N   1      18.902  16.210  -0.313  0.00  0.00     0.026 C 
ENDBRANCH  35  38
ENDBRANCH   1  34
TORSDOF 9
ENDMDL
MODEL 2
REMARK VINA RESULT:      -7.5      5.279      7.714
REMARK  9 active torsions:
REMARK  status: ('A' for Active; 'I' for Inactive)
REMARK    1  A    between atoms: C_2  and  N_3 
REMARK       I    between atoms: N_3  and  C_4 
REMARK    2  A    between atoms: C_4  and  C_6 
REMARK    3  A    between atoms: C_7  and  C_24 
REMARK    4  A    between atoms: C_8  and  C_12 
REMARK    5  A    between atoms: C_14  and  C_20 
REMARK    6  A    between atoms: C_15  and  O_19 
REMARK    7  A    between atoms: C_17  and  O_18 
REMARK    8  A    between atoms: C_27  and  C_30 
REMARK    9  A    between atoms: C_30  and  N_31 
ROOT
HETATM    1  C   UNK N   1      26.350  19.944   4.912  0.00  0.00     0.136 A 
HETATM    2  C   UNK N   1      27.094  18.793   5.189  0.00  0.00     0.045 A 
HETATM    3  C   UNK N   1      27.723  19.081   6.422  0.00  0.00     0.125 A 
HETATM    4  O   UNK N   1      27.352  20.296   6.771  0.00  0.00    -0.235 OA
HETATM    5  N   UNK N   1      26.546  20.831   5.905  0.00  0.00    -0.254 N 
ATOM      6  HN  UNK N   1      26.133  21.761   5.966  1.00  0.00     0.195 HD
ENDROOT
BRANCH   3   7
HETATM    7  C   UNK N   1      28.706  18.305   7.262  0.00  0.00     0.035 A 
HETATM    8  C   UNK N   1      29.895  17.787   6.728  0.00  0.00     0.028 A 
HETATM    9  C   UNK N   1      30.811  17.047   7.504  0.00  0.00    -0.016 A 
HETATM   10  C   UNK N   1      30.521  16.842   8.868  0.00  0.00     0.075 A 
HETATM   11  C   UNK N   1      29.354  17.363   9.419  0.00  0.00     0.074 A 
HETATM   12  C   UNK N   1      28.450  18.084   8.638  0.00  0.00     0.081 A 
BRANCH   9  13
HETATM   13  C   UNK N   1      32.080  16.466   6.883  0.00  0.00    -0.021 C 
HETATM   14  C   UNK N   1      32.078  16.675   5.379  0.00  0.00     0.019 C 
HETATM   15  C   UNK N   1      32.238  14.977   7.121  0.00  0.00     0.019 C 
HETATM   16  C   UNK N   1      33.305  17.143   7.474  0.00  0.00     0.019 C 
ENDBRANCH   9  13
BRANCH  10  17
HETATM   17  O   UNK N   1      31.360  16.143   9.654  0.00  0.00    -0.360 OA
HETATM   18  H   UNK N   1      31.383  15.209   9.602  0.00  0.00     0.217 HD
ENDBRANCH  10  17
BRANCH  12  19
HETATM   19  O   UNK N   1      27.339  18.563   9.225  0.00  0.00    -0.360 OA
HETATM   20  H   UNK N   1      26.602  18.002   9.363  0.00  0.00     0.217 HD
ENDBRANCH  12  19
ENDBRANCH   3   7
BRANCH   2  21
HETATM   21  C   UNK N   1      27.217  17.590   4.316  0.00  0.00    -0.021 A 
HETATM   22  C   UNK N   1      28.425  17.316   3.651  0.00  0.00     0.013 A 
HETATM   23  C   UNK N   1      28.591  16.139   2.912  0.00  0.00     0.010 A 
HETATM   24  C   UNK N   1      27.544  15.221   2.828  0.00  0.00    -0.030 A 
HETATM   25  C   UNK N   1      26.328  15.511   3.456  0.00  0.00     0.010 A 
HETATM   26  C   UNK N   1      26.173  16.679   4.192  0.00  0.00     0.013 A 
BRANCH  24  27
HETATM   27  C   UNK N   1      27.743  13.916   2.113  0.00  0.00     0.311 C 
BRANCH  27  28
HETATM   28  N   UNK N   1      29.095  13.410   2.329  0.00  0.00     0.096 N 
HETATM   29  C   UNK N   1      29.106  12.517   3.487  0.00  0.00     0.299 C 
HETATM   30  C   UNK N   1      30.487  11.846   3.616  0.00  0.00     0.198 C 
HETATM   31  O   UNK N   1      31.388  12.359   2.660  0.00  0.00    -0.388 OA
HETATM   32  C   UNK N   1      30.883  11.993   1.397  0.00  0.00     0.198 C 
HETATM   33  C   UNK N   1      29.531  12.678   1.134  0.00  0.00     0.299 C 
ENDBRANCH  27  28
ENDBRANCH  24  27
ENDBRANCH   2  21
BRANCH   1  34
HETATM   34  C   UNK N   1      25.429  20.232   3.784  0.00  0.00     0.271 C 
HETATM   35  N   UNK N   1      24.109  19.954   3.912  0.00  0.00    -0.356 N 
HETATM   36  H   UNK N   1      23.784  19.552   4.751  0.00  0.00     0.162 HD
HETATM   37  O   UNK N   1      25.853  20.689   2.733  0.00  0.00    -0.266 OA
BRANCH  35  38
HETATM   38  C   UNK N   1      23.168  20.232   2.855  0.00  0.00     0.118 C 
HETATM   39  C   UNK N   1      21.807  19.680   3.221  0.00  0.00     0.026 C 
ENDBRANCH  35  38
ENDBRANCH   1  34
TORSDOF 9
ENDMDL
MODEL 3
REMARK VINA RESULT:      -7.5      4.761      7.710
REMARK  9 active torsions:
REMARK  status: ('A' for Active; 'I' for Inactive)
REMARK    1  A    between atoms: C_2  and  N_3 
REMARK       I    between atoms: N_3  and  C_4 
REMARK    2  A    between atoms: C_4  and  C_6 
REMARK    3  A    between atoms: C_7  and  C_24 
REMARK    4  A    between atoms: C_8  and  C_12 
REMARK    5  A    between atoms: C_14  and  C_20 
REMARK    6  A    between atoms: C_15  and  O_19 
REMARK    7  A    between atoms: C_17  and  O_18 
REMARK    8  A    between atoms: C_27  and  C_30 
REMARK    9  A    between atoms: C_30  and  N_31 
ROOT
HETATM    1  C   UNK N   1      26.105  20.085   4.434  0.00  0.00     0.136 A 
HETATM    2  C   UNK N   1      26.715  18.893   4.837  0.00  0.00     0.045 A 
HETATM    3  C   UNK N   1      27.552  19.284   5.907  0.00  0.00     0.125 A 
HETATM    4  O   UNK N   1      27.408  20.585   6.057  0.00  0.00    -0.235 OA
HETATM    5  N   UNK N   1      26.564  21.086   5.206  0.00  0.00    -0.254 N 
ATOM      6  HN  UNK N   1      26.296  22.067   5.136  1.00  0.00     0.195 HD
ENDROOT
BRANCH   3   7
HETATM    7  C   UNK N   1      28.532  18.515   6.758  0.00  0.00     0.035 A 
HETATM    8  C   UNK N   1      29.632  17.843   6.204  0.00  0.00     0.028 A 
HETATM    9  C   UNK N   1      30.543  17.110   6.991  0.00  0.00    -0.016 A 
HETATM   10  C   UNK N   1      30.343  17.071   8.385  0.00  0.00     0.075 A 
HETATM   11  C   UNK N   1      29.267  17.746   8.955  0.00  0.00     0.074 A 
HETATM   12  C   UNK N   1      28.366  18.460   8.164  0.00  0.00     0.081 A 
BRANCH   9  13
HETATM   13  C   UNK N   1      31.710  16.359   6.352  0.00  0.00    -0.021 C 
HETATM   14  C   UNK N   1      31.638  14.880   6.688  0.00  0.00     0.019 C 
HETATM   15  C   UNK N   1      33.067  16.851   6.815  0.00  0.00     0.019 C 
HETATM   16  C   UNK N   1      31.669  16.525   4.842  0.00  0.00     0.019 C 
ENDBRANCH   9  13
BRANCH  10  17
HETATM   17  O   UNK N   1      31.182  16.386   9.184  0.00  0.00    -0.360 OA
HETATM   18  H   UNK N   1      30.844  15.760   9.793  0.00  0.00     0.217 HD
ENDBRANCH  10  17
BRANCH  12  19
HETATM   19  O   UNK N   1      27.345  19.091   8.769  0.00  0.00    -0.360 OA
HETATM   20  H   UNK N   1      26.612  19.387   8.266  0.00  0.00     0.217 HD
ENDBRANCH  12  19
ENDBRANCH   3   7
BRANCH   2  21
HETATM   21  C   UNK N   1      26.542  17.554   4.203  0.00  0.00    -0.021 A 
HETATM   22  C   UNK N   1      25.337  16.846   4.357  0.00  0.00     0.013 A 
HETATM   23  C   UNK N   1      25.119  15.638   3.686  0.00  0.00     0.010 A 
HETATM   24  C   UNK N   1      26.111  15.121   2.853  0.00  0.00    -0.030 A 
HETATM   25  C   UNK N   1      27.327  15.802   2.731  0.00  0.00     0.010 A 
HETATM   26  C   UNK N   1      27.533  17.005   3.397  0.00  0.00     0.013 A 
BRANCH  24  27
HETATM   27  C   UNK N   1      25.852  13.872   2.060  0.00  0.00     0.311 C 
BRANCH  27  28
HETATM   28  N   UNK N   1      24.423  13.584   2.003  0.00  0.00     0.096 N 
HETATM   29  C   UNK N   1      23.928  13.819   0.647  0.00  0.00     0.299 C 
HETATM   30  C   UNK N   1      22.463  13.353   0.538  0.00  0.00     0.198 C 
HETATM   31  O   UNK N   1      21.971  12.939   1.793  0.00  0.00    -0.388 OA
HETATM   32  C   UNK N   1      22.723  11.807   2.164  0.00  0.00     0.198 C 
HETATM   33  C   UNK N   1      24.199  12.183   2.377  0.00  0.00     0.299 C 
ENDBRANCH  27  28
ENDBRANCH  24  27
ENDBRANCH   2  21
BRANCH   1  34
HETATM   34  C   UNK N   1      25.076  20.319   3.389  0.00  0.00     0.271 C 
HETATM   35  N   UNK N   1      23.776  20.049   3.660  0.00  0.00    -0.356 N 
HETATM   36  H   UNK N   1      23.536  19.687   4.544  0.00  0.00     0.162 HD
HETATM   37  O   UNK N   1      25.393  20.726   2.281  0.00  0.00    -0.266 OA
BRANCH  35  38
HETATM   38  C   UNK N   1      22.735  20.277   2.688  0.00  0.00     0.118 C 
HETATM   39  C   UNK N   1      21.408  19.796   3.235  0.00  0.00     0.026 C 
ENDBRANCH  35  38
ENDBRANCH   1  34
TORSDOF 9
ENDMDL
MODEL 4
REMARK VINA RESULT:      -7.5      2.835      8.242
REMARK  9 active torsions:
REMARK  status: ('A' for Active; 'I' for Inactive)
REMARK    1  A    between atoms: C_2  and  N_3 
REMARK       I    between atoms: N_3  and  C_4 
REMARK    2  A    between atoms: C_4  and  C_6 
REMARK    3  A    between atoms: C_7  and  C_24 
REMARK    4  A    between atoms: C_8  and  C_12 
REMARK    5  A    between atoms: C_14  and  C_20 
REMARK    6  A    between atoms: C_15  and  O_19 
REMARK    7  A    between atoms: C_17  and  O_18 
REMARK    8  A    between atoms: C_27  and  C_30 
REMARK    9  A    between atoms: C_30  and  N_31 
ROOT
HETATM    1  C   UNK N   1      28.423  18.496   4.556  0.00  0.00     0.136 A 
HETATM    2  C   UNK N   1      27.125  17.981   4.635  0.00  0.00     0.045 A 
HETATM    3  C   UNK N   1      26.316  19.015   4.110  0.00  0.00     0.125 A 
HETATM    4  O   UNK N   1      27.118  20.008   3.786  0.00  0.00    -0.235 OA
HETATM    5  N   UNK N   1      28.362  19.735   4.036  0.00  0.00    -0.254 N 
ATOM      6  HN  UNK N   1      29.157  20.352   3.867  1.00  0.00     0.195 HD
ENDROOT
BRANCH   3   7
HETATM    7  C   UNK N   1      24.822  19.151   3.955  0.00  0.00     0.035 A 
HETATM    8  C   UNK N   1      23.923  18.348   4.672  0.00  0.00     0.028 A 
HETATM    9  C   UNK N   1      22.525  18.459   4.521  0.00  0.00    -0.016 A 
HETATM   10  C   UNK N   1      22.023  19.425   3.627  0.00  0.00     0.075 A 
HETATM   11  C   UNK N   1      22.899  20.242   2.918  0.00  0.00     0.074 A 
HETATM   12  C   UNK N   1      24.281  20.116   3.069  0.00  0.00     0.081 A 
BRANCH   9  13
HETATM   13  C   UNK N   1      21.575  17.544   5.292  0.00  0.00    -0.021 C 
HETATM   14  C   UNK N   1      22.305  16.301   5.769  0.00  0.00     0.019 C 
HETATM   15  C   UNK N   1      20.394  17.072   4.467  0.00  0.00     0.019 C 
HETATM   16  C   UNK N   1      21.010  18.278   6.496  0.00  0.00     0.019 C 
ENDBRANCH   9  13
BRANCH  10  17
HETATM   17  O   UNK N   1      20.699  19.573   3.443  0.00  0.00    -0.360 OA
HETATM   18  H   UNK N   1      20.137  19.729   4.176  0.00  0.00     0.217 HD
ENDBRANCH  10  17
BRANCH  12  19
HETATM   19  O   UNK N   1      25.078  20.932   2.358  0.00  0.00    -0.360 OA
HETATM   20  H   UNK N   1      24.718  21.463   1.675  0.00  0.00     0.217 HD
ENDBRANCH  12  19
ENDBRANCH   3   7
BRANCH   2  21
HETATM   21  C   UNK N   1      26.730  16.665   5.214  0.00  0.00    -0.021 A 
HETATM   22  C   UNK N   1      26.612  16.508   6.606  0.00  0.00     0.013 A 
HETATM   23  C   UNK N   1      26.144  15.312   7.161  0.00  0.00     0.010 A 
HETATM   24  C   UNK N   1      25.789  14.254   6.324  0.00  0.00    -0.030 A 
HETATM   25  C   UNK N   1      25.945  14.393   4.941  0.00  0.00     0.010 A 
HETATM   26  C   UNK N   1      26.406  15.586   4.398  0.00  0.00     0.013 A 
BRANCH  24  27
HETATM   27  C   UNK N   1      25.202  13.000   6.904  0.00  0.00     0.311 C 
BRANCH  27  28
HETATM   28  N   UNK N   1      24.185  13.319   7.900  0.00  0.00     0.096 N 
HETATM   29  C   UNK N   1      22.870  12.910   7.409  0.00  0.00     0.299 C 
HETATM   30  C   UNK N   1      21.819  13.085   8.522  0.00  0.00     0.198 C 
HETATM   31  O   UNK N   1      22.387  13.694   9.660  0.00  0.00    -0.388 OA
HETATM   32  C   UNK N   1      23.349  12.792  10.158  0.00  0.00     0.198 C 
HETATM   33  C   UNK N   1      24.492  12.608   9.147  0.00  0.00     0.299 C 
ENDBRANCH  27  28
ENDBRANCH  24  27
ENDBRANCH   2  21
BRANCH   1  34
HETATM   34  C   UNK N   1      29.719  17.860   4.902  0.00  0.00     0.271 C 
HETATM   35  N   UNK N   1      30.643  17.657   3.932  0.00  0.00    -0.356 N 
HETATM   36  H   UNK N   1      30.433  17.923   3.007  0.00  0.00     0.162 HD
HETATM   37  O   UNK N   1      29.949  17.495   6.045  0.00  0.00    -0.266 OA
BRANCH  35  38
HETATM   38  C   UNK N   1      31.926  17.062   4.217  0.00  0.00     0.118 C 
HETATM   39  C   UNK N   1      32.647  16.752   2.924  0.00  0.00     0.026 C 
ENDBRANCH  35  38
ENDBRANCH   1  34
TORSDOF 9
ENDMDL
MODEL 5
REMARK VINA RESULT:      -7.2     13.470     16.837
REMARK  9 active torsions:
REMARK  status: ('A' for Active; 'I' for Inactive)
REMARK    1  A    between atoms: C_2  and  N_3 
REMARK       I    between atoms: N_3  and  C_4 
REMARK    2  A    between atoms: C_4  and  C_6 
REMARK    3  A    between atoms: C_7  and  C_24 
REMARK    4  A    between atoms: C_8  and  C_12 
REMARK    5  A    between atoms: C_14  and  C_20 
REMARK    6  A    between atoms: C_15  and  O_19 
REMARK    7  A    between atoms: C_17  and  O_18 
REMARK    8  A    between atoms: C_27  and  C_30 
REMARK    9  A    between atoms: C_30  and  N_31 
ROOT
HETATM    1  C   UNK N   1      32.990  20.506  -3.768  0.00  0.00     0.136 A 
HETATM    2  C   UNK N   1      31.900  21.055  -4.451  0.00  0.00     0.045 A 
HETATM    3  C   UNK N   1      31.236  21.827  -3.469  0.00  0.00     0.125 A 
HETATM    4  O   UNK N   1      31.913  21.692  -2.347  0.00  0.00    -0.235 OA
HETATM    5  N   UNK N   1      32.949  20.922  -2.489  0.00  0.00    -0.254 N 
ATOM      6  HN  UNK N   1      33.616  20.676  -1.758  1.00  0.00     0.195 HD
ENDROOT
BRANCH   3   7
HETATM    7  C   UNK N   1      29.963  22.634  -3.508  0.00  0.00     0.035 A 
HETATM    8  C   UNK N   1      29.269  22.873  -4.704  0.00  0.00     0.028 A 
HETATM    9  C   UNK N   1      28.086  23.639  -4.749  0.00  0.00    -0.016 A 
HETATM   10  C   UNK N   1      27.582  24.166  -3.544  0.00  0.00     0.075 A 
HETATM   11  C   UNK N   1      28.249  23.927  -2.345  0.00  0.00     0.074 A 
HETATM   12  C   UNK N   1      29.424  23.175  -2.314  0.00  0.00     0.081 A 
BRANCH   9  13
HETATM   13  C   UNK N   1      27.374  23.910  -6.074  0.00  0.00    -0.021 C 
HETATM   14  C   UNK N   1      27.421  25.390  -6.409  0.00  0.00     0.019 C 
HETATM   15  C   UNK N   1      25.913  23.506  -6.064  0.00  0.00     0.019 C 
HETATM   16  C   UNK N   1      28.043  23.128  -7.192  0.00  0.00     0.019 C 
ENDBRANCH   9  13
BRANCH  10  17
HETATM   17  O   UNK N   1      26.458  24.905  -3.530  0.00  0.00    -0.360 OA
HETATM   18  H   UNK N   1      26.365  25.607  -2.917  0.00  0.00     0.217 HD
ENDBRANCH  10  17
BRANCH  12  19
HETATM   19  O   UNK N   1      30.024  22.976  -1.128  0.00  0.00    -0.360 OA
HETATM   20  H   UNK N   1      29.570  23.177  -0.333  0.00  0.00     0.217 HD
ENDBRANCH  12  19
ENDBRANCH   3   7
BRANCH   2  21
HETATM   21  C   UNK N   1      31.528  20.797  -5.872  0.00  0.00    -0.021 A 
HETATM   22  C   UNK N   1      30.501  19.889  -6.183  0.00  0.00     0.013 A 
HETATM   23  C   UNK N   1      30.069  19.713  -7.502  0.00  0.00     0.010 A 
HETATM   24  C   UNK N   1      30.665  20.445  -8.529  0.00  0.00    -0.030 A 
HETATM   25  C   UNK N   1      31.714  21.319  -8.226  0.00  0.00     0.010 A 
HETATM   26  C   UNK N   1      32.134  21.492  -6.913  0.00  0.00     0.013 A 
BRANCH  24  27
HETATM   27  C   UNK N   1      30.148  20.328  -9.934  0.00  0.00     0.311 C 
BRANCH  27  28
HETATM   28  N   UNK N   1      30.226  18.948 -10.401  0.00  0.00     0.096 N 
HETATM   29  C   UNK N   1      29.502  18.814 -11.663  0.00  0.00     0.299 C 
HETATM   30  C   UNK N   1      29.725  17.406 -12.247  0.00  0.00     0.198 C 
HETATM   31  O   UNK N   1      30.465  16.602 -11.355  0.00  0.00    -0.388 OA
HETATM   32  C   UNK N   1      31.739  17.195 -11.245  0.00  0.00     0.198 C 
HETATM   33  C   UNK N   1      31.635  18.585 -10.595  0.00  0.00     0.299 C 
ENDBRANCH  27  28
ENDBRANCH  24  27
ENDBRANCH   2  21
BRANCH   1  34
HETATM   34  C   UNK N   1      34.092  19.649  -4.271  0.00  0.00     0.271 C 
HETATM   35  N   UNK N   1      34.093  18.325  -3.982  0.00  0.00    -0.356 N 
HETATM   36  H   UNK N   1      33.366  17.955  -3.429  0.00  0.00     0.162 HD
HETATM   37  O   UNK N   1      35.011  20.128  -4.918  0.00  0.00    -0.266 OA
BRANCH  35  38
HETATM   38  C   UNK N   1      35.129  17.443  -4.462  0.00  0.00     0.118 C 
HETATM   39  C   UNK N   1      35.024  16.102  -3.768  0.00  0.00     0.026 C 
ENDBRANCH  35  38
ENDBRANCH   1  34
TORSDOF 9
ENDMDL
MODEL 6
REMARK VINA RESULT:      -7.2     12.714     16.698
REMARK  9 active torsions:
REMARK  status: ('A' for Active; 'I' for Inactive)
REMARK    1  A    between atoms: C_2  and  N_3 
REMARK       I    between atoms: N_3  and  C_4 
REMARK    2  A    between atoms: C_4  and  C_6 
REMARK    3  A    between atoms: C_7  and  C_24 
REMARK    4  A    between atoms: C_8  and  C_12 
REMARK    5  A    between atoms: C_14  and  C_20 
REMARK    6  A    between atoms: C_15  and  O_19 
REMARK    7  A    between atoms: C_17  and  O_18 
REMARK    8  A    between atoms: C_27  and  C_30 
REMARK    9  A    between atoms: C_30  and  N_31 
ROOT
HETATM    1  C   UNK N   1      36.447  14.111  13.412  0.00  0.00     0.136 A 
HETATM    2  C   UNK N   1      35.984  12.977  14.087  0.00  0.00     0.045 A 
HETATM    3  C   UNK N   1      36.101  13.322  15.453  0.00  0.00     0.125 A 
HETATM    4  O   UNK N   1      36.598  14.541  15.504  0.00  0.00    -0.235 OA
HETATM    5  N   UNK N   1      36.813  15.033  14.322  0.00  0.00    -0.254 N 
ATOM      6  HN  UNK N   1      37.192  15.957  14.118  1.00  0.00     0.195 HD
ENDROOT
BRANCH   3   7
HETATM    7  C   UNK N   1      35.834  12.546  16.718  0.00  0.00     0.035 A 
HETATM    8  C   UNK N   1      35.884  11.144  16.757  0.00  0.00     0.028 A 
HETATM    9  C   UNK N   1      35.620  10.412  17.933  0.00  0.00    -0.016 A 
HETATM   10  C   UNK N   1      35.312  11.123  19.109  0.00  0.00     0.075 A 
HETATM   11  C   UNK N   1      35.273  12.515  19.094  0.00  0.00     0.074 A 
HETATM   12  C   UNK N   1      35.526  13.228  17.922  0.00  0.00     0.081 A 
BRANCH   9  13
HETATM   13  C   UNK N   1      35.648   8.885  17.932  0.00  0.00    -0.021 C 
HETATM   14  C   UNK N   1      35.688   8.356  16.509  0.00  0.00     0.019 C 
HETATM   15  C   UNK N   1      34.440   8.261  18.601  0.00  0.00     0.019 C 
HETATM   16  C   UNK N   1      36.875   8.388  18.678  0.00  0.00     0.019 C 
ENDBRANCH   9  13
BRANCH  10  17
HETATM   17  O   UNK N   1      35.051  10.475  20.259  0.00  0.00    -0.360 OA
HETATM   18  H   UNK N   1      34.915  10.957  21.050  0.00  0.00     0.217 HD
ENDBRANCH  10  17
BRANCH  12  19
HETATM   19  O   UNK N   1      35.475  14.570  17.967  0.00  0.00    -0.360 OA
HETATM   20  H   UNK N   1      35.117  15.001  18.719  0.00  0.00     0.217 HD
ENDBRANCH  12  19
ENDBRANCH   3   7
BRANCH   2  21
HETATM   21  C   UNK N   1      35.544  11.696  13.462  0.00  0.00    -0.021 A 
HETATM   22  C   UNK N   1      34.187  11.326  13.483  0.00  0.00     0.013 A 
HETATM   23  C   UNK N   1      33.742  10.181  12.813  0.00  0.00     0.010 A 
HETATM   24  C   UNK N   1      34.655   9.389  12.115  0.00  0.00    -0.030 A 
HETATM   25  C   UNK N   1      36.010   9.734  12.127  0.00  0.00     0.010 A 
HETATM   26  C   UNK N   1      36.443  10.875  12.791  0.00  0.00     0.013 A 
BRANCH  24  27
HETATM   27  C   UNK N   1      34.173   8.210  11.320  0.00  0.00     0.311 C 
BRANCH  27  28
HETATM   28  N   UNK N   1      33.067   8.591  10.448  0.00  0.00     0.096 N 
HETATM   29  C   UNK N   1      33.591   9.114   9.188  0.00  0.00     0.299 C 
HETATM   30  C   UNK N   1      32.434   9.357   8.201  0.00  0.00     0.198 C 
HETATM   31  O   UNK N   1      31.188   9.118   8.817  0.00  0.00    -0.388 OA
HETATM   32  C   UNK N   1      31.156   7.747   9.140  0.00  0.00     0.198 C 
HETATM   33  C   UNK N   1      32.232   7.413  10.187  0.00  0.00     0.299 C 
ENDBRANCH  27  28
ENDBRANCH  24  27
ENDBRANCH   2  21
BRANCH   1  34
HETATM   34  C   UNK N   1      36.518  14.387  11.955  0.00  0.00     0.271 C 
HETATM   35  N   UNK N   1      37.563  13.910  11.236  0.00  0.00    -0.356 N 
HETATM   36  H   UNK N   1      38.267  13.398  11.696  0.00  0.00     0.162 HD
HETATM   37  O   UNK N   1      35.660  15.061  11.404  0.00  0.00    -0.266 OA
BRANCH  35  38
HETATM   38  C   UNK N   1      37.670  14.132   9.814  0.00  0.00     0.118 C 
HETATM   39  C   UNK N   1      38.408  12.979   9.169  0.00  0.00     0.026 C 
ENDBRANCH  35  38
ENDBRANCH   1  34
TORSDOF 9
ENDMDL
MODEL 7
REMARK VINA RESULT:      -6.9      6.396     10.971
REMARK  9 active torsions:
REMARK  status: ('A' for Active; 'I' for Inactive)
REMARK    1  A    between atoms: C_2  and  N_3 
REMARK       I    between atoms: N_3  and  C_4 
REMARK    2  A    between atoms: C_4  and  C_6 
REMARK    3  A    between atoms: C_7  and  C_24 
REMARK    4  A    between atoms: C_8  and  C_12 
REMARK    5  A    between atoms: C_14  and  C_20 
REMARK    6  A    between atoms: C_15  and  O_19 
REMARK    7  A    between atoms: C_17  and  O_18 
REMARK    8  A    between atoms: C_27  and  C_30 
REMARK    9  A    between atoms: C_30  and  N_31 
ROOT
HETATM    1  C   UNK N   1      32.011  17.598   8.244  0.00  0.00     0.136 A 
HETATM    2  C   UNK N   1      31.464  17.188   7.024  0.00  0.00     0.045 A 
HETATM    3  C   UNK N   1      30.073  17.370   7.196  0.00  0.00     0.125 A 
HETATM    4  O   UNK N   1      29.890  17.832   8.416  0.00  0.00    -0.235 OA
HETATM    5  N   UNK N   1      31.009  17.977   9.058  0.00  0.00    -0.254 N 
ATOM      6  HN  UNK N   1      31.111  18.319  10.013  1.00  0.00     0.195 HD
ENDROOT
BRANCH   3   7
HETATM    7  C   UNK N   1      28.895  17.075   6.301  0.00  0.00     0.035 A 
HETATM    8  C   UNK N   1      28.920  16.037   5.356  0.00  0.00     0.028 A 
HETATM    9  C   UNK N   1      27.829  15.765   4.506  0.00  0.00    -0.016 A 
HETATM   10  C   UNK N   1      26.671  16.557   4.628  0.00  0.00     0.075 A 
HETATM   11  C   UNK N   1      26.621  17.581   5.570  0.00  0.00     0.074 A 
HETATM   12  C   UNK N   1      27.712  17.847   6.400  0.00  0.00     0.081 A 
BRANCH   9  13
HETATM   13  C   UNK N   1      27.903  14.650   3.464  0.00  0.00    -0.021 C 
HETATM   14  C   UNK N   1      29.333  14.164   3.306  0.00  0.00     0.019 C 
HETATM   15  C   UNK N   1      27.429  15.080   2.090  0.00  0.00     0.019 C 
HETATM   16  C   UNK N   1      27.029  13.483   3.890  0.00  0.00     0.019 C 
ENDBRANCH   9  13
BRANCH  10  17
HETATM   17  O   UNK N   1      25.601  16.341   3.841  0.00  0.00    -0.360 OA
HETATM   18  H   UNK N   1      24.737  16.378   4.202  0.00  0.00     0.217 HD
ENDBRANCH  10  17
BRANCH  12  19
HETATM   19  O   UNK N   1      27.607  18.848   7.291  0.00  0.00    -0.360 OA
HETATM   20  H   UNK N   1      27.933  18.736   8.163  0.00  0.00     0.217 HD
ENDBRANCH  12  19
ENDBRANCH   3   7
BRANCH   2  21
HETATM   21  C   UNK N   1      32.215  16.627   5.864  0.00  0.00    -0.021 A 
HETATM   22  C   UNK N   1      32.673  15.298   5.890  0.00  0.00     0.013 A 
HETATM   23  C   UNK N   1      33.287  14.725   4.771  0.00  0.00     0.010 A 
HETATM   24  C   UNK N   1      33.452  15.480   3.609  0.00  0.00    -0.030 A 
HETATM   25  C   UNK N   1      33.034  16.814   3.596  0.00  0.00     0.010 A 
HETATM   26  C   UNK N   1      32.420  17.375   4.709  0.00  0.00     0.013 A 
BRANCH  24  27
HETATM   27  C   UNK N   1      34.029  14.846   2.376  0.00  0.00     0.311 C 
BRANCH  27  28
HETATM   28  N   UNK N   1      34.143  13.401   2.543  0.00  0.00     0.096 N 
HETATM   29  C   UNK N   1      33.274  12.725   1.581  0.00  0.00     0.299 C 
HETATM   30  C   UNK N   1      33.518  11.205   1.635  0.00  0.00     0.198 C 
HETATM   31  O   UNK N   1      34.421  10.876   2.667  0.00  0.00    -0.388 OA
HETATM   32  C   UNK N   1      35.653  11.466   2.324  0.00  0.00     0.198 C 
HETATM   33  C   UNK N   1      35.536  13.000   2.320  0.00  0.00     0.299 C 
ENDBRANCH  27  28
ENDBRANCH  24  27
ENDBRANCH   2  21
BRANCH   1  34
HETATM   34  C   UNK N   1      33.432  17.695   8.664  0.00  0.00     0.271 C 
HETATM   35  N   UNK N   1      33.872  16.949   9.706  0.00  0.00    -0.356 N 
HETATM   36  H   UNK N   1      33.236  16.364  10.179  0.00  0.00     0.162 HD
HETATM   37  O   UNK N   1      34.200  18.458   8.097  0.00  0.00    -0.266 OA
BRANCH  35  38
HETATM   38  C   UNK N   1      35.246  16.990  10.142  0.00  0.00     0.118 C 
HETATM   39  C   UNK N   1      35.447  16.033  11.297  0.00  0.00     0.026 C 
ENDBRANCH  35  38
ENDBRANCH   1  34
TORSDOF 9
ENDMDL
MODEL 8
REMARK VINA RESULT:      -6.8      6.433     11.280
REMARK  9 active torsions:
REMARK  status: ('A' for Active; 'I' for Inactive)
REMARK    1  A    between atoms: C_2  and  N_3 
REMARK       I    between atoms: N_3  and  C_4 
REMARK    2  A    between atoms: C_4  and  C_6 
REMARK    3  A    between atoms: C_7  and  C_24 
REMARK    4  A    between atoms: C_8  and  C_12 
REMARK    5  A    between atoms: C_14  and  C_20 
REMARK    6  A    between atoms: C_15  and  O_19 
REMARK    7  A    between atoms: C_17  and  O_18 
REMARK    8  A    between atoms: C_27  and  C_30 
REMARK    9  A    between atoms: C_30  and  N_31 
ROOT
HETATM    1  C   UNK N   1      32.101  17.457   8.282  0.00  0.00     0.136 A 
HETATM    2  C   UNK N   1      31.563  17.243   7.009  0.00  0.00     0.045 A 
HETATM    3  C   UNK N   1      30.192  17.552   7.162  0.00  0.00     0.125 A 
HETATM    4  O   UNK N   1      30.010  17.894   8.421  0.00  0.00    -0.235 OA
HETATM    5  N   UNK N   1      31.112  17.849   9.106  0.00  0.00    -0.254 N 
ATOM      6  HN  UNK N   1      31.211  18.071  10.096  1.00  0.00     0.195 HD
ENDROOT
BRANCH   3   7
HETATM    7  C   UNK N   1      29.026  17.482   6.207  0.00  0.00     0.035 A 
HETATM    8  C   UNK N   1      28.263  18.613   5.880  0.00  0.00     0.028 A 
HETATM    9  C   UNK N   1      27.163  18.552   5.001  0.00  0.00    -0.016 A 
HETATM   10  C   UNK N   1      26.837  17.310   4.421  0.00  0.00     0.075 A 
HETATM   11  C   UNK N   1      27.592  16.180   4.721  0.00  0.00     0.074 A 
HETATM   12  C   UNK N   1      28.673  16.251   5.601  0.00  0.00     0.081 A 
BRANCH   9  13
HETATM   13  C   UNK N   1      26.331  19.797   4.694  0.00  0.00    -0.021 C 
HETATM   14  C   UNK N   1      24.851  19.497   4.851  0.00  0.00     0.019 C 
HETATM   15  C   UNK N   1      26.528  20.319   3.284  0.00  0.00     0.019 C 
HETATM   16  C   UNK N   1      26.711  20.922   5.641  0.00  0.00     0.019 C 
ENDBRANCH   9  13
BRANCH  10  17
HETATM   17  O   UNK N   1      25.797  17.196   3.575  0.00  0.00    -0.360 OA
HETATM   18  H   UNK N   1      25.681  17.818   2.885  0.00  0.00     0.217 HD
ENDBRANCH  10  17
BRANCH  12  19
HETATM   19  O   UNK N   1      29.366  15.127   5.853  0.00  0.00    -0.360 OA
HETATM   20  H   UNK N   1      30.302  15.154   5.904  0.00  0.00     0.217 HD
ENDBRANCH  12  19
ENDBRANCH   3   7
BRANCH   2  21
HETATM   21  C   UNK N   1      32.297  16.736   5.814  0.00  0.00    -0.021 A 
HETATM   22  C   UNK N   1      32.873  15.453   5.826  0.00  0.00     0.013 A 
HETATM   23  C   UNK N   1      33.475  14.922   4.679  0.00  0.00     0.010 A 
HETATM   24  C   UNK N   1      33.510  15.674   3.505  0.00  0.00    -0.030 A 
HETATM   25  C   UNK N   1      32.974  16.967   3.503  0.00  0.00     0.010 A 
HETATM   26  C   UNK N   1      32.374  17.484   4.644  0.00  0.00     0.013 A 
BRANCH  24  27
HETATM   27  C   UNK N   1      34.073  15.079   2.247  0.00  0.00     0.311 C 
BRANCH  27  28
HETATM   28  N   UNK N   1      34.338  13.655   2.423  0.00  0.00     0.096 N 
HETATM   29  C   UNK N   1      33.506  12.882   1.503  0.00  0.00     0.299 C 
HETATM   30  C   UNK N   1      33.903  11.394   1.562  0.00  0.00     0.198 C 
HETATM   31  O   UNK N   1      34.873  11.172   2.561  0.00  0.00    -0.388 OA
HETATM   32  C   UNK N   1      36.026  11.878   2.165  0.00  0.00     0.198 C 
HETATM   33  C   UNK N   1      35.756  13.392   2.150  0.00  0.00     0.299 C 
ENDBRANCH  27  28
ENDBRANCH  24  27
ENDBRANCH   2  21
BRANCH   1  34
HETATM   34  C   UNK N   1      33.507  17.357   8.748  0.00  0.00     0.271 C 
HETATM   35  N   UNK N   1      33.914  16.243   9.404  0.00  0.00    -0.356 N 
HETATM   36  H   UNK N   1      33.264  15.522   9.573  0.00  0.00     0.162 HD
HETATM   37  O   UNK N   1      34.291  18.277   8.572  0.00  0.00    -0.266 OA
BRANCH  35  38
HETATM   38  C   UNK N   1      35.273  16.085   9.862  0.00  0.00     0.118 C 
HETATM   39  C   UNK N   1      35.321  16.179  11.371  0.00  0.00     0.026 C 
ENDBRANCH  35  38
ENDBRANCH   1  34
TORSDOF 9
ENDMDL
MODEL 9
REMARK VINA RESULT:      -6.7     13.993     17.046
REMARK  9 active torsions:
REMARK  status: ('A' for Active; 'I' for Inactive)
REMARK    1  A    between atoms: C_2  and  N_3 
REMARK       I    between atoms: N_3  and  C_4 
REMARK    2  A    between atoms: C_4  and  C_6 
REMARK    3  A    between atoms: C_7  and  C_24 
REMARK    4  A    between atoms: C_8  and  C_12 
REMARK    5  A    between atoms: C_14  and  C_20 
REMARK    6  A    between atoms: C_15  and  O_19 
REMARK    7  A    between atoms: C_17  and  O_18 
REMARK    8  A    between atoms: C_27  and  C_30 
REMARK    9  A    between atoms: C_30  and  N_31 
ROOT
HETATM    1  C   UNK N   1      26.188  23.883  -9.955  0.00  0.00     0.136 A 
HETATM    2  C   UNK N   1      26.991  24.206  -8.856  0.00  0.00     0.045 A 
HETATM    3  C   UNK N   1      27.463  22.955  -8.399  0.00  0.00     0.125 A 
HETATM    4  O   UNK N   1      26.945  22.034  -9.185  0.00  0.00    -0.235 OA
HETATM    5  N   UNK N   1      26.190  22.546 -10.109  0.00  0.00    -0.254 N 
ATOM      6  HN  UNK N   1      25.687  22.026 -10.827  1.00  0.00     0.195 HD
ENDROOT
BRANCH   3   7
HETATM    7  C   UNK N   1      28.325  22.567  -7.223  0.00  0.00     0.035 A 
HETATM    8  C   UNK N   1      28.436  23.377  -6.083  0.00  0.00     0.028 A 
HETATM    9  C   UNK N   1      29.251  23.028  -4.986  0.00  0.00    -0.016 A 
HETATM   10  C   UNK N   1      29.962  21.812  -5.041  0.00  0.00     0.075 A 
HETATM   11  C   UNK N   1      29.852  20.988  -6.157  0.00  0.00     0.074 A 
HETATM   12  C   UNK N   1      29.050  21.350  -7.240  0.00  0.00     0.081 A 
BRANCH   9  13
HETATM   13  C   UNK N   1      29.378  23.950  -3.774  0.00  0.00    -0.021 C 
HETATM   14  C   UNK N   1      28.946  23.227  -2.511  0.00  0.00     0.019 C 
HETATM   15  C   UNK N   1      28.528  25.201  -3.880  0.00  0.00     0.019 C 
HETATM   16  C   UNK N   1      30.819  24.404  -3.616  0.00  0.00     0.019 C 
ENDBRANCH   9  13
BRANCH  10  17
HETATM   17  O   UNK N   1      30.755  21.431  -4.023  0.00  0.00    -0.360 OA
HETATM   18  H   UNK N   1      30.590  21.744  -3.156  0.00  0.00     0.217 HD
ENDBRANCH  10  17
BRANCH  12  19
HETATM   19  O   UNK N   1      28.982  20.514  -8.291  0.00  0.00    -0.360 OA
HETATM   20  H   UNK N   1      28.249  20.553  -8.875  0.00  0.00     0.217 HD
ENDBRANCH  12  19
ENDBRANCH   3   7
BRANCH   2  21
HETATM   21  C   UNK N   1      27.210  25.570  -8.294  0.00  0.00    -0.021 A 
HETATM   22  C   UNK N   1      26.360  26.069  -7.291  0.00  0.00     0.013 A 
HETATM   23  C   UNK N   1      26.613  27.302  -6.679  0.00  0.00     0.010 A 
HETATM   24  C   UNK N   1      27.721  28.054  -7.070  0.00  0.00    -0.030 A 
HETATM   25  C   UNK N   1      28.544  27.578  -8.096  0.00  0.00     0.010 A 
HETATM   26  C   UNK N   1      28.289  26.350  -8.694  0.00  0.00     0.013 A 
BRANCH  24  27
HETATM   27  C   UNK N   1      28.049  29.335  -6.358  0.00  0.00     0.311 C 
BRANCH  27  28
HETATM   28  N   UNK N   1      27.691  29.248  -4.947  0.00  0.00     0.096 N 
HETATM   29  C   UNK N   1      28.883  28.954  -4.153  0.00  0.00     0.299 C 
HETATM   30  C   UNK N   1      28.544  29.032  -2.652  0.00  0.00     0.198 C 
HETATM   31  O   UNK N   1      27.165  29.250  -2.458  0.00  0.00    -0.388 OA
HETATM   32  C   UNK N   1      26.880  30.520  -2.997  0.00  0.00     0.198 C 
HETATM   33  C   UNK N   1      27.112  30.527  -4.518  0.00  0.00     0.299 C 
ENDBRANCH  27  28
ENDBRANCH  24  27
ENDBRANCH   2  21
BRANCH   1  34
HETATM   34  C   UNK N   1      25.457  24.772 -10.892  0.00  0.00     0.271 C 
HETATM   35  N   UNK N   1      26.120  25.334 -11.932  0.00  0.00    -0.356 N 
HETATM   36  H   UNK N   1      27.082  25.153 -12.041  0.00  0.00     0.162 HD
HETATM   37  O   UNK N   1      24.274  25.024 -10.720  0.00  0.00    -0.266 OA
BRANCH  35  38
HETATM   38  C   UNK N   1      25.454  26.190 -12.884  0.00  0.00     0.118 C 
HETATM   39  C   UNK N   1      25.798  27.636 -12.601  0.00  0.00     0.026 C 
ENDBRANCH  35  38
ENDBRANCH   1  34
TORSDOF 9
ENDMDL
