MODEL 1
REMARK VINA RESULT:      -7.2      0.000      0.000
REMARK  5 active torsions:
REMARK  status: ('A' for Active; 'I' for Inactive)
REMARK    1  A    between atoms: C_4  and  C_8 
REMARK       I    between atoms: C_8  and  N_10 
REMARK    2  A    between atoms: N_10  and  C_11 
REMARK    3  A    between atoms: N_10  and  C_20 
REMARK    4  A    between atoms: C_11  and  C_12 
REMARK    5  A    between atoms: C_21  and  C_20 
ROOT
HETATM    1  C   UNK N   1      20.242  17.657   7.995  0.00  0.00     0.272 C 
HETATM    2  O   UNK N   1      20.655  18.675   7.479  0.00  0.00    -0.266 OA
HETATM    3  N   UNK N   1      20.840  16.439   7.729  0.00  0.00    -0.342 N 
ENDROOT
BRANCH   3   4
HETATM    4  C   UNK N   1      21.986  16.212   6.826  0.00  0.00     0.164 C 
BRANCH   4   5
HETATM    5  C   UNK N   1      22.051  15.948   5.337  0.00  0.00    -0.038 A 
HETATM    6  C   UNK N   1      22.971  14.968   4.943  0.00  0.00     0.012 A 
HETATM    7  C   UNK N   1      23.129  14.627   3.599  0.00  0.00     0.044 A 
HETATM    8  C   UNK N   1      22.363  15.266   2.625  0.00  0.00     0.138 A 
HETATM    9  C   UNK N   1      21.436  16.243   3.002  0.00  0.00     0.073 A 
HETATM   10  F   UNK N   1      22.524  14.934   1.321  0.00  0.00    -0.204 F 
HETATM   11  C   UNK N   1      21.282  16.574   4.353  0.00  0.00     0.035 A 
HETATM   12 Cl   UNK N   1      20.467  17.065   1.796  0.00  0.00    -0.081 Cl
ENDBRANCH   4   5
ENDBRANCH   3   4
BRANCH   3  13
HETATM   13  C   UNK N   1      20.308  15.242   8.375  0.00  0.00     0.132 C 
BRANCH  13  14
HETATM   14  C   UNK N   1      21.343  14.453   9.175  0.00  0.00     0.016 A 
HETATM   15  C   UNK N   1      21.475  13.087   8.539  0.00  0.00     0.026 A 
HETATM   16  C   UNK N   1      20.691  13.254   9.830  0.00  0.00     0.026 A 
HETATM   17  C   UNK N   1      22.794  12.470   8.948  0.00  0.00     0.277 C 
HETATM   18  C   UNK N   1      21.603  12.687  10.903  0.00  0.00     0.277 C 
HETATM   19  N   UNK N   1      22.589  11.848  10.241  0.00  0.00     0.085 N 
HETATM   20  C   UNK N   1      23.833  11.942  10.983  0.00  0.00     0.309 C 
ENDBRANCH  13  14
ENDBRANCH   3  13
BRANCH   1  21
HETATM   21  C   UNK N   1      19.079  17.808   8.927  0.00  0.00     0.117 A 
HETATM   22  C   UNK N   1      18.982  18.594  10.061  0.00  0.00     0.126 A 
HETATM   23  N   UNK N   1      17.753  18.419  10.561  0.00  0.00    -0.355 N 
HETATM   24  C   UNK N   1      17.211  19.059  11.745  0.00  0.00     0.156 C 
HETATM   25  C   UNK N   1      17.112  17.552   9.760  0.00  0.00     0.183 A 
HETATM   26  N   UNK N   1      17.907  17.160   8.742  0.00  0.00    -0.347 N 
ATOM     27  HN  UNK N   1      17.672  16.511   7.991  1.00  0.00     0.167 HD
ENDBRANCH   1  21
TORSDOF 5
ENDMDL
MODEL 2
REMARK VINA RESULT:      -7.0      9.757     12.156
REMARK  5 active torsions:
REMARK  status: ('A' for Active; 'I' for Inactive)
REMARK    1  A    between atoms: C_4  and  C_8 
REMARK       I    between atoms: C_8  and  N_10 
REMARK    2  A    between atoms: N_10  and  C_11 
REMARK    3  A    between atoms: N_10  and  C_20 
REMARK    4  A    between atoms: C_11  and  C_12 
REMARK    5  A    between atoms: C_21  and  C_20 
ROOT
HETATM    1  C   UNK N   1      31.416  16.396   8.743  0.00  0.00     0.272 C 
HETATM    2  O   UNK N   1      30.699  15.971   9.626  0.00  0.00    -0.266 OA
HETATM    3  N   UNK N   1      30.873  17.001   7.624  0.00  0.00    -0.342 N 
ENDROOT
BRANCH   3   4
HETATM    4  C   UNK N   1      29.434  17.194   7.352  0.00  0.00     0.164 C 
BRANCH   4   5
HETATM    5  C   UNK N   1      28.710  18.147   6.425  0.00  0.00    -0.038 A 
HETATM    6  C   UNK N   1      28.592  17.715   5.097  0.00  0.00     0.012 A 
HETATM    7  C   UNK N   1      27.945  18.498   4.141  0.00  0.00     0.044 A 
HETATM    8  C   UNK N   1      27.404  19.732   4.501  0.00  0.00     0.138 A 
HETATM    9  C   UNK N   1      27.510  20.175   5.824  0.00  0.00     0.073 A 
HETATM   10  F   UNK N   1      26.781  20.490   3.567  0.00  0.00    -0.204 F 
HETATM   11  C   UNK N   1      28.156  19.380   6.777  0.00  0.00     0.035 A 
HETATM   12 Cl   UNK N   1      26.844  21.724   6.301  0.00  0.00    -0.081 Cl
ENDBRANCH   4   5
ENDBRANCH   3   4
BRANCH   3  13
HETATM   13  C   UNK N   1      31.776  17.497   6.590  0.00  0.00     0.132 C 
BRANCH  13  14
HETATM   14  C   UNK N   1      32.067  16.489   5.480  0.00  0.00     0.016 A 
HETATM   15  C   UNK N   1      33.543  16.573   5.155  0.00  0.00     0.026 A 
HETATM   16  C   UNK N   1      32.521  17.209   4.228  0.00  0.00     0.026 A 
HETATM   17  C   UNK N   1      33.976  15.300   4.462  0.00  0.00     0.277 C 
HETATM   18  C   UNK N   1      32.456  16.272   3.035  0.00  0.00     0.277 C 
HETATM   19  N   UNK N   1      33.657  15.454   3.056  0.00  0.00     0.085 N 
HETATM   20  C   UNK N   1      33.321  14.144   2.530  0.00  0.00     0.309 C 
ENDBRANCH  13  14
ENDBRANCH   3  13
BRANCH   1  21
HETATM   21  C   UNK N   1      32.891  16.237   8.950  0.00  0.00     0.117 A 
HETATM   22  C   UNK N   1      33.684  15.137   8.675  0.00  0.00     0.126 A 
HETATM   23  N   UNK N   1      34.939  15.461   9.009  0.00  0.00    -0.355 N 
HETATM   24  C   UNK N   1      36.106  14.609   8.879  0.00  0.00     0.156 C 
HETATM   25  C   UNK N   1      34.919  16.721   9.476  0.00  0.00     0.183 A 
HETATM   26  N   UNK N   1      33.668  17.224   9.448  0.00  0.00    -0.347 N 
ATOM     27  HN  UNK N   1      33.371  18.155   9.742  1.00  0.00     0.167 HD
ENDBRANCH   1  21
TORSDOF 5
ENDMDL
MODEL 3
REMARK VINA RESULT:      -7.0     11.697     13.934
REMARK  5 active torsions:
REMARK  status: ('A' for Active; 'I' for Inactive)
REMARK    1  A    between atoms: C_4  and  C_8 
REMARK       I    between atoms: C_8  and  N_10 
REMARK    2  A    between atoms: N_10  and  C_11 
REMARK    3  A    between atoms: N_10  and  C_20 
REMARK    4  A    between atoms: C_11  and  C_12 
REMARK    5  A    between atoms: C_21  and  C_20 
ROOT
HETATM    1  C   UNK N   1      35.227  16.479  10.227  0.00  0.00     0.272 C 
HETATM    2  O   UNK N   1      35.707  17.584  10.367  0.00  0.00    -0.266 OA
HETATM    3  N   UNK N   1      34.122  16.287   9.418  0.00  0.00    -0.342 N 
ENDROOT
BRANCH   3   4
HETATM    4  C   UNK N   1      33.403  17.336   8.666  0.00  0.00     0.164 C 
BRANCH   4   5
HETATM    5  C   UNK N   1      32.772  17.326   7.290  0.00  0.00    -0.038 A 
HETATM    6  C   UNK N   1      33.666  17.482   6.221  0.00  0.00     0.012 A 
HETATM    7  C   UNK N   1      33.215  17.489   4.901  0.00  0.00     0.044 A 
HETATM    8  C   UNK N   1      31.856  17.339   4.629  0.00  0.00     0.138 A 
HETATM    9  C   UNK N   1      30.951  17.178   5.684  0.00  0.00     0.073 A 
HETATM   10  F   UNK N   1      31.423  17.352   3.345  0.00  0.00    -0.204 F 
HETATM   11  C   UNK N   1      31.414  17.167   7.004  0.00  0.00     0.035 A 
HETATM   12 Cl   UNK N   1      29.237  16.995   5.369  0.00  0.00    -0.081 Cl
ENDBRANCH   4   5
ENDBRANCH   3   4
BRANCH   3  13
HETATM   13  C   UNK N   1      33.581  14.938   9.279  0.00  0.00     0.132 C 
BRANCH  13  14
HETATM   14  C   UNK N   1      34.111  14.176   8.066  0.00  0.00     0.016 A 
HETATM   15  C   UNK N   1      32.928  13.803   7.201  0.00  0.00     0.026 A 
HETATM   16  C   UNK N   1      33.592  12.754   8.077  0.00  0.00     0.026 A 
HETATM   17  C   UNK N   1      33.405  13.513   5.796  0.00  0.00     0.277 C 
HETATM   18  C   UNK N   1      34.389  11.901   7.106  0.00  0.00     0.277 C 
HETATM   19  N   UNK N   1      33.854  12.135   5.776  0.00  0.00     0.085 N 
HETATM   20  C   UNK N   1      34.947  12.037   4.826  0.00  0.00     0.309 C 
ENDBRANCH  13  14
ENDBRANCH   3  13
BRANCH   1  21
HETATM   21  C   UNK N   1      35.904  15.361  10.960  0.00  0.00     0.117 A 
HETATM   22  C   UNK N   1      35.628  14.869  12.223  0.00  0.00     0.126 A 
HETATM   23  N   UNK N   1      36.480  13.862  12.450  0.00  0.00    -0.355 N 
HETATM   24  C   UNK N   1      36.542  13.048  13.650  0.00  0.00     0.156 C 
HETATM   25  C   UNK N   1      37.257  13.738  11.361  0.00  0.00     0.183 A 
HETATM   26  N   UNK N   1      36.922  14.650  10.425  0.00  0.00    -0.347 N 
ATOM     27  HN  UNK N   1      37.347  14.776   9.507  1.00  0.00     0.167 HD
ENDBRANCH   1  21
TORSDOF 5
ENDMDL
MODEL 4
REMARK VINA RESULT:      -6.9     16.247     17.957
REMARK  5 active torsions:
REMARK  status: ('A' for Active; 'I' for Inactive)
REMARK    1  A    between atoms: C_4  and  C_8 
REMARK       I    between atoms: C_8  and  N_10 
REMARK    2  A    between atoms: N_10  and  C_11 
REMARK    3  A    between atoms: N_10  and  C_20 
REMARK    4  A    between atoms: C_11  and  C_12 
REMARK    5  A    between atoms: C_21  and  C_20 
ROOT
HETATM    1  C   UNK N   1      30.651  22.822  -2.805  0.00  0.00     0.272 C 
HETATM    2  O   UNK N   1      30.508  22.865  -1.601  0.00  0.00    -0.266 OA
HETATM    3  N   UNK N   1      29.681  23.331  -3.649  0.00  0.00    -0.342 N 
ENDROOT
BRANCH   3   4
HETATM    4  C   UNK N   1      28.406  23.949  -3.235  0.00  0.00     0.164 C 
BRANCH   4   5
HETATM    5  C   UNK N   1      27.442  24.851  -3.977  0.00  0.00    -0.038 A 
HETATM    6  C   UNK N   1      26.362  24.198  -4.586  0.00  0.00     0.012 A 
HETATM    7  C   UNK N   1      25.399  24.913  -5.301  0.00  0.00     0.044 A 
HETATM    8  C   UNK N   1      25.505  26.298  -5.416  0.00  0.00     0.138 A 
HETATM    9  C   UNK N   1      26.575  26.965  -4.810  0.00  0.00     0.073 A 
HETATM   10  F   UNK N   1      24.570  26.985  -6.116  0.00  0.00    -0.204 F 
HETATM   11  C   UNK N   1      27.532  26.240  -4.092  0.00  0.00     0.035 A 
HETATM   12 Cl   UNK N   1      26.733  28.704  -4.947  0.00  0.00    -0.081 Cl
ENDBRANCH   4   5
ENDBRANCH   3   4
BRANCH   3  13
HETATM   13  C   UNK N   1      29.900  23.259  -5.091  0.00  0.00     0.132 C 
BRANCH  13  14
HETATM   14  C   UNK N   1      29.586  21.894  -5.701  0.00  0.00     0.016 A 
HETATM   15  C   UNK N   1      30.622  21.616  -6.769  0.00  0.00     0.026 A 
HETATM   16  C   UNK N   1      29.219  22.048  -7.161  0.00  0.00     0.026 A 
HETATM   17  C   UNK N   1      30.675  20.130  -7.041  0.00  0.00     0.277 C 
HETATM   18  C   UNK N   1      28.561  20.778  -7.670  0.00  0.00     0.277 C 
HETATM   19  N   UNK N   1      29.618  19.834  -7.988  0.00  0.00     0.085 N 
HETATM   20  C   UNK N   1      29.130  18.497  -7.707  0.00  0.00     0.309 C 
ENDBRANCH  13  14
ENDBRANCH   3  13
BRANCH   1  21
HETATM   21  C   UNK N   1      31.925  22.209  -3.302  0.00  0.00     0.117 A 
HETATM   22  C   UNK N   1      32.849  22.741  -4.182  0.00  0.00     0.126 A 
HETATM   23  N   UNK N   1      33.831  21.841  -4.318  0.00  0.00    -0.355 N 
HETATM   24  C   UNK N   1      35.017  21.986  -5.142  0.00  0.00     0.156 C 
HETATM   25  C   UNK N   1      33.520  20.787  -3.546  0.00  0.00     0.183 A 
HETATM   26  N   UNK N   1      32.349  20.988  -2.906  0.00  0.00    -0.347 N 
ATOM     27  HN  UNK N   1      31.883  20.352  -2.259  1.00  0.00     0.167 HD
ENDBRANCH   1  21
TORSDOF 5
ENDMDL
MODEL 5
REMARK VINA RESULT:      -6.8     16.322     18.451
REMARK  5 active torsions:
REMARK  status: ('A' for Active; 'I' for Inactive)
REMARK    1  A    between atoms: C_4  and  C_8 
REMARK       I    between atoms: C_8  and  N_10 
REMARK    2  A    between atoms: N_10  and  C_11 
REMARK    3  A    between atoms: N_10  and  C_20 
REMARK    4  A    between atoms: C_11  and  C_12 
REMARK    5  A    between atoms: C_21  and  C_20 
ROOT
HETATM    1  C   UNK N   1      35.602  13.152  12.449  0.00  0.00     0.272 C 
HETATM    2  O   UNK N   1      35.211  14.162  12.996  0.00  0.00    -0.266 OA
HETATM    3  N   UNK N   1      35.259  11.906  12.941  0.00  0.00    -0.342 N 
ENDROOT
BRANCH   3   4
HETATM    4  C   UNK N   1      34.431  11.641  14.136  0.00  0.00     0.164 C 
BRANCH   4   5
HETATM    5  C   UNK N   1      34.715  11.826  15.611  0.00  0.00    -0.038 A 
HETATM    6  C   UNK N   1      34.905  10.642  16.336  0.00  0.00     0.012 A 
HETATM    7  C   UNK N   1      35.176  10.671  17.705  0.00  0.00     0.044 A 
HETATM    8  C   UNK N   1      35.261  11.893  18.371  0.00  0.00     0.138 A 
HETATM    9  C   UNK N   1      35.079  13.084  17.660  0.00  0.00     0.073 A 
HETATM   10  F   UNK N   1      35.519  11.915  19.701  0.00  0.00    -0.204 F 
HETATM   11  C   UNK N   1      34.813  13.044  16.287  0.00  0.00     0.035 A 
HETATM   12 Cl   UNK N   1      35.174  14.632  18.476  0.00  0.00    -0.081 Cl
ENDBRANCH   4   5
ENDBRANCH   3   4
BRANCH   3  13
HETATM   13  C   UNK N   1      35.751  10.720  12.248  0.00  0.00     0.132 C 
BRANCH  13  14
HETATM   14  C   UNK N   1      36.619   9.807  13.112  0.00  0.00     0.016 A 
HETATM   15  C   UNK N   1      37.792  10.622  13.613  0.00  0.00     0.026 A 
HETATM   16  C   UNK N   1      37.982   9.630  12.478  0.00  0.00     0.026 A 
HETATM   17  C   UNK N   1      38.382   9.953  14.834  0.00  0.00     0.277 C 
HETATM   18  C   UNK N   1      38.706   8.458  13.117  0.00  0.00     0.277 C 
HETATM   19  N   UNK N   1      39.294   8.931  14.359  0.00  0.00     0.085 N 
HETATM   20  C   UNK N   1      39.275   7.839  15.313  0.00  0.00     0.309 C 
ENDBRANCH  13  14
ENDBRANCH   3  13
BRANCH   1  21
HETATM   21  C   UNK N   1      36.447  13.341  11.226  0.00  0.00     0.117 A 
HETATM   22  C   UNK N   1      36.042  13.432   9.907  0.00  0.00     0.126 A 
HETATM   23  N   UNK N   1      37.143  13.613   9.167  0.00  0.00    -0.355 N 
HETATM   24  C   UNK N   1      37.189  13.771   7.725  0.00  0.00     0.156 C 
HETATM   25  C   UNK N   1      38.193  13.632  10.005  0.00  0.00     0.183 A 
HETATM   26  N   UNK N   1      37.791  13.468  11.282  0.00  0.00    -0.347 N 
ATOM     27  HN  UNK N   1      38.380  13.445  12.116  1.00  0.00     0.167 HD
ENDBRANCH   1  21
TORSDOF 5
ENDMDL
MODEL 6
REMARK VINA RESULT:      -6.8     13.385     16.141
REMARK  5 active torsions:
REMARK  status: ('A' for Active; 'I' for Inactive)
REMARK    1  A    between atoms: C_4  and  C_8 
REMARK       I    between atoms: C_8  and  N_10 
REMARK    2  A    between atoms: N_10  and  C_11 
REMARK    3  A    between atoms: N_10  and  C_20 
REMARK    4  A    between atoms: C_11  and  C_12 
REMARK    5  A    between atoms: C_21  and  C_20 
ROOT
HETATM    1  C   UNK N   1      34.969  16.297  10.202  0.00  0.00     0.272 C 
HETATM    2  O   UNK N   1      35.311  17.178  10.964  0.00  0.00    -0.266 OA
HETATM    3  N   UNK N   1      35.345  14.985  10.426  0.00  0.00    -0.342 N 
ENDROOT
BRANCH   3   4
HETATM    4  C   UNK N   1      36.174  14.498  11.547  0.00  0.00     0.164 C 
BRANCH   4   5
HETATM    5  C   UNK N   1      35.806  13.771  12.822  0.00  0.00    -0.038 A 
HETATM    6  C   UNK N   1      36.387  14.283  13.991  0.00  0.00     0.012 A 
HETATM    7  C   UNK N   1      36.128  13.707  15.235  0.00  0.00     0.044 A 
HETATM    8  C   UNK N   1      35.281  12.604  15.329  0.00  0.00     0.138 A 
HETATM    9  C   UNK N   1      34.690  12.083  14.172  0.00  0.00     0.073 A 
HETATM   10  F   UNK N   1      35.039  12.046  16.539  0.00  0.00    -0.204 F 
HETATM   11  C   UNK N   1      34.951  12.671  12.930  0.00  0.00     0.035 A 
HETATM   12 Cl   UNK N   1      33.628  10.693  14.263  0.00  0.00    -0.081 Cl
ENDBRANCH   4   5
ENDBRANCH   3   4
BRANCH   3  13
HETATM   13  C   UNK N   1      34.907  13.961   9.483  0.00  0.00     0.132 C 
BRANCH  13  14
HETATM   14  C   UNK N   1      36.040  13.098   8.929  0.00  0.00     0.016 A 
HETATM   15  C   UNK N   1      36.669  13.846   7.774  0.00  0.00     0.026 A 
HETATM   16  C   UNK N   1      35.730  12.682   7.507  0.00  0.00     0.026 A 
HETATM   17  C   UNK N   1      38.059  13.306   7.525  0.00  0.00     0.277 C 
HETATM   18  C   UNK N   1      36.646  11.546   7.085  0.00  0.00     0.277 C 
HETATM   19  N   UNK N   1      37.915  12.132   6.687  0.00  0.00     0.085 N 
HETATM   20  C   UNK N   1      38.972  11.202   7.037  0.00  0.00     0.309 C 
ENDBRANCH  13  14
ENDBRANCH   3  13
BRANCH   1  21
HETATM   21  C   UNK N   1      34.122  16.715   9.039  0.00  0.00     0.117 A 
HETATM   22  C   UNK N   1      34.495  16.877   7.717  0.00  0.00     0.126 A 
HETATM   23  N   UNK N   1      33.402  17.246   7.039  0.00  0.00    -0.355 N 
HETATM   24  C   UNK N   1      33.328  17.515   5.615  0.00  0.00     0.156 C 
HETATM   25  C   UNK N   1      32.387  17.310   7.916  0.00  0.00     0.183 A 
HETATM   26  N   UNK N   1      32.803  16.985   9.158  0.00  0.00    -0.347 N 
ATOM     27  HN  UNK N   1      32.240  16.952  10.008  1.00  0.00     0.167 HD
ENDBRANCH   1  21
TORSDOF 5
ENDMDL
MODEL 7
REMARK VINA RESULT:      -6.8     16.353     17.427
REMARK  5 active torsions:
REMARK  status: ('A' for Active; 'I' for Inactive)
REMARK    1  A    between atoms: C_4  and  C_8 
REMARK       I    between atoms: C_8  and  N_10 
REMARK    2  A    between atoms: N_10  and  C_11 
REMARK    3  A    between atoms: N_10  and  C_20 
REMARK    4  A    between atoms: C_11  and  C_12 
REMARK    5  A    between atoms: C_21  and  C_20 
ROOT
HETATM    1  C   UNK N   1      25.661  26.399  -5.091  0.00  0.00     0.272 C 
HETATM    2  O   UNK N   1      24.640  26.376  -5.745  0.00  0.00    -0.266 OA
HETATM    3  N   UNK N   1      26.338  25.229  -4.798  0.00  0.00    -0.342 N 
ENDROOT
BRANCH   3   4
HETATM    4  C   UNK N   1      25.934  23.867  -5.201  0.00  0.00     0.164 C 
BRANCH   4   5
HETATM    5  C   UNK N   1      25.970  23.169  -6.544  0.00  0.00    -0.038 A 
HETATM    6  C   UNK N   1      25.075  22.099  -6.685  0.00  0.00     0.012 A 
HETATM    7  C   UNK N   1      25.005  21.372  -7.874  0.00  0.00     0.044 A 
HETATM    8  C   UNK N   1      25.834  21.706  -8.944  0.00  0.00     0.138 A 
HETATM    9  C   UNK N   1      26.730  22.774  -8.820  0.00  0.00     0.073 A 
HETATM   10  F   UNK N   1      25.766  20.992 -10.094  0.00  0.00    -0.204 F 
HETATM   11  C   UNK N   1      26.789  23.500  -7.626  0.00  0.00     0.035 A 
HETATM   12 Cl   UNK N   1      27.787  23.209 -10.148  0.00  0.00    -0.081 Cl
ENDBRANCH   4   5
ENDBRANCH   3   4
BRANCH   3  13
HETATM   13  C   UNK N   1      27.564  25.308  -4.009  0.00  0.00     0.132 C 
BRANCH  13  14
HETATM   14  C   UNK N   1      28.343  23.997  -3.934  0.00  0.00     0.016 A 
HETATM   15  C   UNK N   1      29.741  24.317  -3.448  0.00  0.00     0.026 A 
HETATM   16  C   UNK N   1      29.493  24.018  -4.917  0.00  0.00     0.026 A 
HETATM   17  C   UNK N   1      30.374  23.065  -2.884  0.00  0.00     0.277 C 
HETATM   18  C   UNK N   1      30.036  22.613  -5.113  0.00  0.00     0.277 C 
HETATM   19  N   UNK N   1      30.930  22.330  -4.003  0.00  0.00     0.085 N 
HETATM   20  C   UNK N   1      30.837  20.915  -3.697  0.00  0.00     0.309 C 
ENDBRANCH  13  14
ENDBRANCH   3  13
BRANCH   1  21
HETATM   21  C   UNK N   1      26.136  27.749  -4.646  0.00  0.00     0.117 A 
HETATM   22  C   UNK N   1      26.934  28.648  -5.329  0.00  0.00     0.126 A 
HETATM   23  N   UNK N   1      27.081  29.723  -4.544  0.00  0.00    -0.355 N 
HETATM   24  C   UNK N   1      27.836  30.920  -4.866  0.00  0.00     0.156 C 
HETATM   25  C   UNK N   1      26.395  29.492  -3.413  0.00  0.00     0.183 A 
HETATM   26  N   UNK N   1      25.800  28.282  -3.450  0.00  0.00    -0.347 N 
ATOM     27  HN  UNK N   1      25.218  27.858  -2.727  1.00  0.00     0.167 HD
ENDBRANCH   1  21
TORSDOF 5
ENDMDL
MODEL 8
REMARK VINA RESULT:      -6.7      4.223      6.873
REMARK  5 active torsions:
REMARK  status: ('A' for Active; 'I' for Inactive)
REMARK    1  A    between atoms: C_4  and  C_8 
REMARK       I    between atoms: C_8  and  N_10 
REMARK    2  A    between atoms: N_10  and  C_11 
REMARK    3  A    between atoms: N_10  and  C_20 
REMARK    4  A    between atoms: C_11  and  C_12 
REMARK    5  A    between atoms: C_21  and  C_20 
ROOT
HETATM    1  C   UNK N   1      21.253  16.694   7.111  0.00  0.00     0.272 C 
HETATM    2  O   UNK N   1      20.734  17.321   8.012  0.00  0.00    -0.266 OA
HETATM    3  N   UNK N   1      21.271  15.312   7.132  0.00  0.00    -0.342 N 
ENDROOT
BRANCH   3   4
HETATM    4  C   UNK N   1      20.708  14.452   8.193  0.00  0.00     0.164 C 
BRANCH   4   5
HETATM    5  C   UNK N   1      21.375  13.655   9.294  0.00  0.00    -0.038 A 
HETATM    6  C   UNK N   1      20.506  13.118  10.253  0.00  0.00     0.012 A 
HETATM    7  C   UNK N   1      20.991  12.361  11.321  0.00  0.00     0.044 A 
HETATM    8  C   UNK N   1      22.360  12.130  11.445  0.00  0.00     0.138 A 
HETATM    9  C   UNK N   1      23.241  12.656  10.493  0.00  0.00     0.073 A 
HETATM   10  F   UNK N   1      22.825  11.399  12.486  0.00  0.00    -0.204 F 
HETATM   11  C   UNK N   1      22.744  13.409   9.424  0.00  0.00     0.035 A 
HETATM   12 Cl   UNK N   1      24.966  12.386  10.631  0.00  0.00    -0.081 Cl
ENDBRANCH   4   5
ENDBRANCH   3   4
BRANCH   3  13
HETATM   13  C   UNK N   1      21.905  14.603   6.025  0.00  0.00     0.132 C 
BRANCH  13  14
HETATM   14  C   UNK N   1      20.974  13.647   5.281  0.00  0.00     0.016 A 
HETATM   15  C   UNK N   1      20.900  14.101   3.840  0.00  0.00     0.026 A 
HETATM   16  C   UNK N   1      19.750  14.389   4.790  0.00  0.00     0.026 A 
HETATM   17  C   UNK N   1      20.429  12.953   2.976  0.00  0.00     0.277 C 
HETATM   18  C   UNK N   1      18.669  13.401   4.385  0.00  0.00     0.277 C 
HETATM   19  N   UNK N   1      18.982  12.935   3.045  0.00  0.00     0.085 N 
HETATM   20  C   UNK N   1      18.548  11.555   2.934  0.00  0.00     0.309 C 
ENDBRANCH  13  14
ENDBRANCH   3  13
BRANCH   1  21
HETATM   21  C   UNK N   1      21.845  17.500   5.995  0.00  0.00     0.117 A 
HETATM   22  C   UNK N   1      21.190  18.229   5.019  0.00  0.00     0.126 A 
HETATM   23  N   UNK N   1      22.129  18.793   4.250  0.00  0.00    -0.355 N 
HETATM   24  C   UNK N   1      21.893  19.656   3.107  0.00  0.00     0.156 C 
HETATM   25  C   UNK N   1      23.325  18.423   4.736  0.00  0.00     0.183 A 
HETATM   26  N   UNK N   1      23.179  17.626   5.815  0.00  0.00    -0.347 N 
ATOM     27  HN  UNK N   1      23.920  17.206   6.377  1.00  0.00     0.167 HD
ENDBRANCH   1  21
TORSDOF 5
ENDMDL
MODEL 9
REMARK VINA RESULT:      -6.5     14.125     17.127
REMARK  5 active torsions:
REMARK  status: ('A' for Active; 'I' for Inactive)
REMARK    1  A    between atoms: C_4  and  C_8 
REMARK       I    between atoms: C_8  and  N_10 
REMARK    2  A    between atoms: N_10  and  C_11 
REMARK    3  A    between atoms: N_10  and  C_20 
REMARK    4  A    between atoms: C_11  and  C_12 
REMARK    5  A    between atoms: C_21  and  C_20 
ROOT
HETATM    1  C   UNK N   1      35.515  14.400  12.201  0.00  0.00     0.272 C 
HETATM    2  O   UNK N   1      36.097  15.404  12.556  0.00  0.00    -0.266 OA
HETATM    3  N   UNK N   1      35.611  13.232  12.935  0.00  0.00    -0.342 N 
ENDROOT
BRANCH   3   4
HETATM    4  C   UNK N   1      36.395  13.045  14.172  0.00  0.00     0.164 C 
BRANCH   4   5
HETATM    5  C   UNK N   1      35.965  12.863  15.612  0.00  0.00    -0.038 A 
HETATM    6  C   UNK N   1      35.917  14.038  16.374  0.00  0.00     0.012 A 
HETATM    7  C   UNK N   1      35.534  14.010  17.716  0.00  0.00     0.044 A 
HETATM    8  C   UNK N   1      35.192  12.800  18.317  0.00  0.00     0.138 A 
HETATM    9  C   UNK N   1      35.231  11.618  17.569  0.00  0.00     0.073 A 
HETATM   10  F   UNK N   1      34.827  12.779  19.622  0.00  0.00    -0.204 F 
HETATM   11  C   UNK N   1      35.611  11.657  16.223  0.00  0.00     0.035 A 
HETATM   12 Cl   UNK N   1      34.814  10.083  18.304  0.00  0.00    -0.081 Cl
ENDBRANCH   4   5
ENDBRANCH   3   4
BRANCH   3  13
HETATM   13  C   UNK N   1      34.891  12.051  12.468  0.00  0.00     0.132 C 
BRANCH  13  14
HETATM   14  C   UNK N   1      35.662  10.743  12.636  0.00  0.00     0.016 A 
HETATM   15  C   UNK N   1      35.044   9.719  11.710  0.00  0.00     0.026 A 
HETATM   16  C   UNK N   1      34.754   9.672  13.201  0.00  0.00     0.026 A 
HETATM   17  C   UNK N   1      36.036   8.607  11.459  0.00  0.00     0.277 C 
HETATM   18  C   UNK N   1      35.580   8.504  13.710  0.00  0.00     0.277 C 
HETATM   19  N   UNK N   1      35.921   7.677  12.565  0.00  0.00     0.085 N 
HETATM   20  C   UNK N   1      37.231   7.099  12.799  0.00  0.00     0.309 C 
ENDBRANCH  13  14
ENDBRANCH   3  13
BRANCH   1  21
HETATM   21  C   UNK N   1      34.696  14.514  10.952  0.00  0.00     0.117 A 
HETATM   22  C   UNK N   1      35.044  14.162   9.660  0.00  0.00     0.126 A 
HETATM   23  N   UNK N   1      33.989  14.430   8.879  0.00  0.00    -0.355 N 
HETATM   24  C   UNK N   1      33.906  14.207   7.448  0.00  0.00     0.156 C 
HETATM   25  C   UNK N   1      33.023  14.930   9.666  0.00  0.00     0.183 A 
HETATM   26  N   UNK N   1      33.432  14.992  10.950  0.00  0.00    -0.347 N 
ATOM     27  HN  UNK N   1      32.898  15.329  11.752  1.00  0.00     0.167 HD
ENDBRANCH   1  21
TORSDOF 5
ENDMDL
