REMARK  8 active torsions:
REMARK  status: ('A' for Active; 'I' for Inactive)
REMARK       I    between atoms: C_2  and  N_4 
REMARK    1  A    between atoms: N_7  and  C_10 
REMARK    2  A    between atoms: C_13  and  N_18 
REMARK    3  A    between atoms: C_14  and  O_16 
REMARK       I    between atoms: N_18  and  C_19 
REMARK    4  A    between atoms: C_23  and  C_39 
REMARK    5  A    between atoms: C_24  and  N_27 
REMARK    6  A    between atoms: N_27  and  C_28 
REMARK    7  A    between atoms: C_32  and  N_34 
REMARK       I    between atoms: N_34  and  C_35 
REMARK    8  A    between atoms: C_35  and  C_37 
ROOT
HETATM    1  N   UNK N   1      -5.670  -7.368   2.078  0.00  0.00    -0.189 N 
HETATM    2  C   UNK N   1      -6.933  -7.958   1.923  0.00  0.00     0.684 A 
HETATM    3  N   UNK N   1      -8.056  -7.205   2.099  0.00  0.00    -0.201 N 
ATOM      4  HN  UNK N   1      -8.007  -6.351   2.653  1.00  0.00     0.183 HD
HETATM    5  C   UNK N   1      -9.237  -7.579   1.545  0.00  0.00     0.126 A 
HETATM    6  C   UNK N   1      -9.308  -8.717   0.728  0.00  0.00     0.108 A 
HETATM    7  C   UNK N   1      -8.137  -9.488   0.582  0.00  0.00     0.138 A 
HETATM    8  N   UNK N   1      -7.004  -9.081   1.189  0.00  0.00    -0.176 N 
ATOM      9  HN  UNK N   1      -6.164  -9.651   1.087  1.00  0.00     0.186 HD
HETATM   10  H   UNK N   1      -5.075  -7.656   2.808  0.00  0.00     0.184 HD
ENDROOT
BRANCH   1  11
HETATM   11  C   UNK N   1      -5.254  -6.346   1.170  0.00  0.00     0.082 A 
HETATM   12  C   UNK N   1      -4.119  -5.597   1.487  0.00  0.00     0.035 A 
HETATM   13  C   UNK N   1      -3.761  -4.492   0.712  0.00  0.00     0.032 A 
HETATM   14  C   UNK N   1      -4.542  -4.120  -0.393  0.00  0.00     0.033 A 
HETATM   15  C   UNK N   1      -5.617  -4.918  -0.764  0.00  0.00     0.068 A 
HETATM   16  C   UNK N   1      -5.985  -6.032  -0.021  0.00  0.00     0.097 A 
BRANCH  14  17
HETATM   17  N   UNK N   1      -4.375  -2.849  -1.016  0.00  0.00    -0.378 N 
HETATM   18  C   UNK N   1      -3.442  -1.903  -0.448  0.00  0.00     0.143 C 
HETATM   19  C   UNK N   1      -4.189  -1.112   0.631  0.00  0.00     0.145 C 
HETATM   20  N   UNK N   1      -5.450  -0.621   0.095  0.00  0.00    -0.349 N 
HETATM   21  C   UNK N   1      -5.779   0.695   0.202  0.00  0.00     0.215 C 
HETATM   22  C   UNK N   1      -6.332  -1.549  -0.590  0.00  0.00     0.145 C 
HETATM   23  C   UNK N   1      -7.079   1.209  -0.334  0.00  0.00     0.117 C 
HETATM   24  O   UNK N   1      -5.015   1.479   0.745  0.00  0.00    -0.274 OA
HETATM   25  C   UNK N   1      -5.527  -2.270  -1.675  0.00  0.00     0.143 C 
ENDBRANCH  14  17
BRANCH  16  26
HETATM   26  O   UNK N   1      -7.050  -6.770  -0.422  0.00  0.00    -0.354 OA
HETATM   27  C   UNK N   1      -7.825  -6.477  -1.524  0.00  0.00     0.210 C 
ENDBRANCH  16  26
ENDBRANCH   1  11
BRANCH   7  28
HETATM   28  N   UNK N   1      -8.088 -10.648  -0.241  0.00  0.00    -0.341 N 
HETATM   29  H   UNK N   1      -8.922 -11.044  -0.583  0.00  0.00     0.167 HD
BRANCH  28  30
HETATM   30  C   UNK N   1      -6.831 -11.238  -0.571  0.00  0.00     0.035 A 
HETATM   31  C   UNK N   1      -5.677 -10.445  -0.729  0.00  0.00     0.029 A 
HETATM   32  C   UNK N   1      -4.427 -11.031  -0.905  0.00  0.00     0.004 A 
HETATM   33  C   UNK N   1      -4.313 -12.419  -0.899  0.00  0.00     0.029 A 
HETATM   34  C   UNK N   1      -5.456 -13.225  -0.756  0.00  0.00     0.037 A 
HETATM   35  C   UNK N   1      -6.713 -12.626  -0.607  0.00  0.00     0.059 A 
BRANCH  34  36
HETATM   36  N   UNK N   1      -5.370 -14.643  -0.706  0.00  0.00    -0.324 N 
HETATM   37  C   UNK N   1      -4.245 -15.352  -0.426  0.00  0.00     0.244 C 
HETATM   38  O   UNK N   1      -3.201 -14.788  -0.123  0.00  0.00    -0.268 OA
HETATM   39  H   UNK N   1      -6.192 -15.152  -0.889  0.00  0.00     0.169 HD
BRANCH  37  40
HETATM   40  C   UNK N   1      -4.315 -16.821  -0.435  0.00  0.00     0.064 C 
HETATM   41  C   UNK N   1      -3.265 -17.574  -0.111  0.00  0.00     0.017 C 
ENDBRANCH  37  40
ENDBRANCH  34  36
ENDBRANCH  28  30
ENDBRANCH   7  28
BRANCH   6  42
HETATM   42  C   UNK N   1     -10.574  -9.037  -0.014  0.00  0.00     0.422 C 
HETATM   43  F   UNK N   1     -11.045 -10.280   0.359  0.00  0.00    -0.166 F 
HETATM   44  F   UNK N   1     -10.315  -9.031  -1.374  0.00  0.00    -0.166 F 
HETATM   45  F   UNK N   1     -11.551  -8.088   0.244  0.00  0.00    -0.166 F 
ENDBRANCH   6  42
TORSDOF 8
