MODEL 1
REMARK VINA RESULT:      -6.9      0.000      0.000
REMARK  4 active torsions:
REMARK  status: ('A' for Active; 'I' for Inactive)
REMARK    1  A    between atoms: N_2  and  C_4 
REMARK    2  A    between atoms: C_4  and  C_5 
REMARK    3  A    between atoms: C_5  and  N_6 
REMARK       I    between atoms: N_6  and  C_7 
REMARK    4  A    between atoms: C_7  and  C_9 
ROOT
HETATM    1  C   UNK N   1      35.526  11.827  12.590  0.00  0.00     0.059 A 
HETATM    2  C   UNK N   1      34.644  10.760  12.353  0.00  0.00     0.019 A 
HETATM    3  C   UNK N   1      33.785  10.295  13.353  0.00  0.00     0.002 A 
HETATM    4  C   UNK N   1      33.786  10.888  14.616  0.00  0.00     0.014 A 
HETATM    5  C   UNK N   1      34.650  11.949  14.884  0.00  0.00    -0.007 A 
HETATM    6  C   UNK N   1      35.525  12.427  13.878  0.00  0.00     0.059 A 
HETATM    7  N   UNK N   1      36.358  13.465  14.161  0.00  0.00    -0.354 N 
ATOM      8  HN  UNK N   1      36.986  13.804  13.433  1.00  0.00     0.166 HD
HETATM    9  C   UNK N   1      36.383  14.064  15.377  0.00  0.00     0.043 A 
HETATM   10  C   UNK N   1      37.259  15.126  15.611  0.00  0.00     0.030 A 
HETATM   11  C   UNK N   1      37.286  15.744  16.863  0.00  0.00     0.002 A 
HETATM   12  C   UNK N   1      36.435  15.301  17.883  0.00  0.00     0.001 A 
HETATM   13  C   UNK N   1      35.555  14.236  17.652  0.00  0.00     0.014 A 
HETATM   14  C   UNK N   1      35.526  13.615  16.400  0.00  0.00    -0.009 A 
HETATM   15  C   UNK N   1      34.657  12.552  16.147  0.00  0.00     0.027 A 
ENDROOT
BRANCH   1  16
HETATM   16  C   UNK N   1      36.451  12.335  11.509  0.00  0.00     0.253 C 
HETATM   17  N   UNK N   1      36.032  12.976  10.388  0.00  0.00    -0.355 N 
HETATM   18  H   UNK N   1      36.740  13.280   9.775  0.00  0.00     0.162 HD
HETATM   19  O   UNK N   1      37.652  12.182  11.641  0.00  0.00    -0.268 OA
BRANCH  17  20
HETATM   20  C   UNK N   1      34.683  13.266   9.985  0.00  0.00     0.153 C 
BRANCH  20  21
HETATM   21  C   UNK N   1      34.282  14.637  10.538  0.00  0.00     0.291 C 
BRANCH  21  22
HETATM   22  N   UNK N   1      34.949  15.730   9.832  0.00  0.00     0.081 N 
HETATM   23  C   UNK N   1      33.924  16.461   9.113  0.00  0.00     0.309 C 
HETATM   24  C   UNK N   1      35.483  16.658  10.818  0.00  0.00     0.309 C 
ENDBRANCH  21  22
ENDBRANCH  20  21
ENDBRANCH  17  20
ENDBRANCH   1  16
TORSDOF 4
ENDMDL
MODEL 2
REMARK VINA RESULT:      -6.9      5.259      8.804
REMARK  4 active torsions:
REMARK  status: ('A' for Active; 'I' for Inactive)
REMARK    1  A    between atoms: N_2  and  C_4 
REMARK    2  A    between atoms: C_4  and  C_5 
REMARK    3  A    between atoms: C_5  and  N_6 
REMARK       I    between atoms: N_6  and  C_7 
REMARK    4  A    between atoms: C_7  and  C_9 
ROOT
HETATM    1  C   UNK N   1      34.008  17.265   7.404  0.00  0.00     0.059 A 
HETATM    2  C   UNK N   1      34.730  16.634   6.378  0.00  0.00     0.019 A 
HETATM    3  C   UNK N   1      34.077  15.968   5.337  0.00  0.00     0.002 A 
HETATM    4  C   UNK N   1      32.684  15.918   5.297  0.00  0.00     0.014 A 
HETATM    5  C   UNK N   1      31.936  16.533   6.300  0.00  0.00    -0.007 A 
HETATM    6  C   UNK N   1      32.588  17.210   7.359  0.00  0.00     0.059 A 
HETATM    7  N   UNK N   1      31.840  17.806   8.327  0.00  0.00    -0.354 N 
ATOM      8  HN  UNK N   1      32.315  18.291   9.087  1.00  0.00     0.166 HD
HETATM    9  C   UNK N   1      30.485  17.776   8.317  0.00  0.00     0.043 A 
HETATM   10  C   UNK N   1      29.767  18.405   9.336  0.00  0.00     0.030 A 
HETATM   11  C   UNK N   1      28.371  18.376   9.326  0.00  0.00     0.002 A 
HETATM   12  C   UNK N   1      27.690  17.718   8.295  0.00  0.00     0.001 A 
HETATM   13  C   UNK N   1      28.406  17.085   7.270  0.00  0.00     0.014 A 
HETATM   14  C   UNK N   1      29.804  17.113   7.277  0.00  0.00    -0.009 A 
HETATM   15  C   UNK N   1      30.538  16.489   6.266  0.00  0.00     0.027 A 
ENDROOT
BRANCH   1  16
HETATM   16  C   UNK N   1      34.711  17.992   8.527  0.00  0.00     0.253 C 
HETATM   17  N   UNK N   1      35.035  17.424   9.716  0.00  0.00    -0.355 N 
HETATM   18  H   UNK N   1      35.516  18.001  10.353  0.00  0.00     0.162 HD
HETATM   19  O   UNK N   1      35.029  19.157   8.367  0.00  0.00    -0.268 OA
BRANCH  17  20
HETATM   20  C   UNK N   1      34.762  16.085  10.163  0.00  0.00     0.153 C 
BRANCH  20  21
HETATM   21  C   UNK N   1      36.035  15.246  10.024  0.00  0.00     0.291 C 
BRANCH  21  22
HETATM   22  N   UNK N   1      35.776  13.958   9.381  0.00  0.00     0.081 N 
HETATM   23  C   UNK N   1      34.372  13.937   9.020  0.00  0.00     0.309 C 
HETATM   24  C   UNK N   1      36.511  13.913   8.125  0.00  0.00     0.309 C 
ENDBRANCH  21  22
ENDBRANCH  20  21
ENDBRANCH  17  20
ENDBRANCH   1  16
TORSDOF 4
ENDMDL
MODEL 3
REMARK VINA RESULT:      -6.9      3.395      8.255
REMARK  4 active torsions:
REMARK  status: ('A' for Active; 'I' for Inactive)
REMARK    1  A    between atoms: N_2  and  C_4 
REMARK    2  A    between atoms: C_4  and  C_5 
REMARK    3  A    between atoms: C_5  and  N_6 
REMARK       I    between atoms: N_6  and  C_7 
REMARK    4  A    between atoms: C_7  and  C_9 
ROOT
HETATM    1  C   UNK N   1      34.325  16.184   8.549  0.00  0.00     0.059 A 
HETATM    2  C   UNK N   1      35.094  15.332   7.739  0.00  0.00     0.019 A 
HETATM    3  C   UNK N   1      34.563  14.765   6.576  0.00  0.00     0.002 A 
HETATM    4  C   UNK N   1      33.248  15.037   6.196  0.00  0.00     0.014 A 
HETATM    5  C   UNK N   1      32.458  15.878   6.979  0.00  0.00    -0.007 A 
HETATM    6  C   UNK N   1      32.987  16.457   8.158  0.00  0.00     0.059 A 
HETATM    7  N   UNK N   1      32.198  17.277   8.907  0.00  0.00    -0.354 N 
ATOM      8  HN  UNK N   1      32.585  17.690   9.755  1.00  0.00     0.166 HD
HETATM    9  C   UNK N   1      30.919  17.562   8.565  0.00  0.00     0.043 A 
HETATM   10  C   UNK N   1      30.156  18.410   9.370  0.00  0.00     0.030 A 
HETATM   11  C   UNK N   1      28.837  18.706   9.018  0.00  0.00     0.002 A 
HETATM   12  C   UNK N   1      28.279  18.153   7.859  0.00  0.00     0.001 A 
HETATM   13  C   UNK N   1      29.041  17.302   7.048  0.00  0.00     0.014 A 
HETATM   14  C   UNK N   1      30.361  17.004   7.397  0.00  0.00    -0.009 A 
HETATM   15  C   UNK N   1      31.139  16.158   6.604  0.00  0.00     0.027 A 
ENDROOT
BRANCH   1  16
HETATM   16  C   UNK N   1      34.900  16.804   9.802  0.00  0.00     0.253 C 
HETATM   17  N   UNK N   1      34.979  16.168  10.998  0.00  0.00    -0.355 N 
HETATM   18  H   UNK N   1      35.400  16.676  11.730  0.00  0.00     0.162 HD
HETATM   19  O   UNK N   1      35.337  17.940   9.750  0.00  0.00    -0.268 OA
BRANCH  17  20
HETATM   20  C   UNK N   1      34.525  14.845  11.331  0.00  0.00     0.153 C 
BRANCH  20  21
HETATM   21  C   UNK N   1      35.649  14.101  12.056  0.00  0.00     0.291 C 
BRANCH  21  22
HETATM   22  N   UNK N   1      35.270  13.726  13.417  0.00  0.00     0.081 N 
HETATM   23  C   UNK N   1      34.958  12.310  13.398  0.00  0.00     0.309 C 
HETATM   24  C   UNK N   1      36.437  13.865  14.277  0.00  0.00     0.309 C 
ENDBRANCH  21  22
ENDBRANCH  20  21
ENDBRANCH  17  20
ENDBRANCH   1  16
TORSDOF 4
ENDMDL
MODEL 4
REMARK VINA RESULT:      -6.5      6.145     11.079
REMARK  4 active torsions:
REMARK  status: ('A' for Active; 'I' for Inactive)
REMARK    1  A    between atoms: N_2  and  C_4 
REMARK    2  A    between atoms: C_4  and  C_5 
REMARK    3  A    between atoms: C_5  and  N_6 
REMARK       I    between atoms: N_6  and  C_7 
REMARK    4  A    between atoms: C_7  and  C_9 
ROOT
HETATM    1  C   UNK N   1      30.563  16.570   7.072  0.00  0.00     0.059 A 
HETATM    2  C   UNK N   1      31.167  15.411   6.559  0.00  0.00     0.019 A 
HETATM    3  C   UNK N   1      30.858  14.938   5.279  0.00  0.00     0.002 A 
HETATM    4  C   UNK N   1      29.936  15.616   4.481  0.00  0.00     0.014 A 
HETATM    5  C   UNK N   1      29.318  16.770   4.960  0.00  0.00    -0.007 A 
HETATM    6  C   UNK N   1      29.624  17.256   6.255  0.00  0.00     0.059 A 
HETATM    7  N   UNK N   1      29.010  18.386   6.702  0.00  0.00    -0.354 N 
ATOM      8  HN  UNK N   1      29.234  18.730   7.635  1.00  0.00     0.166 HD
HETATM    9  C   UNK N   1      28.111  19.068   5.952  0.00  0.00     0.043 A 
HETATM   10  C   UNK N   1      27.512  20.222   6.462  0.00  0.00     0.030 A 
HETATM   11  C   UNK N   1      26.586  20.926   5.689  0.00  0.00     0.002 A 
HETATM   12  C   UNK N   1      26.259  20.478   4.404  0.00  0.00     0.001 A 
HETATM   13  C   UNK N   1      26.858  19.321   3.888  0.00  0.00     0.014 A 
HETATM   14  C   UNK N   1      27.785  18.613   4.659  0.00  0.00    -0.009 A 
HETATM   15  C   UNK N   1      28.394  17.458   4.166  0.00  0.00     0.027 A 
ENDROOT
BRANCH   1  16
HETATM   16  C   UNK N   1      30.901  17.086   8.451  0.00  0.00     0.253 C 
HETATM   17  N   UNK N   1      32.057  17.725   8.762  0.00  0.00    -0.355 N 
HETATM   18  H   UNK N   1      32.141  18.034   9.694  0.00  0.00     0.162 HD
HETATM   19  O   UNK N   1      30.090  16.942   9.349  0.00  0.00    -0.268 OA
BRANCH  17  20
HETATM   20  C   UNK N   1      33.174  18.006   7.902  0.00  0.00     0.153 C 
BRANCH  20  21
HETATM   21  C   UNK N   1      34.472  17.736   8.668  0.00  0.00     0.291 C 
BRANCH  21  22
HETATM   22  N   UNK N   1      34.389  16.520   9.476  0.00  0.00     0.081 N 
HETATM   23  C   UNK N   1      34.884  15.430   8.659  0.00  0.00     0.309 C 
HETATM   24  C   UNK N   1      35.322  16.641  10.587  0.00  0.00     0.309 C 
ENDBRANCH  21  22
ENDBRANCH  20  21
ENDBRANCH  17  20
ENDBRANCH   1  16
TORSDOF 4
ENDMDL
MODEL 5
REMARK VINA RESULT:      -6.4      6.421     11.095
REMARK  4 active torsions:
REMARK  status: ('A' for Active; 'I' for Inactive)
REMARK    1  A    between atoms: N_2  and  C_4 
REMARK    2  A    between atoms: C_4  and  C_5 
REMARK    3  A    between atoms: C_5  and  N_6 
REMARK       I    between atoms: N_6  and  C_7 
REMARK    4  A    between atoms: C_7  and  C_9 
ROOT
HETATM    1  C   UNK N   1      30.212  16.873   7.416  0.00  0.00     0.059 A 
HETATM    2  C   UNK N   1      30.547  16.783   8.777  0.00  0.00     0.019 A 
HETATM    3  C   UNK N   1      29.951  17.619   9.726  0.00  0.00     0.002 A 
HETATM    4  C   UNK N   1      29.004  18.566   9.336  0.00  0.00     0.014 A 
HETATM    5  C   UNK N   1      28.649  18.681   7.992  0.00  0.00    -0.007 A 
HETATM    6  C   UNK N   1      29.247  17.840   7.023  0.00  0.00     0.059 A 
HETATM    7  N   UNK N   1      28.885  17.969   5.717  0.00  0.00    -0.354 N 
ATOM      8  HN  UNK N   1      29.320  17.360   5.025  1.00  0.00     0.166 HD
HETATM    9  C   UNK N   1      27.968  18.877   5.306  0.00  0.00     0.043 A 
HETATM   10  C   UNK N   1      27.634  18.965   3.952  0.00  0.00     0.030 A 
HETATM   11  C   UNK N   1      26.688  19.901   3.527  0.00  0.00     0.002 A 
HETATM   12  C   UNK N   1      26.074  20.749   4.456  0.00  0.00     0.001 A 
HETATM   13  C   UNK N   1      26.406  20.665   5.814  0.00  0.00     0.014 A 
HETATM   14  C   UNK N   1      27.352  19.730   6.243  0.00  0.00    -0.009 A 
HETATM   15  C   UNK N   1      27.698  19.627   7.592  0.00  0.00     0.027 A 
ENDROOT
BRANCH   1  16
HETATM   16  C   UNK N   1      30.849  15.965   6.389  0.00  0.00     0.253 C 
HETATM   17  N   UNK N   1      32.138  16.069   5.978  0.00  0.00    -0.355 N 
HETATM   18  H   UNK N   1      32.437  15.397   5.322  0.00  0.00     0.162 HD
HETATM   19  O   UNK N   1      30.183  15.070   5.899  0.00  0.00    -0.268 OA
BRANCH  17  20
HETATM   20  C   UNK N   1      33.122  17.036   6.381  0.00  0.00     0.153 C 
BRANCH  20  21
HETATM   21  C   UNK N   1      33.964  16.447   7.516  0.00  0.00     0.291 C 
BRANCH  21  22
HETATM   22  N   UNK N   1      34.026  17.338   8.673  0.00  0.00     0.081 N 
HETATM   23  C   UNK N   1      34.914  16.722   9.640  0.00  0.00     0.309 C 
HETATM   24  C   UNK N   1      34.677  18.576   8.267  0.00  0.00     0.309 C 
ENDBRANCH  21  22
ENDBRANCH  20  21
ENDBRANCH  17  20
ENDBRANCH   1  16
TORSDOF 4
ENDMDL
MODEL 6
REMARK VINA RESULT:      -6.3     14.281     17.224
REMARK  4 active torsions:
REMARK  status: ('A' for Active; 'I' for Inactive)
REMARK    1  A    between atoms: N_2  and  C_4 
REMARK    2  A    between atoms: C_4  and  C_5 
REMARK    3  A    between atoms: C_5  and  N_6 
REMARK       I    between atoms: N_6  and  C_7 
REMARK    4  A    between atoms: C_7  and  C_9 
ROOT
HETATM    1  C   UNK N   1      21.402  17.834   3.578  0.00  0.00     0.059 A 
HETATM    2  C   UNK N   1      20.236  18.506   3.175  0.00  0.00     0.019 A 
HETATM    3  C   UNK N   1      20.279  19.834   2.738  0.00  0.00     0.002 A 
HETATM    4  C   UNK N   1      21.492  20.522   2.693  0.00  0.00     0.014 A 
HETATM    5  C   UNK N   1      22.668  19.884   3.086  0.00  0.00    -0.007 A 
HETATM    6  C   UNK N   1      22.634  18.540   3.531  0.00  0.00     0.059 A 
HETATM    7  N   UNK N   1      23.795  17.937   3.908  0.00  0.00    -0.354 N 
ATOM      8  HN  UNK N   1      23.764  16.969   4.228  1.00  0.00     0.166 HD
HETATM    9  C   UNK N   1      24.989  18.577   3.875  0.00  0.00     0.043 A 
HETATM   10  C   UNK N   1      26.147  17.907   4.274  0.00  0.00     0.030 A 
HETATM   11  C   UNK N   1      27.379  18.566   4.240  0.00  0.00     0.002 A 
HETATM   12  C   UNK N   1      27.453  19.894   3.806  0.00  0.00     0.001 A 
HETATM   13  C   UNK N   1      26.293  20.570   3.404  0.00  0.00     0.014 A 
HETATM   14  C   UNK N   1      25.058  19.914   3.437  0.00  0.00    -0.009 A 
HETATM   15  C   UNK N   1      23.889  20.567   3.042  0.00  0.00     0.027 A 
ENDROOT
BRANCH   1  16
HETATM   16  C   UNK N   1      21.358  16.398   4.043  0.00  0.00     0.253 C 
HETATM   17  N   UNK N   1      20.971  16.012   5.285  0.00  0.00    -0.355 N 
HETATM   18  H   UNK N   1      20.963  15.040   5.452  0.00  0.00     0.162 HD
HETATM   19  O   UNK N   1      21.674  15.516   3.263  0.00  0.00    -0.268 OA
BRANCH  17  20
HETATM   20  C   UNK N   1      20.570  16.843   6.387  0.00  0.00     0.153 C 
BRANCH  20  21
HETATM   21  C   UNK N   1      19.340  16.223   7.056  0.00  0.00     0.291 C 
BRANCH  21  22
HETATM   22  N   UNK N   1      19.407  16.310   8.514  0.00  0.00     0.081 N 
HETATM   23  C   UNK N   1      20.625  15.641   8.927  0.00  0.00     0.309 C 
HETATM   24  C   UNK N   1      19.575  17.708   8.885  0.00  0.00     0.309 C 
ENDBRANCH  21  22
ENDBRANCH  20  21
ENDBRANCH  17  20
ENDBRANCH   1  16
TORSDOF 4
ENDMDL
MODEL 7
REMARK VINA RESULT:      -6.2     19.284     22.486
REMARK  4 active torsions:
REMARK  status: ('A' for Active; 'I' for Inactive)
REMARK    1  A    between atoms: N_2  and  C_4 
REMARK    2  A    between atoms: C_4  and  C_5 
REMARK    3  A    between atoms: C_5  and  N_6 
REMARK       I    between atoms: N_6  and  C_7 
REMARK    4  A    between atoms: C_7  and  C_9 
ROOT
HETATM    1  C   UNK N   1      27.234  24.070  -4.923  0.00  0.00     0.059 A 
HETATM    2  C   UNK N   1      26.384  24.127  -6.040  0.00  0.00     0.019 A 
HETATM    3  C   UNK N   1      26.661  23.397  -7.200  0.00  0.00     0.002 A 
HETATM    4  C   UNK N   1      27.796  22.589  -7.269  0.00  0.00     0.014 A 
HETATM    5  C   UNK N   1      28.661  22.510  -6.179  0.00  0.00    -0.007 A 
HETATM    6  C   UNK N   1      28.390  23.247  -5.000  0.00  0.00     0.059 A 
HETATM    7  N   UNK N   1      29.246  23.153  -3.946  0.00  0.00    -0.354 N 
ATOM      8  HN  UNK N   1      29.045  23.686  -3.101  1.00  0.00     0.166 HD
HETATM    9  C   UNK N   1      30.357  22.377  -3.982  0.00  0.00     0.043 A 
HETATM   10  C   UNK N   1      31.200  22.320  -2.870  0.00  0.00     0.030 A 
HETATM   11  C   UNK N   1      32.345  21.519  -2.905  0.00  0.00     0.002 A 
HETATM   12  C   UNK N   1      32.647  20.776  -4.052  0.00  0.00     0.001 A 
HETATM   13  C   UNK N   1      31.803  20.831  -5.169  0.00  0.00     0.014 A 
HETATM   14  C   UNK N   1      30.657  21.630  -5.138  0.00  0.00    -0.009 A 
HETATM   15  C   UNK N   1      29.801  21.701  -6.239  0.00  0.00     0.027 A 
ENDROOT
BRANCH   1  16
HETATM   16  C   UNK N   1      26.932  24.853  -3.667  0.00  0.00     0.253 C 
HETATM   17  N   UNK N   1      26.949  26.208  -3.592  0.00  0.00    -0.355 N 
HETATM   18  H   UNK N   1      26.708  26.595  -2.719  0.00  0.00     0.162 HD
HETATM   19  O   UNK N   1      26.639  24.247  -2.651  0.00  0.00    -0.268 OA
BRANCH  17  20
HETATM   20  C   UNK N   1      27.276  27.149  -4.628  0.00  0.00     0.153 C 
BRANCH  20  21
HETATM   21  C   UNK N   1      27.982  28.354  -4.002  0.00  0.00     0.291 C 
BRANCH  21  22
HETATM   22  N   UNK N   1      27.149  29.018  -3.000  0.00  0.00     0.081 N 
HETATM   23  C   UNK N   1      28.043  29.580  -2.006  0.00  0.00     0.309 C 
HETATM   24  C   UNK N   1      26.487  30.153  -3.628  0.00  0.00     0.309 C 
ENDBRANCH  21  22
ENDBRANCH  20  21
ENDBRANCH  17  20
ENDBRANCH   1  16
TORSDOF 4
ENDMDL
MODEL 8
REMARK VINA RESULT:      -6.2     20.088     23.442
REMARK  4 active torsions:
REMARK  status: ('A' for Active; 'I' for Inactive)
REMARK    1  A    between atoms: N_2  and  C_4 
REMARK    2  A    between atoms: C_4  and  C_5 
REMARK    3  A    between atoms: C_5  and  N_6 
REMARK       I    between atoms: N_6  and  C_7 
REMARK    4  A    between atoms: C_7  and  C_9 
ROOT
HETATM    1  C   UNK N   1      26.969  24.773  -4.466  0.00  0.00     0.059 A 
HETATM    2  C   UNK N   1      26.413  24.088  -5.559  0.00  0.00     0.019 A 
HETATM    3  C   UNK N   1      25.780  24.776  -6.599  0.00  0.00     0.002 A 
HETATM    4  C   UNK N   1      25.689  26.169  -6.570  0.00  0.00     0.014 A 
HETATM    5  C   UNK N   1      26.230  26.879  -5.499  0.00  0.00    -0.007 A 
HETATM    6  C   UNK N   1      26.872  26.191  -4.441  0.00  0.00     0.059 A 
HETATM    7  N   UNK N   1      27.395  26.904  -3.407  0.00  0.00    -0.354 N 
ATOM      8  HN  UNK N   1      27.856  26.402  -2.648  1.00  0.00     0.166 HD
HETATM    9  C   UNK N   1      27.325  28.256  -3.349  0.00  0.00     0.043 A 
HETATM   10  C   UNK N   1      27.879  28.936  -2.263  0.00  0.00     0.030 A 
HETATM   11  C   UNK N   1      27.807  30.330  -2.203  0.00  0.00     0.002 A 
HETATM   12  C   UNK N   1      27.182  31.045  -3.230  0.00  0.00     0.001 A 
HETATM   13  C   UNK N   1      26.624  30.367  -4.322  0.00  0.00     0.014 A 
HETATM   14  C   UNK N   1      26.694  28.972  -4.385  0.00  0.00    -0.009 A 
HETATM   15  C   UNK N   1      26.145  28.275  -5.463  0.00  0.00     0.027 A 
ENDROOT
BRANCH   1  16
HETATM   16  C   UNK N   1      27.659  24.032  -3.345  0.00  0.00     0.253 C 
HETATM   17  N   UNK N   1      28.941  23.589  -3.402  0.00  0.00    -0.355 N 
HETATM   18  H   UNK N   1      29.279  23.143  -2.591  0.00  0.00     0.162 HD
HETATM   19  O   UNK N   1      27.047  23.822  -2.313  0.00  0.00    -0.268 OA
BRANCH  17  20
HETATM   20  C   UNK N   1      29.866  23.691  -4.497  0.00  0.00     0.153 C 
BRANCH  20  21
HETATM   21  C   UNK N   1      30.922  22.590  -4.360  0.00  0.00     0.291 C 
BRANCH  21  22
HETATM   22  N   UNK N   1      30.364  21.261  -4.606  0.00  0.00     0.081 N 
HETATM   23  C   UNK N   1      29.926  21.232  -5.988  0.00  0.00     0.309 C 
HETATM   24  C   UNK N   1      31.439  20.284  -4.508  0.00  0.00     0.309 C 
ENDBRANCH  21  22
ENDBRANCH  20  21
ENDBRANCH  17  20
ENDBRANCH   1  16
TORSDOF 4
ENDMDL
MODEL 9
REMARK VINA RESULT:      -6.2     13.988     17.518
REMARK  4 active torsions:
REMARK  status: ('A' for Active; 'I' for Inactive)
REMARK    1  A    between atoms: N_2  and  C_4 
REMARK    2  A    between atoms: C_4  and  C_5 
REMARK    3  A    between atoms: C_5  and  N_6 
REMARK       I    between atoms: N_6  and  C_7 
REMARK    4  A    between atoms: C_7  and  C_9 
ROOT
HETATM    1  C   UNK N   1      21.321  18.539   4.085  0.00  0.00     0.059 A 
HETATM    2  C   UNK N   1      20.265  19.168   3.406  0.00  0.00     0.019 A 
HETATM    3  C   UNK N   1      20.494  20.256   2.558  0.00  0.00     0.002 A 
HETATM    4  C   UNK N   1      21.788  20.742   2.369  0.00  0.00     0.014 A 
HETATM    5  C   UNK N   1      22.860  20.140   3.027  0.00  0.00    -0.007 A 
HETATM    6  C   UNK N   1      22.638  19.038   3.889  0.00  0.00     0.059 A 
HETATM    7  N   UNK N   1      23.699  18.465   4.520  0.00  0.00    -0.354 N 
ATOM      8  HN  UNK N   1      23.532  17.672   5.139  1.00  0.00     0.166 HD
HETATM    9  C   UNK N   1      24.968  18.911   4.357  0.00  0.00     0.043 A 
HETATM   10  C   UNK N   1      26.018  18.283   5.030  0.00  0.00     0.030 A 
HETATM   11  C   UNK N   1      27.326  18.742   4.861  0.00  0.00     0.002 A 
HETATM   12  C   UNK N   1      27.586  19.829   4.018  0.00  0.00     0.001 A 
HETATM   13  C   UNK N   1      26.535  20.461   3.340  0.00  0.00     0.014 A 
HETATM   14  C   UNK N   1      25.225  20.004   3.506  0.00  0.00    -0.009 A 
HETATM   15  C   UNK N   1      24.162  20.619   2.841  0.00  0.00     0.027 A 
ENDROOT
BRANCH   1  16
HETATM   16  C   UNK N   1      21.077  17.359   4.995  0.00  0.00     0.253 C 
HETATM   17  N   UNK N   1      20.520  16.189   4.592  0.00  0.00    -0.355 N 
HETATM   18  H   UNK N   1      20.440  15.489   5.281  0.00  0.00     0.162 HD
HETATM   19  O   UNK N   1      21.407  17.439   6.166  0.00  0.00    -0.268 OA
BRANCH  17  20
HETATM   20  C   UNK N   1      20.032  15.844   3.284  0.00  0.00     0.153 C 
BRANCH  20  21
HETATM   21  C   UNK N   1      21.211  15.398   2.415  0.00  0.00     0.291 C 
BRANCH  21  22
HETATM   22  N   UNK N   1      20.856  15.335   0.999  0.00  0.00     0.081 N 
HETATM   23  C   UNK N   1      19.897  14.258   0.847  0.00  0.00     0.309 C 
HETATM   24  C   UNK N   1      20.142  16.555   0.648  0.00  0.00     0.309 C 
ENDBRANCH  21  22
ENDBRANCH  20  21
ENDBRANCH  17  20
ENDBRANCH   1  16
TORSDOF 4
ENDMDL
