MODEL 1
REMARK VINA RESULT:      -7.7      0.000      0.000
REMARK  6 active torsions:
REMARK  status: ('A' for Active; 'I' for Inactive)
REMARK    1  A    between atoms: C_2  and  C_3 
REMARK    2  A    between atoms: C_5  and  C_3 
REMARK    3  A    between atoms: C_9  and  C_31 
REMARK    4  A    between atoms: N_12  and  C_13 
REMARK    5  A    between atoms: C_13  and  C_14 
REMARK    6  A    between atoms: C_13  and  C_23 
REMARK       I    between atoms: C_23  and  N_25 
ROOT
HETATM    1  C   UNK N   1      35.233  11.452  10.378  0.00  0.00     0.184 C 
HETATM    2  C   UNK N   1      34.756  10.611  11.569  0.00  0.00     0.241 C 
HETATM    3  O   UNK N   1      34.628   9.402  11.455  0.00  0.00    -0.271 OA
HETATM    4  N   UNK N   1      34.431  11.188  12.742  0.00  0.00    -0.346 N 
HETATM    5  C   UNK N   1      34.773  12.555  13.005  0.00  0.00     0.181 C 
HETATM    6  C   UNK N   1      34.623  13.392  11.778  0.00  0.00     0.244 C 
HETATM    7  O   UNK N   1      34.248  14.549  11.929  0.00  0.00    -0.271 OA
HETATM    8  N   UNK N   1      34.978  12.915  10.539  0.00  0.00    -0.319 N 
HETATM    9  H   UNK N   1      33.955  10.664  13.427  0.00  0.00     0.163 HD
ENDROOT
BRANCH   8  10
HETATM   10  C   UNK N   1      35.097  13.854   9.386  0.00  0.00     0.215 C 
BRANCH  10  11
HETATM   11  C   UNK N   1      36.340  13.817   8.508  0.00  0.00    -0.004 A 
HETATM   12  C   UNK N   1      36.169  13.761   7.121  0.00  0.00     0.013 A 
HETATM   13  C   UNK N   1      37.272  13.752   6.271  0.00  0.00     0.025 A 
HETATM   14  C   UNK N   1      38.551  13.808   6.817  0.00  0.00     0.005 A 
HETATM   15  N   UNK N   1      38.715  13.875   8.168  0.00  0.00    -0.363 N 
HETATM   16  C   UNK N   1      39.736  13.797   5.919  0.00  0.00     0.068 C 
HETATM   17  C   UNK N   1      37.652  13.882   9.023  0.00  0.00     0.014 A 
ATOM     18  HN  UNK N   1      39.659  13.919   8.550  1.00  0.00     0.165 HD
HETATM   19  C   UNK N   1      37.904  13.968  10.489  0.00  0.00     0.068 C 
ENDBRANCH  10  11
BRANCH  10  20
HETATM   20  C   UNK N   1      33.853  14.520   8.819  0.00  0.00     0.247 C 
HETATM   21  O   UNK N   1      33.035  13.832   8.222  0.00  0.00    -0.271 OA
HETATM   22  N   UNK N   1      33.608  15.851   9.000  0.00  0.00    -0.346 N 
HETATM   23  C   UNK N   1      32.348  16.434   8.584  0.00  0.00     0.152 C 
HETATM   24  C   UNK N   1      34.630  16.751   9.489  0.00  0.00     0.152 C 
HETATM   25  C   UNK N   1      32.608  17.804   7.957  0.00  0.00     0.187 C 
HETATM   26  O   UNK N   1      33.892  17.805   7.381  0.00  0.00    -0.388 OA
HETATM   27  C   UNK N   1      34.828  17.876   8.443  0.00  0.00     0.187 C 
ENDBRANCH  10  20
ENDBRANCH   8  10
BRANCH   1  28
HETATM   28  C   UNK N   1      34.593  10.883   9.094  0.00  0.00     0.013 C 
HETATM   29  C   UNK N   1      33.115  10.523   9.153  0.00  0.00     0.012 C 
BRANCH  28  30
HETATM   30  C   UNK N   1      35.502   9.960   8.273  0.00  0.00     0.002 C 
HETATM   31  C   UNK N   1      36.986  10.171   8.514  0.00  0.00     0.005 C 
ENDBRANCH  28  30
ENDBRANCH   1  28
BRANCH   5  32
HETATM   32  C   UNK N   1      36.222  12.595  13.538  0.00  0.00     0.026 C 
HETATM   33  C   UNK N   1      36.409  13.794  14.498  0.00  0.00     0.046 C 
HETATM   34  C   UNK N   1      36.035  13.197  15.784  0.00  0.00    -0.051 A 
HETATM   35  C   UNK N   1      35.683  13.887  16.941  0.00  0.00     0.007 A 
HETATM   36  C   UNK N   1      36.033  11.834  15.735  0.00  0.00    -0.051 A 
HETATM   37  C   UNK N   1      35.313  13.145  18.072  0.00  0.00     0.001 A 
HETATM   38  C   UNK N   1      35.309  11.738  18.024  0.00  0.00     0.001 A 
HETATM   39  C   UNK N   1      35.676  11.071  16.844  0.00  0.00     0.007 A 
HETATM   40  C   UNK N   1      36.408  11.327  14.400  0.00  0.00     0.046 C 
ENDBRANCH   5  32
TORSDOF 6
ENDMDL
MODEL 2
REMARK VINA RESULT:      -7.6     10.755     13.845
REMARK  6 active torsions:
REMARK  status: ('A' for Active; 'I' for Inactive)
REMARK    1  A    between atoms: C_2  and  C_3 
REMARK    2  A    between atoms: C_5  and  C_3 
REMARK    3  A    between atoms: C_9  and  C_31 
REMARK    4  A    between atoms: N_12  and  C_13 
REMARK    5  A    between atoms: C_13  and  C_14 
REMARK    6  A    between atoms: C_13  and  C_23 
REMARK       I    between atoms: C_23  and  N_25 
ROOT
HETATM    1  C   UNK N   1      21.327  15.199   5.113  0.00  0.00     0.184 C 
HETATM    2  C   UNK N   1      20.456  15.367   6.365  0.00  0.00     0.241 C 
HETATM    3  O   UNK N   1      19.295  15.734   6.260  0.00  0.00    -0.271 OA
HETATM    4  N   UNK N   1      20.959  15.156   7.596  0.00  0.00    -0.346 N 
HETATM    5  C   UNK N   1      22.229  14.513   7.768  0.00  0.00     0.181 C 
HETATM    6  C   UNK N   1      23.193  14.936   6.710  0.00  0.00     0.244 C 
HETATM    7  O   UNK N   1      24.373  15.029   7.028  0.00  0.00    -0.271 OA
HETATM    8  N   UNK N   1      22.790  15.125   5.409  0.00  0.00    -0.319 N 
HETATM    9  H   UNK N   1      20.448  15.446   8.386  0.00  0.00     0.163 HD
ENDROOT
BRANCH   8  10
HETATM   10  C   UNK N   1      23.808  15.255   4.326  0.00  0.00     0.215 C 
BRANCH  10  11
HETATM   11  C   UNK N   1      23.747  14.331   3.119  0.00  0.00    -0.004 A 
HETATM   12  C   UNK N   1      23.345  14.869   1.892  0.00  0.00     0.013 A 
HETATM   13  C   UNK N   1      23.299  14.074   0.751  0.00  0.00     0.025 A 
HETATM   14  C   UNK N   1      23.665  12.734   0.840  0.00  0.00     0.005 A 
HETATM   15  N   UNK N   1      24.068  12.214   2.033  0.00  0.00    -0.363 N 
HETATM   16  C   UNK N   1      23.617  11.875  -0.373  0.00  0.00     0.068 C 
HETATM   17  C   UNK N   1      24.120  12.971   3.167  0.00  0.00     0.014 A 
ATOM     18  HN  UNK N   1      24.337  11.232   2.080  1.00  0.00     0.165 HD
HETATM   19  C   UNK N   1      24.581  12.340   4.436  0.00  0.00     0.068 C 
ENDBRANCH  10  11
BRANCH  10  20
HETATM   20  C   UNK N   1      24.609  16.540   4.190  0.00  0.00     0.247 C 
HETATM   21  O   UNK N   1      24.041  17.554   3.803  0.00  0.00    -0.271 OA
HETATM   22  N   UNK N   1      25.930  16.601   4.535  0.00  0.00    -0.346 N 
HETATM   23  C   UNK N   1      26.636  17.866   4.541  0.00  0.00     0.152 C 
HETATM   24  C   UNK N   1      26.705  15.403   4.777  0.00  0.00     0.152 C 
HETATM   25  C   UNK N   1      28.040  17.664   3.972  0.00  0.00     0.187 C 
HETATM   26  O   UNK N   1      28.010  16.598   3.054  0.00  0.00    -0.388 OA
HETATM   27  C   UNK N   1      27.912  15.401   3.805  0.00  0.00     0.187 C 
ENDBRANCH  10  20
ENDBRANCH   8  10
BRANCH   1  28
HETATM   28  C   UNK N   1      20.986  16.335   4.126  0.00  0.00     0.013 C 
HETATM   29  C   UNK N   1      20.917  17.749   4.688  0.00  0.00     0.012 C 
BRANCH  28  30
HETATM   30  C   UNK N   1      19.963  15.966   3.044  0.00  0.00     0.002 C 
HETATM   31  C   UNK N   1      19.797  14.473   2.827  0.00  0.00     0.005 C 
ENDBRANCH  28  30
ENDBRANCH   1  28
BRANCH   5  32
HETATM   32  C   UNK N   1      22.002  12.986   7.743  0.00  0.00     0.026 C 
HETATM   33  C   UNK N   1      23.340  12.241   7.963  0.00  0.00     0.046 C 
HETATM   34  C   UNK N   1      23.376  12.134   9.425  0.00  0.00    -0.051 A 
HETATM   35  C   UNK N   1      24.498  11.867  10.204  0.00  0.00     0.007 A 
HETATM   36  C   UNK N   1      22.153  12.360   9.986  0.00  0.00    -0.051 A 
HETATM   37  C   UNK N   1      24.351  11.842  11.599  0.00  0.00     0.001 A 
HETATM   38  C   UNK N   1      23.090  12.077  12.180  0.00  0.00     0.001 A 
HETATM   39  C   UNK N   1      21.976  12.336  11.367  0.00  0.00     0.007 A 
HETATM   40  C   UNK N   1      21.123  12.652   8.969  0.00  0.00     0.046 C 
ENDBRANCH   5  32
TORSDOF 6
ENDMDL
MODEL 3
REMARK VINA RESULT:      -7.5      9.273     13.306
REMARK  6 active torsions:
REMARK  status: ('A' for Active; 'I' for Inactive)
REMARK    1  A    between atoms: C_2  and  C_3 
REMARK    2  A    between atoms: C_5  and  C_3 
REMARK    3  A    between atoms: C_9  and  C_31 
REMARK    4  A    between atoms: N_12  and  C_13 
REMARK    5  A    between atoms: C_13  and  C_14 
REMARK    6  A    between atoms: C_13  and  C_23 
REMARK       I    between atoms: C_23  and  N_25 
ROOT
HETATM    1  C   UNK N   1      25.851  15.100   3.128  0.00  0.00     0.184 C 
HETATM    2  C   UNK N   1      27.357  14.869   2.951  0.00  0.00     0.241 C 
HETATM    3  O   UNK N   1      27.804  14.543   1.861  0.00  0.00    -0.271 OA
HETATM    4  N   UNK N   1      28.206  14.978   3.991  0.00  0.00    -0.346 N 
HETATM    5  C   UNK N   1      27.779  15.571   5.224  0.00  0.00     0.181 C 
HETATM    6  C   UNK N   1      26.369  15.197   5.541  0.00  0.00     0.244 C 
HETATM    7  O   UNK N   1      26.078  15.049   6.722  0.00  0.00    -0.271 OA
HETATM    8  N   UNK N   1      25.413  15.112   4.557  0.00  0.00    -0.319 N 
HETATM    9  H   UNK N   1      29.129  14.648   3.902  0.00  0.00     0.163 HD
ENDROOT
BRANCH   8  10
HETATM   10  C   UNK N   1      23.970  15.030   4.926  0.00  0.00     0.215 C 
BRANCH  10  11
HETATM   11  C   UNK N   1      22.953  15.891   4.191  0.00  0.00    -0.004 A 
HETATM   12  C   UNK N   1      21.916  15.250   3.505  0.00  0.00     0.013 A 
HETATM   13  C   UNK N   1      20.944  15.989   2.838  0.00  0.00     0.025 A 
HETATM   14  C   UNK N   1      21.009  17.380   2.868  0.00  0.00     0.005 A 
HETATM   15  N   UNK N   1      22.012  18.003   3.546  0.00  0.00    -0.363 N 
HETATM   16  C   UNK N   1      19.976  18.180   2.157  0.00  0.00     0.068 C 
HETATM   17  C   UNK N   1      22.979  17.301   4.206  0.00  0.00     0.014 A 
ATOM     18  HN  UNK N   1      22.042  19.021   3.561  1.00  0.00     0.165 HD
HETATM   19  C   UNK N   1      24.041  18.047   4.937  0.00  0.00     0.068 C 
ENDBRANCH  10  11
BRANCH  10  20
HETATM   20  C   UNK N   1      23.451  13.821   5.688  0.00  0.00     0.247 C 
HETATM   21  O   UNK N   1      23.657  12.703   5.235  0.00  0.00    -0.271 OA
HETATM   22  N   UNK N   1      22.804  13.952   6.885  0.00  0.00    -0.346 N 
HETATM   23  C   UNK N   1      22.452  12.784   7.667  0.00  0.00     0.152 C 
HETATM   24  C   UNK N   1      22.333  15.237   7.354  0.00  0.00     0.152 C 
HETATM   25  C   UNK N   1      21.061  12.981   8.269  0.00  0.00     0.187 C 
HETATM   26  O   UNK N   1      20.312  13.819   7.422  0.00  0.00    -0.388 OA
HETATM   27  C   UNK N   1      20.805  15.136   7.592  0.00  0.00     0.187 C 
ENDBRANCH  10  20
ENDBRANCH   8  10
BRANCH   1  28
HETATM   28  C   UNK N   1      25.095  14.047   2.292  0.00  0.00     0.013 C 
HETATM   29  C   UNK N   1      25.640  12.625   2.306  0.00  0.00     0.012 C 
BRANCH  28  30
HETATM   30  C   UNK N   1      24.526  14.561   0.964  0.00  0.00     0.002 C 
HETATM   31  C   UNK N   1      23.360  13.749   0.430  0.00  0.00     0.005 C 
ENDBRANCH  28  30
ENDBRANCH   1  28
BRANCH   5  32
HETATM   32  C   UNK N   1      27.940  17.102   5.103  0.00  0.00     0.026 C 
HETATM   33  C   UNK N   1      27.330  17.806   6.338  0.00  0.00     0.046 C 
HETATM   34  C   UNK N   1      28.477  17.836   7.251  0.00  0.00    -0.051 A 
HETATM   35  C   UNK N   1      28.427  18.038   8.628  0.00  0.00     0.007 A 
HETATM   36  C   UNK N   1      29.654  17.607   6.603  0.00  0.00    -0.051 A 
HETATM   37  C   UNK N   1      29.628  17.993   9.351  0.00  0.00     0.001 A 
HETATM   38  C   UNK N   1      30.845  17.755   8.684  0.00  0.00     0.001 A 
HETATM   39  C   UNK N   1      30.863  17.562   7.293  0.00  0.00     0.007 A 
HETATM   40  C   UNK N   1      29.457  17.390   5.156  0.00  0.00     0.046 C 
ENDBRANCH   5  32
TORSDOF 6
ENDMDL
MODEL 4
REMARK VINA RESULT:      -7.4     10.789     14.647
REMARK  6 active torsions:
REMARK  status: ('A' for Active; 'I' for Inactive)
REMARK    1  A    between atoms: C_2  and  C_3 
REMARK    2  A    between atoms: C_5  and  C_3 
REMARK    3  A    between atoms: C_9  and  C_31 
REMARK    4  A    between atoms: N_12  and  C_13 
REMARK    5  A    between atoms: C_13  and  C_14 
REMARK    6  A    between atoms: C_13  and  C_23 
REMARK       I    between atoms: C_23  and  N_25 
ROOT
HETATM    1  C   UNK N   1      22.198  15.577   7.192  0.00  0.00     0.184 C 
HETATM    2  C   UNK N   1      22.364  16.807   6.290  0.00  0.00     0.241 C 
HETATM    3  O   UNK N   1      21.665  17.794   6.462  0.00  0.00    -0.271 OA
HETATM    4  N   UNK N   1      23.248  16.810   5.273  0.00  0.00    -0.346 N 
HETATM    5  C   UNK N   1      24.242  15.783   5.165  0.00  0.00     0.181 C 
HETATM    6  C   UNK N   1      23.694  14.457   5.577  0.00  0.00     0.244 C 
HETATM    7  O   UNK N   1      24.109  13.468   4.985  0.00  0.00    -0.271 OA
HETATM    8  N   UNK N   1      22.827  14.340   6.638  0.00  0.00    -0.319 N 
HETATM    9  H   UNK N   1      23.210  17.525   4.598  0.00  0.00     0.163 HD
ENDROOT
BRANCH   8  10
HETATM   10  C   UNK N   1      22.529  12.996   7.210  0.00  0.00     0.215 C 
BRANCH  10  11
HETATM   11  C   UNK N   1      22.685  12.761   8.706  0.00  0.00    -0.004 A 
HETATM   12  C   UNK N   1      21.551  12.398   9.441  0.00  0.00     0.013 A 
HETATM   13  C   UNK N   1      21.643  12.146  10.806  0.00  0.00     0.025 A 
HETATM   14  C   UNK N   1      22.880  12.250  11.435  0.00  0.00     0.005 A 
HETATM   15  N   UNK N   1      23.986  12.591  10.716  0.00  0.00    -0.363 N 
HETATM   16  C   UNK N   1      22.989  11.984  12.894  0.00  0.00     0.068 C 
HETATM   17  C   UNK N   1      23.922  12.846   9.377  0.00  0.00     0.014 A 
ATOM     18  HN  UNK N   1      24.885  12.659  11.191  1.00  0.00     0.165 HD
HETATM   19  C   UNK N   1      25.173  13.204   8.650  0.00  0.00     0.068 C 
ENDBRANCH  10  11
BRANCH  10  20
HETATM   20  C   UNK N   1      21.674  12.011   6.428  0.00  0.00     0.247 C 
HETATM   21  O   UNK N   1      20.470  12.216   6.337  0.00  0.00    -0.271 OA
HETATM   22  N   UNK N   1      22.222  10.937   5.788  0.00  0.00    -0.346 N 
HETATM   23  C   UNK N   1      21.415  10.098   4.925  0.00  0.00     0.152 C 
HETATM   24  C   UNK N   1      23.583  10.517   6.042  0.00  0.00     0.152 C 
HETATM   25  C   UNK N   1      21.799   8.634   5.140  0.00  0.00     0.187 C 
HETATM   26  O   UNK N   1      22.260   8.474   6.460  0.00  0.00    -0.388 OA
HETATM   27  C   UNK N   1      23.556   9.044   6.524  0.00  0.00     0.187 C 
ENDBRANCH  10  20
ENDBRANCH   8  10
BRANCH   1  28
HETATM   28  C   UNK N   1      20.695  15.389   7.485  0.00  0.00     0.013 C 
HETATM   29  C   UNK N   1      19.729  15.579   6.323  0.00  0.00     0.012 C 
BRANCH  28  30
HETATM   30  C   UNK N   1      20.236  15.890   8.860  0.00  0.00     0.002 C 
HETATM   31  C   UNK N   1      19.152  16.953   8.806  0.00  0.00     0.005 C 
ENDBRANCH  28  30
ENDBRANCH   1  28
BRANCH   5  32
HETATM   32  C   UNK N   1      25.449  16.188   6.039  0.00  0.00     0.026 C 
HETATM   33  C   UNK N   1      26.430  15.000   6.185  0.00  0.00     0.046 C 
HETATM   34  C   UNK N   1      27.302  15.201   5.024  0.00  0.00    -0.051 A 
HETATM   35  C   UNK N   1      28.146  14.252   4.453  0.00  0.00     0.007 A 
HETATM   36  C   UNK N   1      27.187  16.458   4.507  0.00  0.00    -0.051 A 
HETATM   37  C   UNK N   1      28.881  14.611   3.314  0.00  0.00     0.001 A 
HETATM   38  C   UNK N   1      28.762  15.908   2.778  0.00  0.00     0.001 A 
HETATM   39  C   UNK N   1      27.909  16.846   3.381  0.00  0.00     0.007 A 
HETATM   40  C   UNK N   1      26.214  17.278   5.256  0.00  0.00     0.046 C 
ENDBRANCH   5  32
TORSDOF 6
ENDMDL
MODEL 5
REMARK VINA RESULT:      -7.2     11.526     15.662
REMARK  6 active torsions:
REMARK  status: ('A' for Active; 'I' for Inactive)
REMARK    1  A    between atoms: C_2  and  C_3 
REMARK    2  A    between atoms: C_5  and  C_3 
REMARK    3  A    between atoms: C_9  and  C_31 
REMARK    4  A    between atoms: N_12  and  C_13 
REMARK    5  A    between atoms: C_13  and  C_14 
REMARK    6  A    between atoms: C_13  and  C_23 
REMARK       I    between atoms: C_23  and  N_25 
ROOT
HETATM    1  C   UNK N   1      21.553  16.433   2.882  0.00  0.00     0.184 C 
HETATM    2  C   UNK N   1      20.767  15.612   1.852  0.00  0.00     0.241 C 
HETATM    3  O   UNK N   1      19.813  16.106   1.271  0.00  0.00    -0.271 OA
HETATM    4  N   UNK N   1      21.084  14.328   1.598  0.00  0.00    -0.346 N 
HETATM    5  C   UNK N   1      22.317  13.770   2.073  0.00  0.00     0.181 C 
HETATM    6  C   UNK N   1      22.656  14.293   3.429  0.00  0.00     0.244 C 
HETATM    7  O   UNK N   1      23.225  13.529   4.200  0.00  0.00    -0.271 OA
HETATM    8  N   UNK N   1      22.423  15.604   3.769  0.00  0.00    -0.319 N 
HETATM    9  H   UNK N   1      20.462  13.766   1.081  0.00  0.00     0.163 HD
ENDROOT
BRANCH   8  10
HETATM   10  C   UNK N   1      23.032  16.172   5.007  0.00  0.00     0.215 C 
BRANCH  10  11
HETATM   11  C   UNK N   1      24.471  16.664   4.982  0.00  0.00    -0.004 A 
HETATM   12  C   UNK N   1      24.794  17.723   4.127  0.00  0.00     0.013 A 
HETATM   13  C   UNK N   1      26.089  18.230   4.085  0.00  0.00     0.025 A 
HETATM   14  C   UNK N   1      27.063  17.677   4.911  0.00  0.00     0.005 A 
HETATM   15  N   UNK N   1      26.745  16.654   5.752  0.00  0.00    -0.363 N 
HETATM   16  C   UNK N   1      28.451  18.210   4.872  0.00  0.00     0.068 C 
HETATM   17  C   UNK N   1      25.483  16.137   5.811  0.00  0.00     0.014 A 
ATOM     18  HN  UNK N   1      27.469  16.263   6.353  1.00  0.00     0.165 HD
HETATM   19  C   UNK N   1      25.203  15.025   6.763  0.00  0.00     0.068 C 
ENDBRANCH  10  11
BRANCH  10  20
HETATM   20  C   UNK N   1      22.138  16.664   6.135  0.00  0.00     0.247 C 
HETATM   21  O   UNK N   1      22.121  17.860   6.397  0.00  0.00    -0.271 OA
HETATM   22  N   UNK N   1      21.323  15.813   6.826  0.00  0.00    -0.346 N 
HETATM   23  C   UNK N   1      20.370  16.322   7.792  0.00  0.00     0.152 C 
HETATM   24  C   UNK N   1      21.464  14.377   6.722  0.00  0.00     0.152 C 
HETATM   25  C   UNK N   1      20.346  15.401   9.012  0.00  0.00     0.187 C 
HETATM   26  O   UNK N   1      21.610  14.798   9.151  0.00  0.00    -0.388 OA
HETATM   27  C   UNK N   1      21.715  13.809   8.141  0.00  0.00     0.187 C 
ENDBRANCH  10  20
ENDBRANCH   8  10
BRANCH   1  28
HETATM   28  C   UNK N   1      20.553  17.296   3.681  0.00  0.00     0.013 C 
HETATM   29  C   UNK N   1      19.283  16.614   4.173  0.00  0.00     0.012 C 
BRANCH  28  30
HETATM   30  C   UNK N   1      20.423  18.747   3.201  0.00  0.00     0.002 C 
HETATM   31  C   UNK N   1      21.699  19.560   3.323  0.00  0.00     0.005 C 
ENDBRANCH  28  30
ENDBRANCH   1  28
BRANCH   5  32
HETATM   32  C   UNK N   1      23.423  14.107   1.049  0.00  0.00     0.026 C 
HETATM   33  C   UNK N   1      24.819  13.828   1.654  0.00  0.00     0.046 C 
HETATM   34  C   UNK N   1      25.017  12.421   1.290  0.00  0.00    -0.051 A 
HETATM   35  C   UNK N   1      25.935  11.544   1.861  0.00  0.00     0.007 A 
HETATM   36  C   UNK N   1      24.158  12.020   0.310  0.00  0.00    -0.051 A 
HETATM   37  C   UNK N   1      25.956  10.216   1.412  0.00  0.00     0.001 A 
HETATM   38  C   UNK N   1      25.068   9.798   0.401  0.00  0.00     0.001 A 
HETATM   39  C   UNK N   1      24.160  10.709  -0.161  0.00  0.00     0.007 A 
HETATM   40  C   UNK N   1      23.259  13.109  -0.120  0.00  0.00     0.046 C 
ENDBRANCH   5  32
TORSDOF 6
ENDMDL
MODEL 6
REMARK VINA RESULT:      -7.0      2.761      6.142
REMARK  6 active torsions:
REMARK  status: ('A' for Active; 'I' for Inactive)
REMARK    1  A    between atoms: C_2  and  C_3 
REMARK    2  A    between atoms: C_5  and  C_3 
REMARK    3  A    between atoms: C_9  and  C_31 
REMARK    4  A    between atoms: N_12  and  C_13 
REMARK    5  A    between atoms: C_13  and  C_14 
REMARK    6  A    between atoms: C_13  and  C_23 
REMARK       I    between atoms: C_23  and  N_25 
ROOT
HETATM    1  C   UNK N   1      35.891  13.053  11.621  0.00  0.00     0.184 C 
HETATM    2  C   UNK N   1      36.136  14.166  12.648  0.00  0.00     0.241 C 
HETATM    3  O   UNK N   1      36.076  15.338  12.310  0.00  0.00    -0.271 OA
HETATM    4  N   UNK N   1      36.458  13.877  13.924  0.00  0.00    -0.346 N 
HETATM    5  C   UNK N   1      36.322  12.542  14.429  0.00  0.00     0.181 C 
HETATM    6  C   UNK N   1      36.697  11.534  13.394  0.00  0.00     0.244 C 
HETATM    7  O   UNK N   1      37.240  10.506  13.780  0.00  0.00    -0.271 OA
HETATM    8  N   UNK N   1      36.365  11.710  12.071  0.00  0.00    -0.319 N 
HETATM    9  H   UNK N   1      36.791  14.590  14.515  0.00  0.00     0.163 HD
ENDROOT
BRANCH   8  10
HETATM   10  C   UNK N   1      36.486  10.570  11.116  0.00  0.00     0.215 C 
BRANCH  10  11
HETATM   11  C   UNK N   1      35.350  10.274  10.147  0.00  0.00    -0.004 A 
HETATM   12  C   UNK N   1      35.623  10.314   8.776  0.00  0.00     0.013 A 
HETATM   13  C   UNK N   1      34.628  10.026   7.847  0.00  0.00     0.025 A 
HETATM   14  C   UNK N   1      33.355   9.688   8.297  0.00  0.00     0.005 A 
HETATM   15  N   UNK N   1      33.094   9.637   9.633  0.00  0.00    -0.363 N 
HETATM   16  C   UNK N   1      32.284   9.380   7.313  0.00  0.00     0.068 C 
HETATM   17  C   UNK N   1      34.051   9.918  10.565  0.00  0.00     0.014 A 
ATOM     18  HN  UNK N   1      32.157   9.384   9.946  1.00  0.00     0.165 HD
HETATM   19  C   UNK N   1      33.699   9.833  12.010  0.00  0.00     0.068 C 
ENDBRANCH  10  11
BRANCH  10  20
HETATM   20  C   UNK N   1      37.855   9.992  10.795  0.00  0.00     0.247 C 
HETATM   21  O   UNK N   1      38.684  10.706  10.245  0.00  0.00    -0.271 OA
HETATM   22  N   UNK N   1      38.195   8.716  11.146  0.00  0.00    -0.346 N 
HETATM   23  C   UNK N   1      39.550   8.236  10.967  0.00  0.00     0.152 C 
HETATM   24  C   UNK N   1      37.201   7.761  11.585  0.00  0.00     0.152 C 
HETATM   25  C   UNK N   1      39.512   6.795  10.458  0.00  0.00     0.187 C 
HETATM   26  O   UNK N   1      38.331   6.605   9.717  0.00  0.00    -0.388 OA
HETATM   27  C   UNK N   1      37.262   6.531  10.644  0.00  0.00     0.187 C 
ENDBRANCH  10  20
ENDBRANCH   8  10
BRANCH   1  28
HETATM   28  C   UNK N   1      36.527  13.480  10.281  0.00  0.00     0.013 C 
HETATM   29  C   UNK N   1      37.949  14.024  10.327  0.00  0.00     0.012 C 
BRANCH  28  30
HETATM   30  C   UNK N   1      35.562  14.138   9.288  0.00  0.00     0.002 C 
HETATM   31  C   UNK N   1      34.112  13.723   9.461  0.00  0.00     0.005 C 
ENDBRANCH  28  30
ENDBRANCH   1  28
BRANCH   5  32
HETATM   32  C   UNK N   1      34.862  12.351  14.895  0.00  0.00     0.026 C 
HETATM   33  C   UNK N   1      34.681  10.957  15.540  0.00  0.00     0.046 C 
HETATM   34  C   UNK N   1      35.009  11.241  16.941  0.00  0.00    -0.051 A 
HETATM   35  C   UNK N   1      35.349  10.304  17.913  0.00  0.00     0.007 A 
HETATM   36  C   UNK N   1      34.978  12.577  17.214  0.00  0.00    -0.051 A 
HETATM   37  C   UNK N   1      35.674  10.765  19.197  0.00  0.00     0.001 A 
HETATM   38  C   UNK N   1      35.644  12.144  19.481  0.00  0.00     0.001 A 
HETATM   39  C   UNK N   1      35.289  13.063  18.481  0.00  0.00     0.007 A 
HETATM   40  C   UNK N   1      34.623  13.377  16.025  0.00  0.00     0.046 C 
ENDBRANCH   5  32
TORSDOF 6
ENDMDL
MODEL 7
REMARK VINA RESULT:      -7.0      3.097      7.080
REMARK  6 active torsions:
REMARK  status: ('A' for Active; 'I' for Inactive)
REMARK    1  A    between atoms: C_2  and  C_3 
REMARK    2  A    between atoms: C_5  and  C_3 
REMARK    3  A    between atoms: C_9  and  C_31 
REMARK    4  A    between atoms: N_12  and  C_13 
REMARK    5  A    between atoms: C_13  and  C_14 
REMARK    6  A    between atoms: C_13  and  C_23 
REMARK       I    between atoms: C_23  and  N_25 
ROOT
HETATM    1  C   UNK N   1      35.241  14.569   9.240  0.00  0.00     0.184 C 
HETATM    2  C   UNK N   1      34.415  15.393  10.236  0.00  0.00     0.241 C 
HETATM    3  O   UNK N   1      34.944  15.866  11.230  0.00  0.00    -0.271 OA
HETATM    4  N   UNK N   1      33.092  15.577  10.058  0.00  0.00    -0.346 N 
HETATM    5  C   UNK N   1      32.468  15.245   8.812  0.00  0.00     0.181 C 
HETATM    6  C   UNK N   1      33.061  14.006   8.226  0.00  0.00     0.244 C 
HETATM    7  O   UNK N   1      32.312  13.264   7.602  0.00  0.00    -0.271 OA
HETATM    8  N   UNK N   1      34.410  13.752   8.306  0.00  0.00    -0.319 N 
HETATM    9  H   UNK N   1      32.549  15.943  10.793  0.00  0.00     0.163 HD
ENDROOT
BRANCH   8  10
HETATM   10  C   UNK N   1      35.015  12.674   7.470  0.00  0.00     0.215 C 
BRANCH  10  11
HETATM   11  C   UNK N   1      36.273  12.961   6.664  0.00  0.00    -0.004 A 
HETATM   12  C   UNK N   1      37.414  12.195   6.923  0.00  0.00     0.013 A 
HETATM   13  C   UNK N   1      38.584  12.398   6.197  0.00  0.00     0.025 A 
HETATM   14  C   UNK N   1      38.605  13.369   5.200  0.00  0.00     0.005 A 
HETATM   15  N   UNK N   1      37.489  14.106   4.940  0.00  0.00    -0.363 N 
HETATM   16  C   UNK N   1      39.849  13.595   4.419  0.00  0.00     0.068 C 
HETATM   17  C   UNK N   1      36.331  13.929   5.640  0.00  0.00     0.014 A 
ATOM     18  HN  UNK N   1      37.521  14.810   4.204  1.00  0.00     0.165 HD
HETATM   19  C   UNK N   1      35.145  14.763   5.296  0.00  0.00     0.068 C 
ENDBRANCH  10  11
BRANCH  10  20
HETATM   20  C   UNK N   1      34.670  11.219   7.746  0.00  0.00     0.247 C 
HETATM   21  O   UNK N   1      34.968  10.736   8.831  0.00  0.00    -0.271 OA
HETATM   22  N   UNK N   1      33.998  10.457   6.833  0.00  0.00    -0.346 N 
HETATM   23  C   UNK N   1      33.548   9.122   7.172  0.00  0.00     0.152 C 
HETATM   24  C   UNK N   1      33.824  10.892   5.464  0.00  0.00     0.152 C 
HETATM   25  C   UNK N   1      33.773   8.194   5.977  0.00  0.00     0.187 C 
HETATM   26  O   UNK N   1      34.871   8.667   5.235  0.00  0.00    -0.388 OA
HETATM   27  C   UNK N   1      34.437   9.817   4.531  0.00  0.00     0.187 C 
ENDBRANCH  10  20
ENDBRANCH   8  10
BRANCH   1  28
HETATM   28  C   UNK N   1      36.245  13.709  10.036  0.00  0.00     0.013 C 
HETATM   29  C   UNK N   1      35.730  13.022  11.294  0.00  0.00     0.012 C 
BRANCH  28  30
HETATM   30  C   UNK N   1      37.676  14.260  10.080  0.00  0.00     0.002 C 
HETATM   31  C   UNK N   1      38.748  13.196  10.238  0.00  0.00     0.005 C 
ENDBRANCH  28  30
ENDBRANCH   1  28
BRANCH   5  32
HETATM   32  C   UNK N   1      32.628  16.448   7.857  0.00  0.00     0.026 C 
HETATM   33  C   UNK N   1      31.565  16.390   6.735  0.00  0.00     0.046 C 
HETATM   34  C   UNK N   1      30.454  17.124   7.350  0.00  0.00    -0.051 A 
HETATM   35  C   UNK N   1      29.122  17.093   6.945  0.00  0.00     0.007 A 
HETATM   36  C   UNK N   1      30.857  17.856   8.428  0.00  0.00    -0.051 A 
HETATM   37  C   UNK N   1      28.184  17.832   7.682  0.00  0.00     0.001 A 
HETATM   38  C   UNK N   1      28.599  18.587   8.796  0.00  0.00     0.001 A 
HETATM   39  C   UNK N   1      29.950  18.604   9.174  0.00  0.00     0.007 A 
HETATM   40  C   UNK N   1      32.304  17.712   8.685  0.00  0.00     0.046 C 
ENDBRANCH   5  32
TORSDOF 6
ENDMDL
MODEL 8
REMARK VINA RESULT:      -6.9     17.538     22.342
REMARK  6 active torsions:
REMARK  status: ('A' for Active; 'I' for Inactive)
REMARK    1  A    between atoms: C_2  and  C_3 
REMARK    2  A    between atoms: C_5  and  C_3 
REMARK    3  A    between atoms: C_9  and  C_31 
REMARK    4  A    between atoms: N_12  and  C_13 
REMARK    5  A    between atoms: C_13  and  C_14 
REMARK    6  A    between atoms: C_13  and  C_23 
REMARK       I    between atoms: C_23  and  N_25 
ROOT
HETATM    1  C   UNK N   1      28.044  25.751  -5.667  0.00  0.00     0.184 C 
HETATM    2  C   UNK N   1      28.739  26.184  -4.371  0.00  0.00     0.241 C 
HETATM    3  O   UNK N   1      28.263  27.077  -3.687  0.00  0.00    -0.271 OA
HETATM    4  N   UNK N   1      29.901  25.622  -3.982  0.00  0.00    -0.346 N 
HETATM    5  C   UNK N   1      30.384  24.429  -4.613  0.00  0.00     0.181 C 
HETATM    6  C   UNK N   1      30.098  24.442  -6.079  0.00  0.00     0.244 C 
HETATM    7  O   UNK N   1      30.921  23.915  -6.817  0.00  0.00    -0.271 OA
HETATM    8  N   UNK N   1      28.917  24.944  -6.573  0.00  0.00    -0.319 N 
HETATM    9  H   UNK N   1      30.423  26.036  -3.257  0.00  0.00     0.163 HD
ENDROOT
BRANCH   8  10
HETATM   10  C   UNK N   1      28.531  24.680  -7.989  0.00  0.00     0.215 C 
BRANCH  10  11
HETATM   11  C   UNK N   1      28.773  25.746  -9.048  0.00  0.00    -0.004 A 
HETATM   12  C   UNK N   1      30.092  26.141  -9.300  0.00  0.00     0.013 A 
HETATM   13  C   UNK N   1      30.372  27.093 -10.276  0.00  0.00     0.025 A 
HETATM   14  C   UNK N   1      29.324  27.644 -11.008  0.00  0.00     0.005 A 
HETATM   15  N   UNK N   1      28.042  27.249 -10.771  0.00  0.00    -0.363 N 
HETATM   16  C   UNK N   1      29.612  28.662 -12.053  0.00  0.00     0.068 C 
HETATM   17  C   UNK N   1      27.740  26.320  -9.817  0.00  0.00     0.014 A 
ATOM     18  HN  UNK N   1      27.287  27.660 -11.319  1.00  0.00     0.165 HD
HETATM   19  C   UNK N   1      26.317  25.927  -9.618  0.00  0.00     0.068 C 
ENDBRANCH  10  11
BRANCH  10  20
HETATM   20  C   UNK N   1      28.319  23.251  -8.463  0.00  0.00     0.247 C 
HETATM   21  O   UNK N   1      29.123  22.763  -9.248  0.00  0.00    -0.271 OA
HETATM   22  N   UNK N   1      27.285  22.488  -8.000  0.00  0.00    -0.346 N 
HETATM   23  C   UNK N   1      27.187  21.085  -8.347  0.00  0.00     0.152 C 
HETATM   24  C   UNK N   1      26.186  23.070  -7.260  0.00  0.00     0.152 C 
HETATM   25  C   UNK N   1      25.726  20.735  -8.631  0.00  0.00     0.187 C 
HETATM   26  O   UNK N   1      25.070  21.882  -9.115  0.00  0.00    -0.388 OA
HETATM   27  C   UNK N   1      24.870  22.748  -8.012  0.00  0.00     0.187 C 
ENDBRANCH  10  20
ENDBRANCH   8  10
BRANCH   1  28
HETATM   28  C   UNK N   1      27.484  27.009  -6.363  0.00  0.00     0.013 C 
HETATM   29  C   UNK N   1      28.426  28.195  -6.521  0.00  0.00     0.012 C 
BRANCH  28  30
HETATM   30  C   UNK N   1      26.016  27.324  -6.046  0.00  0.00     0.002 C 
HETATM   31  C   UNK N   1      25.197  26.116  -5.626  0.00  0.00     0.005 C 
ENDBRANCH  28  30
ENDBRANCH   1  28
BRANCH   5  32
HETATM   32  C   UNK N   1      29.720  23.218  -3.923  0.00  0.00     0.026 C 
HETATM   33  C   UNK N   1      29.784  21.974  -4.842  0.00  0.00     0.046 C 
HETATM   34  C   UNK N   1      31.073  21.392  -4.453  0.00  0.00    -0.051 A 
HETATM   35  C   UNK N   1      31.809  20.463  -5.182  0.00  0.00     0.007 A 
HETATM   36  C   UNK N   1      31.523  21.890  -3.267  0.00  0.00    -0.051 A 
HETATM   37  C   UNK N   1      33.048  20.046  -4.672  0.00  0.00     0.001 A 
HETATM   38  C   UNK N   1      33.515  20.560  -3.448  0.00  0.00     0.001 A 
HETATM   39  C   UNK N   1      32.745  21.490  -2.732  0.00  0.00     0.007 A 
HETATM   40  C   UNK N   1      30.592  22.882  -2.692  0.00  0.00     0.046 C 
ENDBRANCH   5  32
TORSDOF 6
ENDMDL
MODEL 9
REMARK VINA RESULT:      -6.8     17.114     22.116
REMARK  6 active torsions:
REMARK  status: ('A' for Active; 'I' for Inactive)
REMARK    1  A    between atoms: C_2  and  C_3 
REMARK    2  A    between atoms: C_5  and  C_3 
REMARK    3  A    between atoms: C_9  and  C_31 
REMARK    4  A    between atoms: N_12  and  C_13 
REMARK    5  A    between atoms: C_13  and  C_14 
REMARK    6  A    between atoms: C_13  and  C_23 
REMARK       I    between atoms: C_23  and  N_25 
ROOT
HETATM    1  C   UNK N   1      27.606  24.837  -4.798  0.00  0.00     0.184 C 
HETATM    2  C   UNK N   1      27.843  24.230  -3.409  0.00  0.00     0.241 C 
HETATM    3  O   UNK N   1      26.914  24.115  -2.623  0.00  0.00    -0.271 OA
HETATM    4  N   UNK N   1      29.074  23.852  -3.015  0.00  0.00    -0.346 N 
HETATM    5  C   UNK N   1      30.147  23.752  -3.960  0.00  0.00     0.181 C 
HETATM    6  C   UNK N   1      30.069  24.841  -4.978  0.00  0.00     0.244 C 
HETATM    7  O   UNK N   1      31.127  25.290  -5.404  0.00  0.00    -0.271 OA
HETATM    8  N   UNK N   1      28.863  25.262  -5.486  0.00  0.00    -0.319 N 
HETATM    9  H   UNK N   1      29.238  23.643  -2.067  0.00  0.00     0.163 HD
ENDROOT
BRANCH   8  10
HETATM   10  C   UNK N   1      28.827  26.129  -6.699  0.00  0.00     0.215 C 
BRANCH  10  11
HETATM   11  C   UNK N   1      27.994  25.711  -7.901  0.00  0.00    -0.004 A 
HETATM   12  C   UNK N   1      26.880  26.489  -8.237  0.00  0.00     0.013 A 
HETATM   13  C   UNK N   1      26.099  26.166  -9.343  0.00  0.00     0.025 A 
HETATM   14  C   UNK N   1      26.442  25.063 -10.120  0.00  0.00     0.005 A 
HETATM   15  N   UNK N   1      27.534  24.315  -9.798  0.00  0.00    -0.363 N 
HETATM   16  C   UNK N   1      25.614  24.709 -11.302  0.00  0.00     0.068 C 
HETATM   17  C   UNK N   1      28.315  24.607  -8.718  0.00  0.00     0.014 A 
ATOM     18  HN  UNK N   1      27.774  23.513 -10.380  1.00  0.00     0.165 HD
HETATM   19  C   UNK N   1      29.501  23.752  -8.431  0.00  0.00     0.068 C 
ENDBRANCH  10  11
BRANCH  10  20
HETATM   20  C   UNK N   1      29.234  27.591  -6.597  0.00  0.00     0.247 C 
HETATM   21  O   UNK N   1      28.779  28.270  -5.685  0.00  0.00    -0.271 OA
HETATM   22  N   UNK N   1      30.128  28.148  -7.467  0.00  0.00    -0.346 N 
HETATM   23  C   UNK N   1      30.617  29.497  -7.263  0.00  0.00     0.152 C 
HETATM   24  C   UNK N   1      30.520  27.473  -8.686  0.00  0.00     0.152 C 
HETATM   25  C   UNK N   1      30.700  30.213  -8.612  0.00  0.00     0.187 C 
HETATM   26  O   UNK N   1      29.726  29.676  -9.473  0.00  0.00    -0.388 OA
HETATM   27  C   UNK N   1      30.186  28.400  -9.883  0.00  0.00     0.187 C 
ENDBRANCH  10  20
ENDBRANCH   8  10
BRANCH   1  28
HETATM   28  C   UNK N   1      26.595  25.994  -4.658  0.00  0.00     0.013 C 
HETATM   29  C   UNK N   1      26.608  26.776  -3.351  0.00  0.00     0.012 C 
BRANCH  28  30
HETATM   30  C   UNK N   1      25.226  25.738  -5.301  0.00  0.00     0.002 C 
HETATM   31  C   UNK N   1      24.489  26.998  -5.717  0.00  0.00     0.005 C 
ENDBRANCH  28  30
ENDBRANCH   1  28
BRANCH   5  32
HETATM   32  C   UNK N   1      30.076  22.359  -4.622  0.00  0.00     0.026 C 
HETATM   33  C   UNK N   1      31.076  22.272  -5.799  0.00  0.00     0.046 C 
HETATM   34  C   UNK N   1      32.286  21.801  -5.117  0.00  0.00    -0.051 A 
HETATM   35  C   UNK N   1      33.588  21.872  -5.607  0.00  0.00     0.007 A 
HETATM   36  C   UNK N   1      32.013  21.288  -3.884  0.00  0.00    -0.051 A 
HETATM   37  C   UNK N   1      34.632  21.407  -4.794  0.00  0.00     0.001 A 
HETATM   38  C   UNK N   1      34.352  20.878  -3.520  0.00  0.00     0.001 A 
HETATM   39  C   UNK N   1      33.028  20.813  -3.057  0.00  0.00     0.007 A 
HETATM   40  C   UNK N   1      30.572  21.345  -3.567  0.00  0.00     0.046 C 
ENDBRANCH   5  32
TORSDOF 6
ENDMDL
