MODEL 1
REMARK VINA RESULT:      -8.2      0.000      0.000
REMARK  6 active torsions:
REMARK  status: ('A' for Active; 'I' for Inactive)
REMARK    1  A    between atoms: C_6  and  C_7 
REMARK    2  A    between atoms: C_7  and  C_9 
REMARK    3  A    between atoms: C_12  and  C_16 
REMARK    4  A    between atoms: C_16  and  N_17 
REMARK    5  A    between atoms: C_18  and  N_26 
REMARK    6  A    between atoms: C_19  and  C_23 
REMARK       I    between atoms: C_23  and  N_25 
ROOT
HETATM    1  C   UNK N   1      29.823  17.160   7.378  0.00  0.00     0.058 A 
HETATM    2  C   UNK N   1      30.593  17.895   8.327  0.00  0.00     0.050 A 
HETATM    3  C   UNK N   1      31.972  17.715   8.398  0.00  0.00     0.033 A 
HETATM    4  C   UNK N   1      32.617  16.833   7.543  0.00  0.00    -0.035 A 
HETATM    5  C   UNK N   1      31.875  16.100   6.615  0.00  0.00     0.033 A 
HETATM    6  C   UNK N   1      30.489  16.231   6.541  0.00  0.00     0.050 A 
HETATM    7 Cl   UNK N   1      29.644  15.259   5.343  0.00  0.00    -0.083 Cl
HETATM    8 Cl   UNK N   1      29.882  18.972   9.528  0.00  0.00    -0.083 Cl
ENDROOT
BRANCH   4   9
HETATM    9  C   UNK N   1      34.108  16.728   7.590  0.00  0.00     0.187 C 
BRANCH   9  10
HETATM   10  N   UNK N   1      34.634  16.584   8.944  0.00  0.00    -0.254 N 
HETATM   11  C   UNK N   1      34.707  15.445   9.639  0.00  0.00     0.148 A 
HETATM   12  C   UNK N   1      35.160  15.756  10.899  0.00  0.00     0.159 A 
HETATM   13  N   UNK N   1      35.372  17.089  10.930  0.00  0.00    -0.276 N 
HETATM   14  N   UNK N   1      35.045  17.568   9.736  0.00  0.00    -0.018 NA
ATOM     15  HN  UNK N   1      35.718  17.627  11.724  1.00  0.00     0.184 HD
BRANCH  11  16
HETATM   16  N   UNK N   1      34.329  14.175   9.151  0.00  0.00    -0.382 N 
HETATM   17  H   UNK N   1      33.724  14.005   8.393  0.00  0.00     0.157 HD
HETATM   18  H   UNK N   1      34.703  13.389   9.609  0.00  0.00     0.157 HD
ENDBRANCH  11  16
BRANCH  12  19
HETATM   19  C   UNK N   1      35.350  14.855  12.047  0.00  0.00     0.270 C 
HETATM   20  O   UNK N   1      34.545  13.964  12.260  0.00  0.00    -0.266 OA
HETATM   21  N   UNK N   1      36.424  14.991  12.850  0.00  0.00    -0.365 N 
HETATM   22  H   UNK N   1      36.770  14.290  13.450  0.00  0.00     0.159 HD
HETATM   23  H   UNK N   1      36.898  15.853  12.837  0.00  0.00     0.159 HD
ENDBRANCH  12  19
ENDBRANCH   9  10
ENDBRANCH   4   9
BRANCH   1  24
HETATM   24  C   UNK N   1      28.343  17.350   7.273  0.00  0.00     0.195 C 
HETATM   25  O   UNK N   1      27.602  16.775   8.058  0.00  0.00    -0.287 OA
BRANCH  24  26
HETATM   26  C   UNK N   1      27.751  18.186   6.200  0.00  0.00     0.015 A 
HETATM   27  C   UNK N   1      27.039  17.583   5.150  0.00  0.00     0.017 A 
HETATM   28  C   UNK N   1      26.491  18.354   4.127  0.00  0.00     0.025 A 
HETATM   29  C   UNK N   1      26.644  19.738   4.144  0.00  0.00     0.034 A 
HETATM   30  C   UNK N   1      27.322  20.356   5.201  0.00  0.00     0.025 A 
HETATM   31 Cl   UNK N   1      25.995  20.696   2.833  0.00  0.00    -0.084 Cl
HETATM   32  C   UNK N   1      27.863  19.583   6.235  0.00  0.00     0.017 A 
ENDBRANCH  24  26
ENDBRANCH   1  24
TORSDOF 6
ENDMDL
MODEL 2
REMARK VINA RESULT:      -8.0      0.207      1.795
REMARK  6 active torsions:
REMARK  status: ('A' for Active; 'I' for Inactive)
REMARK    1  A    between atoms: C_6  and  C_7 
REMARK    2  A    between atoms: C_7  and  C_9 
REMARK    3  A    between atoms: C_12  and  C_16 
REMARK    4  A    between atoms: C_16  and  N_17 
REMARK    5  A    between atoms: C_18  and  N_26 
REMARK    6  A    between atoms: C_19  and  C_23 
REMARK       I    between atoms: C_23  and  N_25 
ROOT
HETATM    1  C   UNK N   1      29.881  17.248   7.360  0.00  0.00     0.058 A 
HETATM    2  C   UNK N   1      30.568  16.452   6.396  0.00  0.00     0.050 A 
HETATM    3  C   UNK N   1      31.955  16.333   6.449  0.00  0.00     0.033 A 
HETATM    4  C   UNK N   1      32.684  16.973   7.442  0.00  0.00    -0.035 A 
HETATM    5  C   UNK N   1      32.026  17.763   8.386  0.00  0.00     0.033 A 
HETATM    6  C   UNK N   1      30.643  17.931   8.340  0.00  0.00     0.050 A 
HETATM    7 Cl   UNK N   1      29.908  18.951   9.570  0.00  0.00    -0.083 Cl
HETATM    8 Cl   UNK N   1      29.767  15.669   5.035  0.00  0.00    -0.083 Cl
ENDROOT
BRANCH   4   9
HETATM    9  C   UNK N   1      34.162  16.756   7.518  0.00  0.00     0.187 C 
BRANCH   9  10
HETATM   10  N   UNK N   1      34.654  16.614   8.886  0.00  0.00    -0.254 N 
HETATM   11  C   UNK N   1      34.722  15.473   9.580  0.00  0.00     0.148 A 
HETATM   12  C   UNK N   1      35.137  15.785  10.852  0.00  0.00     0.159 A 
HETATM   13  N   UNK N   1      35.335  17.120  10.892  0.00  0.00    -0.276 N 
HETATM   14  N   UNK N   1      35.034  17.599   9.691  0.00  0.00    -0.018 NA
ATOM     15  HN  UNK N   1      35.654  17.660  11.696  1.00  0.00     0.184 HD
BRANCH  11  16
HETATM   16  N   UNK N   1      34.369  14.201   9.078  0.00  0.00    -0.382 N 
HETATM   17  H   UNK N   1      34.536  13.875   8.164  0.00  0.00     0.157 HD
HETATM   18  H   UNK N   1      33.917  13.585   9.698  0.00  0.00     0.157 HD
ENDBRANCH  11  16
BRANCH  12  19
HETATM   19  C   UNK N   1      35.308  14.884  12.002  0.00  0.00     0.270 C 
HETATM   20  O   UNK N   1      34.529  13.960  12.170  0.00  0.00    -0.266 OA
HETATM   21  N   UNK N   1      36.336  15.054  12.856  0.00  0.00    -0.365 N 
HETATM   22  H   UNK N   1      36.680  14.362  13.467  0.00  0.00     0.159 HD
HETATM   23  H   UNK N   1      36.776  15.934  12.871  0.00  0.00     0.159 HD
ENDBRANCH  12  19
ENDBRANCH   9  10
ENDBRANCH   4   9
BRANCH   1  24
HETATM   24  C   UNK N   1      28.391  17.377   7.332  0.00  0.00     0.195 C 
HETATM   25  O   UNK N   1      27.717  16.793   8.169  0.00  0.00    -0.287 OA
BRANCH  24  26
HETATM   26  C   UNK N   1      27.709  18.162   6.274  0.00  0.00     0.015 A 
HETATM   27  C   UNK N   1      26.811  17.530   5.398  0.00  0.00     0.017 A 
HETATM   28  C   UNK N   1      26.174  18.251   4.390  0.00  0.00     0.025 A 
HETATM   29  C   UNK N   1      26.425  19.614   4.249  0.00  0.00     0.034 A 
HETATM   30  C   UNK N   1      27.291  20.264   5.135  0.00  0.00     0.025 A 
HETATM   31 Cl   UNK N   1      25.660  20.505   2.952  0.00  0.00    -0.084 Cl
HETATM   32  C   UNK N   1      27.922  19.543   6.155  0.00  0.00     0.017 A 
ENDBRANCH  24  26
ENDBRANCH   1  24
TORSDOF 6
ENDMDL
MODEL 3
REMARK VINA RESULT:      -7.8      6.210     11.460
REMARK  6 active torsions:
REMARK  status: ('A' for Active; 'I' for Inactive)
REMARK    1  A    between atoms: C_6  and  C_7 
REMARK    2  A    between atoms: C_7  and  C_9 
REMARK    3  A    between atoms: C_12  and  C_16 
REMARK    4  A    between atoms: C_16  and  N_17 
REMARK    5  A    between atoms: C_18  and  N_26 
REMARK    6  A    between atoms: C_19  and  C_23 
REMARK       I    between atoms: C_23  and  N_25 
ROOT
HETATM    1  C   UNK N   1      35.343  12.972  14.925  0.00  0.00     0.058 A 
HETATM    2  C   UNK N   1      36.273  13.980  14.532  0.00  0.00     0.050 A 
HETATM    3  C   UNK N   1      36.504  14.230  13.182  0.00  0.00     0.033 A 
HETATM    4  C   UNK N   1      35.828  13.516  12.203  0.00  0.00    -0.035 A 
HETATM    5  C   UNK N   1      34.922  12.520  12.571  0.00  0.00     0.033 A 
HETATM    6  C   UNK N   1      34.694  12.221  13.914  0.00  0.00     0.050 A 
HETATM    7 Cl   UNK N   1      33.539  10.945  14.276  0.00  0.00    -0.083 Cl
HETATM    8 Cl   UNK N   1      37.261  14.887  15.676  0.00  0.00    -0.083 Cl
ENDROOT
BRANCH   4   9
HETATM    9  C   UNK N   1      36.038  13.869  10.764  0.00  0.00     0.187 C 
BRANCH   9  10
HETATM   10  N   UNK N   1      35.449  15.152  10.393  0.00  0.00    -0.254 N 
HETATM   11  C   UNK N   1      34.920  15.456   9.204  0.00  0.00     0.148 A 
HETATM   12  C   UNK N   1      34.577  16.787   9.230  0.00  0.00     0.159 A 
HETATM   13  N   UNK N   1      34.891  17.257  10.457  0.00  0.00    -0.276 N 
HETATM   14  N   UNK N   1      35.419  16.249  11.141  0.00  0.00    -0.018 NA
ATOM     15  HN  UNK N   1      34.750  18.209  10.794  1.00  0.00     0.184 HD
BRANCH  11  16
HETATM   16  N   UNK N   1      34.800  14.559   8.120  0.00  0.00    -0.382 N 
HETATM   17  H   UNK N   1      34.370  13.674   8.148  0.00  0.00     0.157 HD
HETATM   18  H   UNK N   1      35.182  14.844   7.259  0.00  0.00     0.157 HD
ENDBRANCH  11  16
BRANCH  12  19
HETATM   19  C   UNK N   1      34.015  17.605   8.144  0.00  0.00     0.270 C 
HETATM   20  O   UNK N   1      34.681  17.831   7.147  0.00  0.00    -0.266 OA
HETATM   21  N   UNK N   1      32.758  18.084   8.231  0.00  0.00    -0.365 N 
HETATM   22  H   UNK N   1      32.220  18.391   7.465  0.00  0.00     0.159 HD
HETATM   23  H   UNK N   1      32.348  18.131   9.124  0.00  0.00     0.159 HD
ENDBRANCH  12  19
ENDBRANCH   9  10
ENDBRANCH   4   9
BRANCH   1  24
HETATM   24  C   UNK N   1      35.067  12.698  16.368  0.00  0.00     0.195 C 
HETATM   25  O   UNK N   1      34.389  13.484  17.016  0.00  0.00    -0.287 OA
BRANCH  24  26
HETATM   26  C   UNK N   1      35.643  11.511  17.048  0.00  0.00     0.015 A 
HETATM   27  C   UNK N   1      36.416  10.591  16.321  0.00  0.00     0.017 A 
HETATM   28  C   UNK N   1      36.951   9.464  16.942  0.00  0.00     0.025 A 
HETATM   29  C   UNK N   1      36.722   9.246  18.298  0.00  0.00     0.034 A 
HETATM   30  C   UNK N   1      35.982  10.170  19.043  0.00  0.00     0.025 A 
HETATM   31 Cl   UNK N   1      37.355   7.805  19.062  0.00  0.00    -0.084 Cl
HETATM   32  C   UNK N   1      35.454  11.310  18.423  0.00  0.00     0.017 A 
ENDBRANCH  24  26
ENDBRANCH   1  24
TORSDOF 6
ENDMDL
MODEL 4
REMARK VINA RESULT:      -7.7      3.461      5.310
REMARK  6 active torsions:
REMARK  status: ('A' for Active; 'I' for Inactive)
REMARK    1  A    between atoms: C_6  and  C_7 
REMARK    2  A    between atoms: C_7  and  C_9 
REMARK    3  A    between atoms: C_12  and  C_16 
REMARK    4  A    between atoms: C_16  and  N_17 
REMARK    5  A    between atoms: C_18  and  N_26 
REMARK    6  A    between atoms: C_19  and  C_23 
REMARK       I    between atoms: C_23  and  N_25 
ROOT
HETATM    1  C   UNK N   1      26.769  19.141   4.629  0.00  0.00     0.058 A 
HETATM    2  C   UNK N   1      27.109  17.774   4.405  0.00  0.00     0.050 A 
HETATM    3  C   UNK N   1      27.868  17.080   5.344  0.00  0.00     0.033 A 
HETATM    4  C   UNK N   1      28.291  17.698   6.512  0.00  0.00    -0.035 A 
HETATM    5  C   UNK N   1      27.973  19.038   6.741  0.00  0.00     0.033 A 
HETATM    6  C   UNK N   1      27.245  19.772   5.805  0.00  0.00     0.050 A 
HETATM    7 Cl   UNK N   1      26.901  21.455   6.182  0.00  0.00    -0.083 Cl
HETATM    8 Cl   UNK N   1      26.713  16.906   2.922  0.00  0.00    -0.083 Cl
ENDROOT
BRANCH   4   9
HETATM    9  C   UNK N   1      29.031  16.899   7.536  0.00  0.00     0.187 C 
BRANCH   9  10
HETATM   10  N   UNK N   1      30.328  17.470   7.888  0.00  0.00    -0.254 N 
HETATM   11  C   UNK N   1      31.457  17.342   7.184  0.00  0.00     0.148 A 
HETATM   12  C   UNK N   1      32.465  17.933   7.906  0.00  0.00     0.159 A 
HETATM   13  N   UNK N   1      31.912  18.431   9.033  0.00  0.00    -0.276 N 
HETATM   14  N   UNK N   1      30.618  18.137   8.999  0.00  0.00    -0.018 NA
ATOM     15  HN  UNK N   1      32.398  18.938   9.772  1.00  0.00     0.184 HD
BRANCH  11  16
HETATM   16  N   UNK N   1      31.566  16.665   5.949  0.00  0.00    -0.382 N 
HETATM   17  H   UNK N   1      32.106  15.860   5.777  0.00  0.00     0.157 HD
HETATM   18  H   UNK N   1      31.055  17.032   5.192  0.00  0.00     0.157 HD
ENDBRANCH  11  16
BRANCH  12  19
HETATM   19  C   UNK N   1      33.899  18.001   7.583  0.00  0.00     0.270 C 
HETATM   20  O   UNK N   1      34.278  17.762   6.448  0.00  0.00    -0.266 OA
HETATM   21  N   UNK N   1      34.796  18.353   8.526  0.00  0.00    -0.365 N 
HETATM   22  H   UNK N   1      35.705  18.684   8.341  0.00  0.00     0.159 HD
HETATM   23  H   UNK N   1      34.523  18.272   9.468  0.00  0.00     0.159 HD
ENDBRANCH  12  19
ENDBRANCH   9  10
ENDBRANCH   4   9
BRANCH   1  24
HETATM   24  C   UNK N   1      25.942  19.901   3.642  0.00  0.00     0.195 C 
HETATM   25  O   UNK N   1      26.475  20.723   2.910  0.00  0.00    -0.287 OA
BRANCH  24  26
HETATM   26  C   UNK N   1      24.472  19.713   3.567  0.00  0.00     0.015 A 
HETATM   27  C   UNK N   1      23.693  20.569   2.771  0.00  0.00     0.017 A 
HETATM   28  C   UNK N   1      22.310  20.414   2.702  0.00  0.00     0.025 A 
HETATM   29  C   UNK N   1      21.689  19.399   3.426  0.00  0.00     0.034 A 
HETATM   30  C   UNK N   1      22.455  18.519   4.198  0.00  0.00     0.025 A 
HETATM   31 Cl   UNK N   1      19.948  19.240   3.374  0.00  0.00    -0.084 Cl
HETATM   32  C   UNK N   1      23.846  18.665   4.258  0.00  0.00     0.017 A 
ENDBRANCH  24  26
ENDBRANCH   1  24
TORSDOF 6
ENDMDL
MODEL 5
REMARK VINA RESULT:      -7.6      6.024     11.734
REMARK  6 active torsions:
REMARK  status: ('A' for Active; 'I' for Inactive)
REMARK    1  A    between atoms: C_6  and  C_7 
REMARK    2  A    between atoms: C_7  and  C_9 
REMARK    3  A    between atoms: C_12  and  C_16 
REMARK    4  A    between atoms: C_16  and  N_17 
REMARK    5  A    between atoms: C_18  and  N_26 
REMARK    6  A    between atoms: C_19  and  C_23 
REMARK       I    between atoms: C_23  and  N_25 
ROOT
HETATM    1  C   UNK N   1      35.426  12.971  15.248  0.00  0.00     0.058 A 
HETATM    2  C   UNK N   1      34.737  12.260  14.221  0.00  0.00     0.050 A 
HETATM    3  C   UNK N   1      34.948  12.584  12.884  0.00  0.00     0.033 A 
HETATM    4  C   UNK N   1      35.836  13.590  12.529  0.00  0.00    -0.035 A 
HETATM    5  C   UNK N   1      36.511  14.301  13.523  0.00  0.00     0.033 A 
HETATM    6  C   UNK N   1      36.296  14.025  14.873  0.00  0.00     0.050 A 
HETATM    7 Cl   UNK N   1      37.189  14.980  16.049  0.00  0.00    -0.083 Cl
HETATM    8 Cl   UNK N   1      33.516  11.030  14.545  0.00  0.00    -0.083 Cl
ENDROOT
BRANCH   4   9
HETATM    9  C   UNK N   1      36.102  13.854  11.081  0.00  0.00     0.187 C 
BRANCH   9  10
HETATM   10  N   UNK N   1      35.547  15.122  10.615  0.00  0.00    -0.254 N 
HETATM   11  C   UNK N   1      34.465  15.267   9.843  0.00  0.00     0.148 A 
HETATM   12  C   UNK N   1      34.344  16.603   9.546  0.00  0.00     0.159 A 
HETATM   13  N   UNK N   1      35.354  17.245  10.171  0.00  0.00    -0.276 N 
HETATM   14  N   UNK N   1      36.069  16.327  10.809  0.00  0.00    -0.018 NA
ATOM     15  HN  UNK N   1      35.535  18.249  10.153  1.00  0.00     0.184 HD
BRANCH  11  16
HETATM   16  N   UNK N   1      33.649  14.207   9.390  0.00  0.00    -0.382 N 
HETATM   17  H   UNK N   1      32.666  14.185   9.413  0.00  0.00     0.157 HD
HETATM   18  H   UNK N   1      34.106  13.420   9.016  0.00  0.00     0.157 HD
ENDBRANCH  11  16
BRANCH  12  19
HETATM   19  C   UNK N   1      33.350  17.258   8.681  0.00  0.00     0.270 C 
HETATM   20  O   UNK N   1      32.192  16.873   8.686  0.00  0.00    -0.266 OA
HETATM   21  N   UNK N   1      33.703  18.300   7.902  0.00  0.00    -0.365 N 
HETATM   22  H   UNK N   1      33.074  18.953   7.518  0.00  0.00     0.159 HD
HETATM   23  H   UNK N   1      34.659  18.417   7.702  0.00  0.00     0.159 HD
ENDBRANCH  12  19
ENDBRANCH   9  10
ENDBRANCH   4   9
BRANCH   1  24
HETATM   24  C   UNK N   1      35.227  12.629  16.690  0.00  0.00     0.195 C 
HETATM   25  O   UNK N   1      34.618  13.402  17.417  0.00  0.00    -0.287 OA
BRANCH  24  26
HETATM   26  C   UNK N   1      35.798  11.388  17.269  0.00  0.00     0.015 A 
HETATM   27  C   UNK N   1      35.619  11.102  18.633  0.00  0.00     0.017 A 
HETATM   28  C   UNK N   1      36.162   9.949  19.195  0.00  0.00     0.025 A 
HETATM   29  C   UNK N   1      36.888   9.066  18.399  0.00  0.00     0.034 A 
HETATM   30  C   UNK N   1      37.048   9.321  17.033  0.00  0.00     0.025 A 
HETATM   31 Cl   UNK N   1      37.609   7.644  19.119  0.00  0.00    -0.084 Cl
HETATM   32  C   UNK N   1      36.492  10.473  16.464  0.00  0.00     0.017 A 
ENDBRANCH  24  26
ENDBRANCH   1  24
TORSDOF 6
ENDMDL
MODEL 6
REMARK VINA RESULT:      -7.4      8.075     11.784
REMARK  6 active torsions:
REMARK  status: ('A' for Active; 'I' for Inactive)
REMARK    1  A    between atoms: C_6  and  C_7 
REMARK    2  A    between atoms: C_7  and  C_9 
REMARK    3  A    between atoms: C_12  and  C_16 
REMARK    4  A    between atoms: C_16  and  N_17 
REMARK    5  A    between atoms: C_18  and  N_26 
REMARK    6  A    between atoms: C_19  and  C_23 
REMARK       I    between atoms: C_23  and  N_25 
ROOT
HETATM    1  C   UNK N   1      25.657  18.286   4.319  0.00  0.00     0.058 A 
HETATM    2  C   UNK N   1      25.191  19.467   3.668  0.00  0.00     0.050 A 
HETATM    3  C   UNK N   1      23.825  19.690   3.521  0.00  0.00     0.033 A 
HETATM    4  C   UNK N   1      22.900  18.781   4.013  0.00  0.00    -0.035 A 
HETATM    5  C   UNK N   1      23.341  17.616   4.644  0.00  0.00     0.033 A 
HETATM    6  C   UNK N   1      24.703  17.345   4.777  0.00  0.00     0.050 A 
HETATM    7 Cl   UNK N   1      25.158  15.849   5.581  0.00  0.00    -0.083 Cl
HETATM    8 Cl   UNK N   1      26.263  20.649   2.918  0.00  0.00    -0.083 Cl
ENDROOT
BRANCH   4   9
HETATM    9  C   UNK N   1      21.441  19.093   3.912  0.00  0.00     0.187 C 
BRANCH   9  10
HETATM   10  N   UNK N   1      20.833  18.616   2.674  0.00  0.00    -0.254 N 
HETATM   11  C   UNK N   1      20.271  17.418   2.488  0.00  0.00     0.148 A 
HETATM   12  C   UNK N   1      19.918  17.326   1.163  0.00  0.00     0.159 A 
HETATM   13  N   UNK N   1      20.260  18.493   0.576  0.00  0.00    -0.276 N 
HETATM   14  N   UNK N   1      20.813  19.257   1.510  0.00  0.00    -0.018 NA
ATOM     15  HN  UNK N   1      20.120  18.741  -0.404  1.00  0.00     0.184 HD
BRANCH  11  16
HETATM   16  N   UNK N   1      20.130  16.429   3.486  0.00  0.00    -0.382 N 
HETATM   17  H   UNK N   1      19.344  15.851   3.620  0.00  0.00     0.157 HD
HETATM   18  H   UNK N   1      20.887  16.306   4.103  0.00  0.00     0.157 HD
ENDBRANCH  11  16
BRANCH  12  19
HETATM   19  C   UNK N   1      19.322  16.182   0.456  0.00  0.00     0.270 C 
HETATM   20  O   UNK N   1      19.855  15.086   0.516  0.00  0.00    -0.266 OA
HETATM   21  N   UNK N   1      18.174  16.329  -0.236  0.00  0.00    -0.365 N 
HETATM   22  H   UNK N   1      17.576  15.591  -0.496  0.00  0.00     0.159 HD
HETATM   23  H   UNK N   1      17.915  17.240  -0.500  0.00  0.00     0.159 HD
ENDBRANCH  12  19
ENDBRANCH   9  10
ENDBRANCH   4   9
BRANCH   1  24
HETATM   24  C   UNK N   1      27.120  18.034   4.503  0.00  0.00     0.195 C 
HETATM   25  O   UNK N   1      27.788  17.631   3.560  0.00  0.00    -0.287 OA
BRANCH  24  26
HETATM   26  C   UNK N   1      27.770  18.215   5.824  0.00  0.00     0.015 A 
HETATM   27  C   UNK N   1      28.616  17.217   6.334  0.00  0.00     0.017 A 
HETATM   28  C   UNK N   1      29.221  17.367   7.580  0.00  0.00     0.025 A 
HETATM   29  C   UNK N   1      28.990  18.518   8.330  0.00  0.00     0.034 A 
HETATM   30  C   UNK N   1      28.175  19.535   7.820  0.00  0.00     0.025 A 
HETATM   31 Cl   UNK N   1      29.713  18.679   9.914  0.00  0.00    -0.084 Cl
HETATM   32  C   UNK N   1      27.576  19.391   6.563  0.00  0.00     0.017 A 
ENDBRANCH  24  26
ENDBRANCH   1  24
TORSDOF 6
ENDMDL
MODEL 7
REMARK VINA RESULT:      -7.1      5.984     11.170
REMARK  6 active torsions:
REMARK  status: ('A' for Active; 'I' for Inactive)
REMARK    1  A    between atoms: C_6  and  C_7 
REMARK    2  A    between atoms: C_7  and  C_9 
REMARK    3  A    between atoms: C_12  and  C_16 
REMARK    4  A    between atoms: C_16  and  N_17 
REMARK    5  A    between atoms: C_18  and  N_26 
REMARK    6  A    between atoms: C_19  and  C_23 
REMARK       I    between atoms: C_23  and  N_25 
ROOT
HETATM    1  C   UNK N   1      34.804  11.752  13.529  0.00  0.00     0.058 A 
HETATM    2  C   UNK N   1      34.702  11.438  12.141  0.00  0.00     0.050 A 
HETATM    3  C   UNK N   1      35.299  12.264  11.192  0.00  0.00     0.033 A 
HETATM    4  C   UNK N   1      36.009  13.391  11.578  0.00  0.00    -0.035 A 
HETATM    5  C   UNK N   1      36.110  13.717  12.932  0.00  0.00     0.033 A 
HETATM    6  C   UNK N   1      35.495  12.931  13.906  0.00  0.00     0.050 A 
HETATM    7 Cl   UNK N   1      35.675  13.428  15.583  0.00  0.00    -0.083 Cl
HETATM    8 Cl   UNK N   1      33.751  10.090  11.519  0.00  0.00    -0.083 Cl
ENDROOT
BRANCH   4   9
HETATM    9  C   UNK N   1      36.707  14.208  10.538  0.00  0.00     0.187 C 
BRANCH   9  10
HETATM   10  N   UNK N   1      36.003  15.443  10.206  0.00  0.00    -0.254 N 
HETATM   11  C   UNK N   1      35.207  15.631   9.148  0.00  0.00     0.148 A 
HETATM   12  C   UNK N   1      34.831  16.953   9.142  0.00  0.00     0.159 A 
HETATM   13  N   UNK N   1      35.398  17.535  10.220  0.00  0.00    -0.276 N 
HETATM   14  N   UNK N   1      36.104  16.602  10.847  0.00  0.00    -0.018 NA
ATOM     15  HN  UNK N   1      35.302  18.512  10.500  1.00  0.00     0.184 HD
BRANCH  11  16
HETATM   16  N   UNK N   1      34.878  14.638   8.200  0.00  0.00    -0.382 N 
HETATM   17  H   UNK N   1      34.376  14.781   7.365  0.00  0.00     0.157 HD
HETATM   18  H   UNK N   1      35.177  13.720   8.391  0.00  0.00     0.157 HD
ENDBRANCH  11  16
BRANCH  12  19
HETATM   19  C   UNK N   1      34.008  17.661   8.149  0.00  0.00     0.270 C 
HETATM   20  O   UNK N   1      34.517  18.073   7.120  0.00  0.00    -0.266 OA
HETATM   21  N   UNK N   1      32.687  17.833   8.356  0.00  0.00    -0.365 N 
HETATM   22  H   UNK N   1      32.030  18.037   7.651  0.00  0.00     0.159 HD
HETATM   23  H   UNK N   1      32.354  17.749   9.278  0.00  0.00     0.159 HD
ENDBRANCH  12  19
ENDBRANCH   9  10
ENDBRANCH   4   9
BRANCH   1  24
HETATM   24  C   UNK N   1      34.186  10.871  14.566  0.00  0.00     0.195 C 
HETATM   25  O   UNK N   1      32.968  10.838  14.685  0.00  0.00    -0.287 OA
BRANCH  24  26
HETATM   26  C   UNK N   1      35.024  10.070  15.491  0.00  0.00     0.015 A 
HETATM   27  C   UNK N   1      36.109   9.329  14.994  0.00  0.00     0.017 A 
HETATM   28  C   UNK N   1      36.896   8.559  15.848  0.00  0.00     0.025 A 
HETATM   29  C   UNK N   1      36.610   8.524  17.211  0.00  0.00     0.034 A 
HETATM   30  C   UNK N   1      35.553   9.282  17.726  0.00  0.00     0.025 A 
HETATM   31 Cl   UNK N   1      37.571   7.518  18.271  0.00  0.00    -0.084 Cl
HETATM   32  C   UNK N   1      34.769  10.066  16.870  0.00  0.00     0.017 A 
ENDBRANCH  24  26
ENDBRANCH   1  24
TORSDOF 6
ENDMDL
MODEL 8
REMARK VINA RESULT:      -6.9      9.076     11.991
REMARK  6 active torsions:
REMARK  status: ('A' for Active; 'I' for Inactive)
REMARK    1  A    between atoms: C_6  and  C_7 
REMARK    2  A    between atoms: C_7  and  C_9 
REMARK    3  A    between atoms: C_12  and  C_16 
REMARK    4  A    between atoms: C_16  and  N_17 
REMARK    5  A    between atoms: C_18  and  N_26 
REMARK    6  A    between atoms: C_19  and  C_23 
REMARK       I    between atoms: C_23  and  N_25 
ROOT
HETATM    1  C   UNK N   1      23.134  13.768   6.929  0.00  0.00     0.058 A 
HETATM    2  C   UNK N   1      24.375  13.958   6.253  0.00  0.00     0.050 A 
HETATM    3  C   UNK N   1      24.649  15.169   5.622  0.00  0.00     0.033 A 
HETATM    4  C   UNK N   1      23.731  16.209   5.653  0.00  0.00    -0.035 A 
HETATM    5  C   UNK N   1      22.508  16.034   6.304  0.00  0.00     0.033 A 
HETATM    6  C   UNK N   1      22.188  14.822   6.915  0.00  0.00     0.050 A 
HETATM    7 Cl   UNK N   1      20.620  14.699   7.702  0.00  0.00    -0.083 Cl
HETATM    8 Cl   UNK N   1      25.581  12.686   6.062  0.00  0.00    -0.083 Cl
ENDROOT
BRANCH   4   9
HETATM    9  C   UNK N   1      24.093  17.524   5.039  0.00  0.00     0.187 C 
BRANCH   9  10
HETATM   10  N   UNK N   1      23.046  18.065   4.176  0.00  0.00    -0.254 N 
HETATM   11  C   UNK N   1      23.075  19.251   3.559  0.00  0.00     0.148 A 
HETATM   12  C   UNK N   1      21.862  19.424   2.938  0.00  0.00     0.159 A 
HETATM   13  N   UNK N   1      21.127  18.317   3.178  0.00  0.00    -0.276 N 
HETATM   14  N   UNK N   1      21.865  17.510   3.931  0.00  0.00    -0.018 NA
ATOM     15  HN  UNK N   1      20.180  18.135   2.844  1.00  0.00     0.184 HD
BRANCH  11  16
HETATM   16  N   UNK N   1      24.155  20.158   3.605  0.00  0.00    -0.382 N 
HETATM   17  H   UNK N   1      24.806  20.319   2.884  0.00  0.00     0.157 HD
HETATM   18  H   UNK N   1      24.268  20.678   4.434  0.00  0.00     0.157 HD
ENDBRANCH  11  16
BRANCH  12  19
HETATM   19  C   UNK N   1      21.384  20.592   2.181  0.00  0.00     0.270 C 
HETATM   20  O   UNK N   1      21.734  21.713   2.510  0.00  0.00    -0.266 OA
HETATM   21  N   UNK N   1      20.584  20.430   1.108  0.00  0.00    -0.365 N 
HETATM   22  H   UNK N   1      20.448  21.103   0.402  0.00  0.00     0.159 HD
HETATM   23  H   UNK N   1      20.100  19.578   1.025  0.00  0.00     0.159 HD
ENDBRANCH  12  19
ENDBRANCH   9  10
ENDBRANCH   4   9
BRANCH   1  24
HETATM   24  C   UNK N   1      22.826  12.482   7.626  0.00  0.00     0.195 C 
HETATM   25  O   UNK N   1      22.422  11.524   6.981  0.00  0.00    -0.287 OA
BRANCH  24  26
HETATM   26  C   UNK N   1      22.953  12.358   9.099  0.00  0.00     0.015 A 
HETATM   27  C   UNK N   1      24.224  12.280   9.691  0.00  0.00     0.017 A 
HETATM   28  C   UNK N   1      24.359  12.148  11.072  0.00  0.00     0.025 A 
HETATM   29  C   UNK N   1      23.224  12.096  11.878  0.00  0.00     0.034 A 
HETATM   30  C   UNK N   1      21.952  12.206  11.306  0.00  0.00     0.025 A 
HETATM   31 Cl   UNK N   1      23.398  11.881  13.605  0.00  0.00    -0.084 Cl
HETATM   32  C   UNK N   1      21.816  12.351   9.920  0.00  0.00     0.017 A 
ENDBRANCH  24  26
ENDBRANCH   1  24
TORSDOF 6
ENDMDL
MODEL 9
REMARK VINA RESULT:      -6.9      8.461     13.360
REMARK  6 active torsions:
REMARK  status: ('A' for Active; 'I' for Inactive)
REMARK    1  A    between atoms: C_6  and  C_7 
REMARK    2  A    between atoms: C_7  and  C_9 
REMARK    3  A    between atoms: C_12  and  C_16 
REMARK    4  A    between atoms: C_16  and  N_17 
REMARK    5  A    between atoms: C_18  and  N_26 
REMARK    6  A    between atoms: C_19  and  C_23 
REMARK       I    between atoms: C_23  and  N_25 
ROOT
HETATM    1  C   UNK N   1      35.767  11.181  18.329  0.00  0.00     0.058 A 
HETATM    2  C   UNK N   1      36.268  10.754  17.063  0.00  0.00     0.050 A 
HETATM    3  C   UNK N   1      36.316  11.645  15.994  0.00  0.00     0.033 A 
HETATM    4  C   UNK N   1      35.893  12.957  16.145  0.00  0.00    -0.035 A 
HETATM    5  C   UNK N   1      35.391  13.387  17.375  0.00  0.00     0.033 A 
HETATM    6  C   UNK N   1      35.296  12.511  18.456  0.00  0.00     0.050 A 
HETATM    7 Cl   UNK N   1      34.645  13.146  19.961  0.00  0.00    -0.083 Cl
HETATM    8 Cl   UNK N   1      36.746   9.092  16.719  0.00  0.00    -0.083 Cl
ENDROOT
BRANCH   4   9
HETATM    9  C   UNK N   1      36.037  13.909  15.000  0.00  0.00     0.187 C 
BRANCH   9  10
HETATM   10  N   UNK N   1      35.499  13.389  13.746  0.00  0.00    -0.254 N 
HETATM   11  C   UNK N   1      35.712  13.902  12.530  0.00  0.00     0.148 A 
HETATM   12  C   UNK N   1      34.945  13.189  11.640  0.00  0.00     0.159 A 
HETATM   13  N   UNK N   1      34.296  12.237  12.343  0.00  0.00    -0.276 N 
HETATM   14  N   UNK N   1      34.646  12.380  13.616  0.00  0.00    -0.018 NA
ATOM     15  HN  UNK N   1      33.654  11.539  11.967  1.00  0.00     0.184 HD
BRANCH  11  16
HETATM   16  N   UNK N   1      36.541  15.011  12.256  0.00  0.00    -0.382 N 
HETATM   17  H   UNK N   1      36.319  15.955  12.427  0.00  0.00     0.157 HD
HETATM   18  H   UNK N   1      37.421  14.824  11.857  0.00  0.00     0.157 HD
ENDBRANCH  11  16
BRANCH  12  19
HETATM   19  C   UNK N   1      34.789  13.407  10.193  0.00  0.00     0.270 C 
HETATM   20  O   UNK N   1      35.746  13.761   9.525  0.00  0.00    -0.266 OA
HETATM   21  N   UNK N   1      33.601  13.191   9.594  0.00  0.00    -0.365 N 
HETATM   22  H   UNK N   1      33.477  13.045   8.628  0.00  0.00     0.159 HD
HETATM   23  H   UNK N   1      32.799  13.179  10.164  0.00  0.00     0.159 HD
ENDBRANCH  12  19
ENDBRANCH   9  10
ENDBRANCH   4   9
BRANCH   1  24
HETATM   24  C   UNK N   1      35.721  10.246  19.494  0.00  0.00     0.195 C 
HETATM   25  O   UNK N   1      36.721  10.081  20.179  0.00  0.00    -0.287 OA
BRANCH  24  26
HETATM   26  C   UNK N   1      34.494   9.473  19.810  0.00  0.00     0.015 A 
HETATM   27  C   UNK N   1      34.175   8.325  19.065  0.00  0.00     0.017 A 
HETATM   28  C   UNK N   1      33.019   7.598  19.340  0.00  0.00     0.025 A 
HETATM   29  C   UNK N   1      32.170   8.007  20.366  0.00  0.00     0.034 A 
HETATM   30  C   UNK N   1      32.491   9.129  21.137  0.00  0.00     0.025 A 
HETATM   31 Cl   UNK N   1      30.695   7.118  20.674  0.00  0.00    -0.084 Cl
HETATM   32  C   UNK N   1      33.659   9.853  20.870  0.00  0.00     0.017 A 
ENDBRANCH  24  26
ENDBRANCH   1  24
TORSDOF 6
ENDMDL
