REMARK  6 active torsions:
REMARK  status: ('A' for Active; 'I' for Inactive)
REMARK    1  A    between atoms: C_6  and  N_8 
REMARK    2  A    between atoms: C_10  and  C_30 
REMARK    3  A    between atoms: C_12  and  C_15 
REMARK       I    between atoms: C_15  and  N_17 
REMARK    4  A    between atoms: N_17  and  C_18 
REMARK    5  A    between atoms: C_18  and  C_19 
REMARK    6  A    between atoms: C_22  and  S_26 
ROOT
HETATM    1  N   UNK N   1       4.054  -3.132  -0.104  0.00  0.00    -0.281 N 
HETATM    2  C   UNK N   1       4.203  -4.520   0.016  0.00  0.00     0.029 A 
HETATM    3  C   UNK N   1       3.060  -5.373   0.095  0.00  0.00     0.016 A 
HETATM    4  C   UNK N   1       1.809  -4.801   0.057  0.00  0.00     0.038 A 
HETATM    5  C   UNK N   1       1.622  -3.451  -0.087  0.00  0.00     0.101 A 
HETATM    6  C   UNK N   1       2.752  -2.609  -0.175  0.00  0.00     0.268 A 
HETATM    7  O   UNK N   1       2.570  -1.408  -0.288  0.00  0.00    -0.267 OA
HETATM    8  C   UNK N   1       5.555  -5.164   0.072  0.00  0.00     0.070 C 
ENDROOT
BRANCH   5   9
HETATM    9  C   UNK N   1       0.224  -2.946  -0.105  0.00  0.00     0.257 C 
HETATM   10  O   UNK N   1      -0.699  -3.673   0.239  0.00  0.00    -0.267 OA
HETATM   11  N   UNK N   1      -0.019  -1.672  -0.464  0.00  0.00    -0.351 N 
HETATM   12  H   UNK N   1       0.725  -1.151  -0.845  0.00  0.00     0.163 HD
BRANCH  11  13
HETATM   13  C   UNK N   1      -1.294  -1.024  -0.328  0.00  0.00     0.179 C 
BRANCH  13  14
HETATM   14  C   UNK N   1      -0.984   0.420  -0.190  0.00  0.00     0.026 A 
HETATM   15  C   UNK N   1      -1.650   1.368  -0.965  0.00  0.00     0.028 A 
HETATM   16  C   UNK N   1      -1.240   2.701  -0.911  0.00  0.00     0.027 A 
HETATM   17  C   UNK N   1      -0.165   3.089  -0.089  0.00  0.00     0.074 A 
HETATM   18  C   UNK N   1       0.486   2.077   0.665  0.00  0.00     0.111 A 
HETATM   19  N   UNK N   1       0.056   0.795   0.604  0.00  0.00    -0.366 N 
ATOM     20  HN  UNK N   1       0.526   0.088   1.170  1.00  0.00     0.165 HD
BRANCH  17  21
HETATM   21  S   UNK N   1       0.414   4.844  -0.198  0.00  0.00     0.173 S 
HETATM   22  O   UNK N   1       0.876   5.523   1.098  0.00  0.00    -0.223 OA
HETATM   23  O   UNK N   1       1.795   4.175  -0.083  0.00  0.00    -0.223 OA
HETATM   24  C   UNK N   1      -0.612   4.527   1.282  0.00  0.00     0.167 C 
ENDBRANCH  17  21
ENDBRANCH  13  14
ENDBRANCH  11  13
ENDBRANCH   5   9
BRANCH   3  25
HETATM   25  C   UNK N   1       3.119  -6.872   0.224  0.00  0.00     0.064 A 
HETATM   26  C   UNK N   1       4.264  -7.647   0.299  0.00  0.00     0.050 A 
HETATM   27  C   UNK N   1       3.810  -8.952   0.401  0.00  0.00     0.109 A 
HETATM   28  N   UNK N   1       2.464  -8.949   0.386  0.00  0.00    -0.310 N 
HETATM   29  N   UNK N   1       2.048  -7.702   0.280  0.00  0.00    -0.296 N 
ATOM     30  HN  UNK N   1       1.866  -9.773   0.446  1.00  0.00     0.186 HD
HETATM   31  C   UNK N   1       0.633  -7.364   0.231  0.00  0.00     0.178 C 
ENDBRANCH   3  25
BRANCH   1  32
HETATM   32  C   UNK N   1       5.223  -2.208  -0.131  0.00  0.00     0.043 A 
HETATM   33  C   UNK N   1       6.552  -2.674  -0.042  0.00  0.00     0.030 A 
HETATM   34  C   UNK N   1       7.644  -1.803  -0.026  0.00  0.00     0.003 A 
HETATM   35  C   UNK N   1       7.440  -0.427  -0.094  0.00  0.00     0.007 A 
HETATM   36  C   UNK N   1       6.144   0.073  -0.183  0.00  0.00    -0.060 A 
HETATM   37  C   UNK N   1       5.919   1.541  -0.250  0.00  0.00     0.048 C 
HETATM   38  C   UNK N   1       5.055  -0.805  -0.200  0.00  0.00     0.037 A 
ENDBRANCH   1  32
TORSDOF 6
