MODEL 1
REMARK VINA RESULT:      -7.1      0.000      0.000
REMARK  6 active torsions:
REMARK  status: ('A' for Active; 'I' for Inactive)
REMARK    1  A    between atoms: C_9  and  O_12 
REMARK    2  A    between atoms: O_12  and  C_13 
REMARK    3  A    between atoms: C_16  and  O_24 
REMARK    4  A    between atoms: O_24  and  C_25 
REMARK    5  A    between atoms: C_25  and  C_26 
REMARK    6  A    between atoms: C_26  and  O_28 
ROOT
HETATM    1  C   UNK N   1      33.775  14.506   7.385  0.00  0.00     0.178 A 
HETATM    2  C   UNK N   1      32.636  15.263   7.153  0.00  0.00     0.116 A 
HETATM    3  C   UNK N   1      32.289  16.510   7.621  0.00  0.00     0.006 A 
HETATM    4  C   UNK N   1      31.013  16.760   7.117  0.00  0.00     0.094 A 
HETATM    5  C   UNK N   1      30.645  15.667   6.335  0.00  0.00     0.154 A 
HETATM    6  N   UNK N   1      31.652  14.775   6.390  0.00  0.00    -0.259 N 
HETATM    7  N   UNK N   1      31.703  13.569   5.832  0.00  0.00    -0.289 N 
ATOM      8  HN  UNK N   1      30.935  13.231   5.251  1.00  0.00     0.188 HD
HETATM    9  C   UNK N   1      32.803  12.791   6.053  0.00  0.00     0.200 A 
HETATM   10  N   UNK N   1      33.826  13.261   6.831  0.00  0.00    -0.330 N 
ATOM     11  HN  UNK N   1      34.640  12.669   7.000  1.00  0.00     0.168 HD
HETATM   12  C   UNK N   1      33.111  17.384   8.512  0.00  0.00     0.054 C 
ENDROOT
BRANCH   1  13
HETATM   13  O   UNK N   1      34.752  15.008   8.184  0.00  0.00    -0.288 OA
BRANCH  13  14
HETATM   14  C   UNK N   1      35.390  14.548   9.293  0.00  0.00     0.117 A 
HETATM   15  C   UNK N   1      36.706  14.061   9.100  0.00  0.00     0.043 A 
HETATM   16  C   UNK N   1      37.478  13.582  10.169  0.00  0.00     0.033 A 
HETATM   17  C   UNK N   1      36.907  13.599  11.432  0.00  0.00     0.045 A 
HETATM   18  C   UNK N   1      35.633  14.045  11.643  0.00  0.00     0.034 A 
HETATM   19  N   UNK N   1      37.477  13.204  12.579  0.00  0.00    -0.359 N 
HETATM   20  C   UNK N   1      35.366  13.932  12.989  0.00  0.00     0.041 A 
HETATM   21  C   UNK N   1      34.833  14.520  10.607  0.00  0.00     0.162 A 
HETATM   22  C   UNK N   1      36.536  13.411  13.530  0.00  0.00     0.006 A 
HETATM   23  C   UNK N   1      36.751  13.124  14.971  0.00  0.00     0.068 C 
HETATM   24  F   UNK N   1      33.573  14.916  10.892  0.00  0.00    -0.202 F 
HETATM   25  H   UNK N   1      38.384  12.843  12.703  0.00  0.00     0.166 HD
ENDBRANCH  13  14
ENDBRANCH   1  13
BRANCH   4  26
HETATM   26  O   UNK N   1      30.220  17.828   7.374  0.00  0.00    -0.347 OA
BRANCH  26  27
HETATM   27  C   UNK N   1      28.874  17.674   7.629  0.00  0.00     0.207 C 
BRANCH  27  28
HETATM   28  C   UNK N   1      28.428  18.492   8.818  0.00  0.00     0.138 C 
HETATM   29  C   UNK N   1      29.620  18.694   9.730  0.00  0.00     0.041 C 
BRANCH  28  30
HETATM   30  O   UNK N   1      27.439  17.794   9.510  0.00  0.00    -0.394 OA
HETATM   31  H   UNK N   1      27.475  17.720  10.477  0.00  0.00     0.210 HD
ENDBRANCH  28  30
ENDBRANCH  27  28
ENDBRANCH  26  27
ENDBRANCH   4  26
TORSDOF 6
ENDMDL
MODEL 2
REMARK VINA RESULT:      -7.1      4.855     10.307
REMARK  6 active torsions:
REMARK  status: ('A' for Active; 'I' for Inactive)
REMARK    1  A    between atoms: C_9  and  O_12 
REMARK    2  A    between atoms: O_12  and  C_13 
REMARK    3  A    between atoms: C_16  and  O_24 
REMARK    4  A    between atoms: O_24  and  C_25 
REMARK    5  A    between atoms: C_25  and  C_26 
REMARK    6  A    between atoms: C_26  and  O_28 
ROOT
HETATM    1  C   UNK N   1      29.202  17.443   4.752  0.00  0.00     0.178 A 
HETATM    2  C   UNK N   1      30.203  17.011   5.610  0.00  0.00     0.116 A 
HETATM    3  C   UNK N   1      30.367  17.224   6.960  0.00  0.00     0.006 A 
HETATM    4  C   UNK N   1      31.573  16.608   7.295  0.00  0.00     0.094 A 
HETATM    5  C   UNK N   1      32.081  16.016   6.141  0.00  0.00     0.154 A 
HETATM    6  N   UNK N   1      31.227  16.292   5.138  0.00  0.00    -0.259 N 
HETATM    7  N   UNK N   1      31.345  15.964   3.853  0.00  0.00    -0.289 N 
ATOM      8  HN  UNK N   1      32.137  15.409   3.529  1.00  0.00     0.188 HD
HETATM    9  C   UNK N   1      30.386  16.387   2.978  0.00  0.00     0.200 A 
HETATM   10  N   UNK N   1      29.328  17.127   3.431  0.00  0.00    -0.330 N 
ATOM     11  HN  UNK N   1      28.621  17.448   2.769  1.00  0.00     0.168 HD
HETATM   12  C   UNK N   1      29.448  17.990   7.855  0.00  0.00     0.054 C 
ENDROOT
BRANCH   1  13
HETATM   13  O   UNK N   1      28.186  18.195   5.246  0.00  0.00    -0.288 OA
BRANCH  13  14
HETATM   14  C   UNK N   1      27.084  18.769   4.693  0.00  0.00     0.117 A 
HETATM   15  C   UNK N   1      27.305  19.957   3.952  0.00  0.00     0.043 A 
HETATM   16  C   UNK N   1      26.254  20.631   3.313  0.00  0.00     0.033 A 
HETATM   17  C   UNK N   1      24.981  20.095   3.430  0.00  0.00     0.045 A 
HETATM   18  C   UNK N   1      24.738  18.962   4.154  0.00  0.00     0.034 A 
HETATM   19  N   UNK N   1      23.852  20.572   2.886  0.00  0.00    -0.359 N 
HETATM   20  C   UNK N   1      23.389  18.695   4.077  0.00  0.00     0.041 A 
HETATM   21  C   UNK N   1      25.753  18.269   4.810  0.00  0.00     0.162 A 
HETATM   22  C   UNK N   1      22.882  19.714   3.279  0.00  0.00     0.006 A 
HETATM   23  C   UNK N   1      21.457  19.854   2.885  0.00  0.00     0.068 C 
HETATM   24  F   UNK N   1      25.427  17.174   5.530  0.00  0.00    -0.202 F 
HETATM   25  H   UNK N   1      23.752  21.372   2.323  0.00  0.00     0.166 HD
ENDBRANCH  13  14
ENDBRANCH   1  13
BRANCH   4  26
HETATM   26  O   UNK N   1      32.199  16.621   8.496  0.00  0.00    -0.347 OA
BRANCH  26  27
HETATM   27  C   UNK N   1      33.377  17.313   8.682  0.00  0.00     0.207 C 
BRANCH  27  28
HETATM   28  C   UNK N   1      34.415  16.479   9.396  0.00  0.00     0.138 C 
HETATM   29  C   UNK N   1      33.770  15.174   9.812  0.00  0.00     0.041 C 
BRANCH  28  30
HETATM   30  O   UNK N   1      34.844  17.158  10.535  0.00  0.00    -0.394 OA
HETATM   31  H   UNK N   1      34.907  18.127  10.536  0.00  0.00     0.210 HD
ENDBRANCH  28  30
ENDBRANCH  27  28
ENDBRANCH  26  27
ENDBRANCH   4  26
TORSDOF 6
ENDMDL
MODEL 3
REMARK VINA RESULT:      -7.1      5.025     10.685
REMARK  6 active torsions:
REMARK  status: ('A' for Active; 'I' for Inactive)
REMARK    1  A    between atoms: C_9  and  O_12 
REMARK    2  A    between atoms: O_12  and  C_13 
REMARK    3  A    between atoms: C_16  and  O_24 
REMARK    4  A    between atoms: O_24  and  C_25 
REMARK    5  A    between atoms: C_25  and  C_26 
REMARK    6  A    between atoms: C_26  and  O_28 
ROOT
HETATM    1  C   UNK N   1      28.207  17.598   6.691  0.00  0.00     0.178 A 
HETATM    2  C   UNK N   1      29.586  17.466   6.760  0.00  0.00     0.116 A 
HETATM    3  C   UNK N   1      30.510  17.277   5.757  0.00  0.00     0.006 A 
HETATM    4  C   UNK N   1      31.743  17.157   6.398  0.00  0.00     0.094 A 
HETATM    5  C   UNK N   1      31.525  17.309   7.766  0.00  0.00     0.154 A 
HETATM    6  N   UNK N   1      30.203  17.484   7.946  0.00  0.00    -0.259 N 
HETATM    7  N   UNK N   1      29.547  17.618   9.097  0.00  0.00    -0.289 N 
ATOM      8  HN  UNK N   1      30.051  17.634   9.984  1.00  0.00     0.188 HD
HETATM    9  C   UNK N   1      28.187  17.734   9.067  0.00  0.00     0.200 A 
HETATM   10  N   UNK N   1      27.528  17.717   7.868  0.00  0.00    -0.330 N 
ATOM     11  HN  UNK N   1      26.510  17.794   7.854  1.00  0.00     0.168 HD
HETATM   12  C   UNK N   1      30.225  17.187   4.293  0.00  0.00     0.054 C 
ENDROOT
BRANCH   1  13
HETATM   13  O   UNK N   1      27.597  17.550   5.479  0.00  0.00    -0.288 OA
BRANCH  13  14
HETATM   14  C   UNK N   1      26.693  18.345   4.847  0.00  0.00     0.117 A 
HETATM   15  C   UNK N   1      27.216  19.490   4.197  0.00  0.00     0.043 A 
HETATM   16  C   UNK N   1      26.389  20.376   3.490  0.00  0.00     0.033 A 
HETATM   17  C   UNK N   1      25.033  20.094   3.448  0.00  0.00     0.045 A 
HETATM   18  C   UNK N   1      24.500  19.008   4.082  0.00  0.00     0.034 A 
HETATM   19  N   UNK N   1      24.082  20.799   2.818  0.00  0.00    -0.359 N 
HETATM   20  C   UNK N   1      23.142  19.011   3.853  0.00  0.00     0.041 A 
HETATM   21  C   UNK N   1      25.286  18.110   4.800  0.00  0.00     0.162 A 
HETATM   22  C   UNK N   1      22.929  20.135   3.062  0.00  0.00     0.006 A 
HETATM   23  C   UNK N   1      21.609  20.562   2.533  0.00  0.00     0.068 C 
HETATM   24  F   UNK N   1      24.680  17.077   5.424  0.00  0.00    -0.202 F 
HETATM   25  H   UNK N   1      24.199  21.622   2.290  0.00  0.00     0.166 HD
ENDBRANCH  13  14
ENDBRANCH   1  13
BRANCH   4  26
HETATM   26  O   UNK N   1      32.942  16.876   5.834  0.00  0.00    -0.347 OA
BRANCH  26  27
HETATM   27  C   UNK N   1      34.101  16.873   6.579  0.00  0.00     0.207 C 
BRANCH  27  28
HETATM   28  C   UNK N   1      34.631  15.475   6.794  0.00  0.00     0.138 C 
HETATM   29  C   UNK N   1      34.938  15.305   8.267  0.00  0.00     0.041 C 
BRANCH  28  30
HETATM   30  O   UNK N   1      35.807  15.313   6.063  0.00  0.00    -0.394 OA
HETATM   31  H   UNK N   1      36.371  14.535   6.204  0.00  0.00     0.210 HD
ENDBRANCH  28  30
ENDBRANCH  27  28
ENDBRANCH  26  27
ENDBRANCH   4  26
TORSDOF 6
ENDMDL
MODEL 4
REMARK VINA RESULT:      -7.0      4.106      9.503
REMARK  6 active torsions:
REMARK  status: ('A' for Active; 'I' for Inactive)
REMARK    1  A    between atoms: C_9  and  O_12 
REMARK    2  A    between atoms: O_12  and  C_13 
REMARK    3  A    between atoms: C_16  and  O_24 
REMARK    4  A    between atoms: O_24  and  C_25 
REMARK    5  A    between atoms: C_25  and  C_26 
REMARK    6  A    between atoms: C_26  and  O_28 
ROOT
HETATM    1  C   UNK N   1      30.665  17.471   5.425  0.00  0.00     0.178 A 
HETATM    2  C   UNK N   1      31.732  17.169   6.259  0.00  0.00     0.116 A 
HETATM    3  C   UNK N   1      31.789  17.088   7.632  0.00  0.00     0.006 A 
HETATM    4  C   UNK N   1      33.121  16.806   7.937  0.00  0.00     0.094 A 
HETATM    5  C   UNK N   1      33.816  16.693   6.735  0.00  0.00     0.154 A 
HETATM    6  N   UNK N   1      32.941  16.931   5.740  0.00  0.00    -0.259 N 
HETATM    7  N   UNK N   1      33.186  16.976   4.433  0.00  0.00    -0.289 N 
ATOM      8  HN  UNK N   1      34.120  16.784   4.071  1.00  0.00     0.188 HD
HETATM    9  C   UNK N   1      32.162  17.287   3.585  0.00  0.00     0.200 A 
HETATM   10  N   UNK N   1      30.913  17.538   4.086  0.00  0.00    -0.330 N 
ATOM     11  HN  UNK N   1      30.156  17.779   3.446  1.00  0.00     0.168 HD
HETATM   12  C   UNK N   1      30.655  17.299   8.581  0.00  0.00     0.054 C 
ENDROOT
BRANCH   1  13
HETATM   13  O   UNK N   1      29.451  17.736   5.973  0.00  0.00    -0.288 OA
BRANCH  13  14
HETATM   14  C   UNK N   1      28.214  17.962   5.456  0.00  0.00     0.117 A 
HETATM   15  C   UNK N   1      27.268  16.920   5.623  0.00  0.00     0.043 A 
HETATM   16  C   UNK N   1      25.950  17.042   5.156  0.00  0.00     0.033 A 
HETATM   17  C   UNK N   1      25.600  18.222   4.520  0.00  0.00     0.045 A 
HETATM   18  C   UNK N   1      26.497  19.235   4.330  0.00  0.00     0.034 A 
HETATM   19  N   UNK N   1      24.398  18.543   4.020  0.00  0.00    -0.359 N 
HETATM   20  C   UNK N   1      25.847  20.256   3.674  0.00  0.00     0.041 A 
HETATM   21  C   UNK N   1      27.816  19.149   4.771  0.00  0.00     0.162 A 
HETATM   22  C   UNK N   1      24.549  19.785   3.506  0.00  0.00     0.006 A 
HETATM   23  C   UNK N   1      23.448  20.543   2.859  0.00  0.00     0.068 C 
HETATM   24  F   UNK N   1      28.650  20.180   4.518  0.00  0.00    -0.202 F 
HETATM   25  H   UNK N   1      23.582  17.992   4.025  0.00  0.00     0.166 HD
ENDBRANCH  13  14
ENDBRANCH   1  13
BRANCH   4  26
HETATM   26  O   UNK N   1      33.683  16.717   9.166  0.00  0.00    -0.347 OA
BRANCH  26  27
HETATM   27  C   UNK N   1      34.698  15.820   9.425  0.00  0.00     0.207 C 
BRANCH  27  28
HETATM   28  C   UNK N   1      34.247  14.706  10.339  0.00  0.00     0.138 C 
HETATM   29  C   UNK N   1      33.954  13.486   9.491  0.00  0.00     0.041 C 
BRANCH  28  30
HETATM   30  O   UNK N   1      33.080  15.094  10.996  0.00  0.00    -0.394 OA
HETATM   31  H   UNK N   1      33.054  15.919  11.505  0.00  0.00     0.210 HD
ENDBRANCH  28  30
ENDBRANCH  27  28
ENDBRANCH  26  27
ENDBRANCH   4  26
TORSDOF 6
ENDMDL
MODEL 5
REMARK VINA RESULT:      -7.0      5.774      8.602
REMARK  6 active torsions:
REMARK  status: ('A' for Active; 'I' for Inactive)
REMARK    1  A    between atoms: C_9  and  O_12 
REMARK    2  A    between atoms: O_12  and  C_13 
REMARK    3  A    between atoms: C_16  and  O_24 
REMARK    4  A    between atoms: O_24  and  C_25 
REMARK    5  A    between atoms: C_25  and  C_26 
REMARK    6  A    between atoms: C_26  and  O_28 
ROOT
HETATM    1  C   UNK N   1      26.030  16.679   5.785  0.00  0.00     0.178 A 
HETATM    2  C   UNK N   1      24.917  17.224   5.163  0.00  0.00     0.116 A 
HETATM    3  C   UNK N   1      24.807  18.333   4.354  0.00  0.00     0.006 A 
HETATM    4  C   UNK N   1      23.449  18.449   4.056  0.00  0.00     0.094 A 
HETATM    5  C   UNK N   1      22.789  17.386   4.670  0.00  0.00     0.154 A 
HETATM    6  N   UNK N   1      23.712  16.672   5.340  0.00  0.00    -0.259 N 
HETATM    7  N   UNK N   1      23.516  15.602   6.107  0.00  0.00    -0.289 N 
ATOM      8  HN  UNK N   1      22.583  15.203   6.216  1.00  0.00     0.188 HD
HETATM    9  C   UNK N   1      24.588  15.049   6.747  0.00  0.00     0.200 A 
HETATM   10  N   UNK N   1      25.833  15.594   6.587  0.00  0.00    -0.330 N 
ATOM     11  HN  UNK N   1      26.627  15.181   7.077  1.00  0.00     0.168 HD
HETATM   12  C   UNK N   1      25.920  19.233   3.926  0.00  0.00     0.054 C 
ENDROOT
BRANCH   1  13
HETATM   13  O   UNK N   1      27.241  17.270   5.614  0.00  0.00    -0.288 OA
BRANCH  13  14
HETATM   14  C   UNK N   1      28.315  17.467   6.423  0.00  0.00     0.117 A 
HETATM   15  C   UNK N   1      28.077  18.211   7.606  0.00  0.00     0.043 A 
HETATM   16  C   UNK N   1      29.099  18.461   8.535  0.00  0.00     0.033 A 
HETATM   17  C   UNK N   1      30.359  17.955   8.256  0.00  0.00     0.045 A 
HETATM   18  C   UNK N   1      30.619  17.252   7.114  0.00  0.00     0.034 A 
HETATM   19  N   UNK N   1      31.458  18.068   9.015  0.00  0.00    -0.359 N 
HETATM   20  C   UNK N   1      31.949  16.895   7.134  0.00  0.00     0.041 A 
HETATM   21  C   UNK N   1      29.635  16.990   6.165  0.00  0.00     0.162 A 
HETATM   22  C   UNK N   1      32.428  17.417   8.331  0.00  0.00     0.006 A 
HETATM   23  C   UNK N   1      33.823  17.277   8.820  0.00  0.00     0.068 C 
HETATM   24  F   UNK N   1      29.978  16.313   5.047  0.00  0.00    -0.202 F 
HETATM   25  H   UNK N   1      31.542  18.525   9.883  0.00  0.00     0.166 HD
ENDBRANCH  13  14
ENDBRANCH   1  13
BRANCH   4  26
HETATM   26  O   UNK N   1      22.840  19.437   3.359  0.00  0.00    -0.347 OA
BRANCH  26  27
HETATM   27  C   UNK N   1      21.470  19.587   3.378  0.00  0.00     0.207 C 
BRANCH  27  28
HETATM   28  C   UNK N   1      21.023  20.802   2.600  0.00  0.00     0.138 C 
HETATM   29  C   UNK N   1      20.948  20.427   1.135  0.00  0.00     0.041 C 
BRANCH  28  30
HETATM   30  O   UNK N   1      21.961  21.821   2.762  0.00  0.00    -0.394 OA
HETATM   31  H   UNK N   1      22.669  21.945   2.110  0.00  0.00     0.210 HD
ENDBRANCH  28  30
ENDBRANCH  27  28
ENDBRANCH  26  27
ENDBRANCH   4  26
TORSDOF 6
ENDMDL
MODEL 6
REMARK VINA RESULT:      -6.9      3.331      5.368
REMARK  6 active torsions:
REMARK  status: ('A' for Active; 'I' for Inactive)
REMARK    1  A    between atoms: C_9  and  O_12 
REMARK    2  A    between atoms: O_12  and  C_13 
REMARK    3  A    between atoms: C_16  and  O_24 
REMARK    4  A    between atoms: O_24  and  C_25 
REMARK    5  A    between atoms: C_25  and  C_26 
REMARK    6  A    between atoms: C_26  and  O_28 
ROOT
HETATM    1  C   UNK N   1      36.792  13.675  11.374  0.00  0.00     0.178 A 
HETATM    2  C   UNK N   1      36.307  14.065  10.134  0.00  0.00     0.116 A 
HETATM    3  C   UNK N   1      35.078  14.578   9.785  0.00  0.00     0.006 A 
HETATM    4  C   UNK N   1      35.116  14.738   8.399  0.00  0.00     0.094 A 
HETATM    5  C   UNK N   1      36.380  14.344   7.963  0.00  0.00     0.154 A 
HETATM    6  N   UNK N   1      37.069  13.933   9.044  0.00  0.00    -0.259 N 
HETATM    7  N   UNK N   1      38.299  13.427   9.082  0.00  0.00    -0.289 N 
ATOM      8  HN  UNK N   1      38.855  13.346   8.230  1.00  0.00     0.188 HD
HETATM    9  C   UNK N   1      38.803  13.018  10.283  0.00  0.00     0.200 A 
HETATM   10  N   UNK N   1      38.046  13.139  11.417  0.00  0.00    -0.330 N 
ATOM     11  HN  UNK N   1      38.425  12.821  12.309  1.00  0.00     0.168 HD
HETATM   12  C   UNK N   1      33.941  14.865  10.710  0.00  0.00     0.054 C 
ENDROOT
BRANCH   1  13
HETATM   13  O   UNK N   1      35.993  13.792  12.465  0.00  0.00    -0.288 OA
BRANCH  13  14
HETATM   14  C   UNK N   1      35.593  12.929  13.436  0.00  0.00     0.117 A 
HETATM   15  C   UNK N   1      34.679  11.921  13.039  0.00  0.00     0.043 A 
HETATM   16  C   UNK N   1      34.210  10.956  13.942  0.00  0.00     0.033 A 
HETATM   17  C   UNK N   1      34.672  11.019  15.247  0.00  0.00     0.045 A 
HETATM   18  C   UNK N   1      35.538  11.991  15.662  0.00  0.00     0.034 A 
HETATM   19  N   UNK N   1      34.362  10.188  16.253  0.00  0.00    -0.359 N 
HETATM   20  C   UNK N   1      35.799  11.781  16.997  0.00  0.00     0.041 A 
HETATM   21  C   UNK N   1      36.019  12.972  14.798  0.00  0.00     0.162 A 
HETATM   22  C   UNK N   1      35.053  10.652  17.320  0.00  0.00     0.006 A 
HETATM   23  C   UNK N   1      35.017  10.013  18.660  0.00  0.00     0.068 C 
HETATM   24  F   UNK N   1      36.849  13.916  15.291  0.00  0.00    -0.202 F 
HETATM   25  H   UNK N   1      33.761   9.409  16.221  0.00  0.00     0.166 HD
ENDBRANCH  13  14
ENDBRANCH   1  13
BRANCH   4  26
HETATM   26  O   UNK N   1      34.108  15.135   7.587  0.00  0.00    -0.347 OA
BRANCH  26  27
HETATM   27  C   UNK N   1      34.101  16.388   7.015  0.00  0.00     0.207 C 
BRANCH  27  28
HETATM   28  C   UNK N   1      34.101  17.484   8.054  0.00  0.00     0.138 C 
HETATM   29  C   UNK N   1      32.672  17.935   8.268  0.00  0.00     0.041 C 
BRANCH  28  30
HETATM   30  O   UNK N   1      34.853  18.561   7.585  0.00  0.00    -0.394 OA
HETATM   31  H   UNK N   1      35.021  19.328   8.155  0.00  0.00     0.210 HD
ENDBRANCH  28  30
ENDBRANCH  27  28
ENDBRANCH  26  27
ENDBRANCH   4  26
TORSDOF 6
ENDMDL
MODEL 7
REMARK VINA RESULT:      -6.9     10.024     13.232
REMARK  6 active torsions:
REMARK  status: ('A' for Active; 'I' for Inactive)
REMARK    1  A    between atoms: C_9  and  O_12 
REMARK    2  A    between atoms: O_12  and  C_13 
REMARK    3  A    between atoms: C_16  and  O_24 
REMARK    4  A    between atoms: O_24  and  C_25 
REMARK    5  A    between atoms: C_25  and  C_26 
REMARK    6  A    between atoms: C_26  and  O_28 
ROOT
HETATM    1  C   UNK N   1      20.648  17.376   3.304  0.00  0.00     0.178 A 
HETATM    2  C   UNK N   1      20.196  16.450   4.232  0.00  0.00     0.116 A 
HETATM    3  C   UNK N   1      20.270  16.465   5.607  0.00  0.00     0.006 A 
HETATM    4  C   UNK N   1      19.708  15.258   6.027  0.00  0.00     0.094 A 
HETATM    5  C   UNK N   1      19.286  14.570   4.891  0.00  0.00     0.154 A 
HETATM    6  N   UNK N   1      19.609  15.321   3.822  0.00  0.00    -0.259 N 
HETATM    7  N   UNK N   1      19.436  15.026   2.536  0.00  0.00    -0.289 N 
ATOM      8  HN  UNK N   1      18.978  14.157   2.259  1.00  0.00     0.188 HD
HETATM    9  C   UNK N   1      19.884  15.907   1.595  0.00  0.00     0.200 A 
HETATM   10  N   UNK N   1      20.491  17.070   1.984  0.00  0.00    -0.330 N 
ATOM     11  HN  UNK N   1      20.832  17.720   1.274  1.00  0.00     0.168 HD
HETATM   12  C   UNK N   1      20.864  17.543   6.453  0.00  0.00     0.054 C 
ENDROOT
BRANCH   1  13
HETATM   13  O   UNK N   1      21.266  18.504   3.740  0.00  0.00    -0.288 OA
BRANCH  13  14
HETATM   14  C   UNK N   1      22.547  18.956   3.687  0.00  0.00     0.117 A 
HETATM   15  C   UNK N   1      22.752  20.173   2.990  0.00  0.00     0.043 A 
HETATM   16  C   UNK N   1      24.024  20.756   2.886  0.00  0.00     0.033 A 
HETATM   17  C   UNK N   1      25.083  20.098   3.490  0.00  0.00     0.045 A 
HETATM   18  C   UNK N   1      24.917  18.915   4.153  0.00  0.00     0.034 A 
HETATM   19  N   UNK N   1      26.365  20.493   3.522  0.00  0.00    -0.359 N 
HETATM   20  C   UNK N   1      26.147  18.524   4.632  0.00  0.00     0.041 A 
HETATM   21  C   UNK N   1      23.673  18.300   4.270  0.00  0.00     0.162 A 
HETATM   22  C   UNK N   1      27.013  19.533   4.222  0.00  0.00     0.006 A 
HETATM   23  C   UNK N   1      28.467  19.575   4.517  0.00  0.00     0.068 C 
HETATM   24  F   UNK N   1      23.595  17.116   4.915  0.00  0.00    -0.202 F 
HETATM   25  H   UNK N   1      26.750  21.305   3.122  0.00  0.00     0.166 HD
ENDBRANCH  13  14
ENDBRANCH   1  13
BRANCH   4  26
HETATM   26  O   UNK N   1      19.632  14.781   7.292  0.00  0.00    -0.347 OA
BRANCH  26  27
HETATM   27  C   UNK N   1      20.746  14.295   7.942  0.00  0.00     0.207 C 
BRANCH  27  28
HETATM   28  C   UNK N   1      20.595  14.353   9.443  0.00  0.00     0.138 C 
HETATM   29  C   UNK N   1      21.206  13.098  10.030  0.00  0.00     0.041 C 
BRANCH  28  30
HETATM   30  O   UNK N   1      19.240  14.394   9.767  0.00  0.00    -0.394 OA
HETATM   31  H   UNK N   1      18.734  15.216   9.665  0.00  0.00     0.210 HD
ENDBRANCH  28  30
ENDBRANCH  27  28
ENDBRANCH  26  27
ENDBRANCH   4  26
TORSDOF 6
ENDMDL
MODEL 8
REMARK VINA RESULT:      -6.8      5.436      8.451
REMARK  6 active torsions:
REMARK  status: ('A' for Active; 'I' for Inactive)
REMARK    1  A    between atoms: C_9  and  O_12 
REMARK    2  A    between atoms: O_12  and  C_13 
REMARK    3  A    between atoms: C_16  and  O_24 
REMARK    4  A    between atoms: O_24  and  C_25 
REMARK    5  A    between atoms: C_25  and  C_26 
REMARK    6  A    between atoms: C_26  and  O_28 
ROOT
HETATM    1  C   UNK N   1      26.816  18.458   4.479  0.00  0.00     0.178 A 
HETATM    2  C   UNK N   1      25.440  18.285   4.441  0.00  0.00     0.116 A 
HETATM    3  C   UNK N   1      24.662  17.258   4.925  0.00  0.00     0.006 A 
HETATM    4  C   UNK N   1      23.352  17.574   4.562  0.00  0.00     0.094 A 
HETATM    5  C   UNK N   1      23.381  18.798   3.898  0.00  0.00     0.154 A 
HETATM    6  N   UNK N   1      24.667  19.192   3.835  0.00  0.00    -0.259 N 
HETATM    7  N   UNK N   1      25.158  20.278   3.244  0.00  0.00    -0.289 N 
ATOM      8  HN  UNK N   1      24.538  20.953   2.795  1.00  0.00     0.188 HD
HETATM    9  C   UNK N   1      26.510  20.472   3.248  0.00  0.00     0.200 A 
HETATM   10  N   UNK N   1      27.327  19.560   3.859  0.00  0.00    -0.330 N 
ATOM     11  HN  UNK N   1      28.337  19.706   3.849  1.00  0.00     0.168 HD
HETATM   12  C   UNK N   1      25.144  16.047   5.655  0.00  0.00     0.054 C 
ENDROOT
BRANCH   1  13
HETATM   13  O   UNK N   1      27.586  17.512   5.075  0.00  0.00    -0.288 OA
BRANCH  13  14
HETATM   14  C   UNK N   1      28.559  17.551   6.024  0.00  0.00     0.117 A 
HETATM   15  C   UNK N   1      28.130  17.814   7.348  0.00  0.00     0.043 A 
HETATM   16  C   UNK N   1      29.035  17.855   8.420  0.00  0.00     0.033 A 
HETATM   17  C   UNK N   1      30.374  17.630   8.139  0.00  0.00     0.045 A 
HETATM   18  C   UNK N   1      30.817  17.393   6.869  0.00  0.00     0.034 A 
HETATM   19  N   UNK N   1      31.388  17.610   9.016  0.00  0.00    -0.359 N 
HETATM   20  C   UNK N   1      32.180  17.214   6.925  0.00  0.00     0.041 A 
HETATM   21  C   UNK N   1      29.951  17.352   5.778  0.00  0.00     0.162 A 
HETATM   22  C   UNK N   1      32.490  17.352   8.274  0.00  0.00     0.006 A 
HETATM   23  C   UNK N   1      33.854  17.224   8.849  0.00  0.00     0.068 C 
HETATM   24  F   UNK N   1      30.470  17.142   4.549  0.00  0.00    -0.202 F 
HETATM   25  H   UNK N   1      31.341  17.752   9.988  0.00  0.00     0.166 HD
ENDBRANCH  13  14
ENDBRANCH   1  13
BRANCH   4  26
HETATM   26  O   UNK N   1      22.242  16.820   4.745  0.00  0.00    -0.347 OA
BRANCH  26  27
HETATM   27  C   UNK N   1      21.094  17.357   5.287  0.00  0.00     0.207 C 
BRANCH  27  28
HETATM   28  C   UNK N   1      21.185  17.487   6.789  0.00  0.00     0.138 C 
HETATM   29  C   UNK N   1      20.142  16.579   7.407  0.00  0.00     0.041 C 
BRANCH  28  30
HETATM   30  O   UNK N   1      20.915  18.805   7.154  0.00  0.00    -0.394 OA
HETATM   31  H   UNK N   1      20.241  19.001   7.824  0.00  0.00     0.210 HD
ENDBRANCH  28  30
ENDBRANCH  27  28
ENDBRANCH  26  27
ENDBRANCH   4  26
TORSDOF 6
ENDMDL
MODEL 9
REMARK VINA RESULT:      -6.7      3.738      7.875
REMARK  6 active torsions:
REMARK  status: ('A' for Active; 'I' for Inactive)
REMARK    1  A    between atoms: C_9  and  O_12 
REMARK    2  A    between atoms: O_12  and  C_13 
REMARK    3  A    between atoms: C_16  and  O_24 
REMARK    4  A    between atoms: O_24  and  C_25 
REMARK    5  A    between atoms: C_25  and  C_26 
REMARK    6  A    between atoms: C_26  and  O_28 
ROOT
HETATM    1  C   UNK N   1      35.040  12.823  11.041  0.00  0.00     0.178 A 
HETATM    2  C   UNK N   1      35.026  12.746  12.426  0.00  0.00     0.116 A 
HETATM    3  C   UNK N   1      35.515  13.623  13.368  0.00  0.00     0.006 A 
HETATM    4  C   UNK N   1      35.281  13.018  14.603  0.00  0.00     0.094 A 
HETATM    5  C   UNK N   1      34.629  11.809  14.366  0.00  0.00     0.154 A 
HETATM    6  N   UNK N   1      34.502  11.675  13.032  0.00  0.00    -0.259 N 
HETATM    7  N   UNK N   1      33.985  10.648  12.362  0.00  0.00    -0.289 N 
ATOM      8  HN  UNK N   1      33.589   9.850  12.858  1.00  0.00     0.188 HD
HETATM    9  C   UNK N   1      33.997  10.684  10.997  0.00  0.00     0.200 A 
HETATM   10  N   UNK N   1      34.529  11.765  10.348  0.00  0.00    -0.330 N 
ATOM     11  HN  UNK N   1      34.543  11.780   9.328  1.00  0.00     0.168 HD
HETATM   12  C   UNK N   1      36.185  14.930  13.100  0.00  0.00     0.054 C 
ENDROOT
BRANCH   1  13
HETATM   13  O   UNK N   1      35.600  13.906  10.444  0.00  0.00    -0.288 OA
BRANCH  13  14
HETATM   14  C   UNK N   1      35.142  14.843   9.572  0.00  0.00     0.117 A 
HETATM   15  C   UNK N   1      34.993  16.155  10.086  0.00  0.00     0.043 A 
HETATM   16  C   UNK N   1      34.552  17.215   9.280  0.00  0.00     0.033 A 
HETATM   17  C   UNK N   1      34.264  16.937   7.954  0.00  0.00     0.045 A 
HETATM   18  C   UNK N   1      34.381  15.677   7.437  0.00  0.00     0.034 A 
HETATM   19  N   UNK N   1      33.848  17.805   7.020  0.00  0.00    -0.359 N 
HETATM   20  C   UNK N   1      34.022  15.732   6.109  0.00  0.00     0.041 A 
HETATM   21  C   UNK N   1      34.807  14.598   8.206  0.00  0.00     0.162 A 
HETATM   22  C   UNK N   1      33.704  17.069   5.893  0.00  0.00     0.006 A 
HETATM   23  C   UNK N   1      33.271  17.640   4.592  0.00  0.00     0.068 C 
HETATM   24  F   UNK N   1      34.868  13.378   7.630  0.00  0.00    -0.202 F 
HETATM   25  H   UNK N   1      33.684  18.769   7.131  0.00  0.00     0.166 HD
ENDBRANCH  13  14
ENDBRANCH   1  13
BRANCH   4  26
HETATM   26  O   UNK N   1      35.663  13.462  15.824  0.00  0.00    -0.347 OA
BRANCH  26  27
HETATM   27  C   UNK N   1      34.884  13.246  16.940  0.00  0.00     0.207 C 
BRANCH  27  28
HETATM   28  C   UNK N   1      35.584  13.674  18.209  0.00  0.00     0.138 C 
HETATM   29  C   UNK N   1      35.174  12.728  19.318  0.00  0.00     0.041 C 
BRANCH  28  30
HETATM   30  O   UNK N   1      35.182  14.966  18.541  0.00  0.00    -0.394 OA
HETATM   31  H   UNK N   1      35.585  15.428  19.294  0.00  0.00     0.210 HD
ENDBRANCH  28  30
ENDBRANCH  27  28
ENDBRANCH  26  27
ENDBRANCH   4  26
TORSDOF 6
ENDMDL
