MODEL 1
REMARK VINA RESULT:      -8.2      0.000      0.000
REMARK  4 active torsions:
REMARK  status: ('A' for Active; 'I' for Inactive)
REMARK       I    between atoms: N_2  and  C_3 
REMARK    1  A    between atoms: C_3  and  C_5 
REMARK    2  A    between atoms: C_8  and  N_12 
REMARK    3  A    between atoms: N_15  and  C_22 
REMARK    4  A    between atoms: C_24  and  C_31 
ROOT
HETATM    1  C   UNK N   1      30.083  21.358  -6.534  0.00  0.00     0.061 C 
HETATM    2  C   UNK N   1      30.318  21.454  -5.196  0.00  0.00     0.050 C 
HETATM    3  C   UNK N   1      31.517  21.271  -4.656  0.00  0.00     0.087 C 
HETATM    4  C   UNK N   1      32.559  20.931  -5.557  0.00  0.00     0.129 C 
HETATM    5  N   UNK N   1      32.271  20.627  -6.860  0.00  0.00    -0.355 N 
ATOM      6  HN  UNK N   1      33.000  20.232  -7.454  1.00  0.00     0.166 HD
HETATM    7  C   UNK N   1      31.041  20.841  -7.374  0.00  0.00     0.119 C 
HETATM    8  C   UNK N   1      33.924  21.043  -5.214  0.00  0.00     0.118 C 
HETATM    9  N   UNK N   1      35.054  21.113  -5.001  0.00  0.00    -0.190 NA
ENDROOT
BRANCH   3  10
HETATM   10  C   UNK N   1      31.609  21.826  -3.263  0.00  0.00     0.420 C 
HETATM   11  F   UNK N   1      31.986  23.156  -3.367  0.00  0.00    -0.166 F 
HETATM   12  F   UNK N   1      32.499  21.132  -2.485  0.00  0.00    -0.166 F 
HETATM   13  F   UNK N   1      30.357  21.807  -2.646  0.00  0.00    -0.166 F 
ENDBRANCH   3  10
BRANCH   1  14
HETATM   14  N   UNK N   1      28.915  21.943  -6.975  0.00  0.00    -0.255 N 
HETATM   15  C   UNK N   1      28.558  23.237  -6.617  0.00  0.00     0.189 C 
HETATM   16  N   UNK N   1      27.213  23.376  -6.780  0.00  0.00    -0.304 N 
HETATM   17  S   UNK N   1      29.470  24.380  -6.700  0.00  0.00    -0.040 SA
HETATM   18  C   UNK N   1      26.709  22.254  -7.588  0.00  0.00     0.121 C 
HETATM   19  C   UNK N   1      27.906  21.379  -7.640  0.00  0.00     0.260 C 
HETATM   20  C   UNK N   1      25.476  21.515  -7.142  0.00  0.00     0.042 C 
HETATM   21  C   UNK N   1      26.109  22.597  -8.925  0.00  0.00     0.042 C 
HETATM   22  O   UNK N   1      27.954  20.271  -8.149  0.00  0.00    -0.270 OA
HETATM   23  C   UNK N   1      24.930  21.699  -8.558  0.00  0.00     0.006 C 
BRANCH  16  24
HETATM   24  C   UNK N   1      26.480  24.208  -5.928  0.00  0.00     0.041 C 
HETATM   25  C   UNK N   1      26.728  24.239  -4.536  0.00  0.00     0.031 C 
HETATM   26  C   UNK N   1      26.420  25.387  -3.826  0.00  0.00     0.022 C 
HETATM   27  C   UNK N   1      25.854  26.461  -4.527  0.00  0.00     0.070 C 
HETATM   28  C   UNK N   1      25.418  26.285  -5.855  0.00  0.00     0.134 C 
HETATM   29  C   UNK N   1      25.741  25.168  -6.524  0.00  0.00     0.073 C 
HETATM   30  F   UNK N   1      24.857  27.262  -6.589  0.00  0.00    -0.205 F 
BRANCH  27  31
HETATM   31  C   UNK N   1      25.863  27.807  -3.966  0.00  0.00     0.254 C 
HETATM   32  N   UNK N   1      26.524  28.776  -4.643  0.00  0.00    -0.361 N 
HETATM   33  C   UNK N   1      26.705  30.107  -4.153  0.00  0.00     0.149 C 
HETATM   34  H   UNK N   1      26.902  28.550  -5.524  0.00  0.00     0.162 HD
HETATM   35  O   UNK N   1      25.407  28.022  -2.852  0.00  0.00    -0.268 OA
ENDBRANCH  27  31
ENDBRANCH  16  24
ENDBRANCH   1  14
TORSDOF 4
ENDMDL
MODEL 2
REMARK VINA RESULT:      -8.2     14.863     15.899
REMARK  4 active torsions:
REMARK  status: ('A' for Active; 'I' for Inactive)
REMARK       I    between atoms: N_2  and  C_3 
REMARK    1  A    between atoms: C_3  and  C_5 
REMARK    2  A    between atoms: C_8  and  N_12 
REMARK    3  A    between atoms: N_15  and  C_22 
REMARK    4  A    between atoms: C_24  and  C_31 
ROOT
HETATM    1  C   UNK N   1      23.381  12.801   7.069  0.00  0.00     0.061 C 
HETATM    2  C   UNK N   1      22.224  13.232   7.643  0.00  0.00     0.050 C 
HETATM    3  C   UNK N   1      21.887  12.945   8.895  0.00  0.00     0.087 C 
HETATM    4  C   UNK N   1      22.794  12.122   9.610  0.00  0.00     0.129 C 
HETATM    5  N   UNK N   1      23.838  11.521   8.961  0.00  0.00    -0.355 N 
ATOM      6  HN  UNK N   1      24.386  10.810   9.446  1.00  0.00     0.166 HD
HETATM    7  C   UNK N   1      24.157  11.851   7.692  0.00  0.00     0.119 C 
HETATM    8  C   UNK N   1      22.769  12.012  11.018  0.00  0.00     0.118 C 
HETATM    9  N   UNK N   1      22.806  11.878  12.162  0.00  0.00    -0.190 NA
ENDROOT
BRANCH   3  10
HETATM   10  C   UNK N   1      20.809  13.851   9.419  0.00  0.00     0.420 C 
HETATM   11  F   UNK N   1      21.422  15.001   9.892  0.00  0.00    -0.166 F 
HETATM   12  F   UNK N   1      20.068  13.258  10.408  0.00  0.00    -0.166 F 
HETATM   13  F   UNK N   1      19.955  14.244   8.387  0.00  0.00    -0.166 F 
ENDBRANCH   3  10
BRANCH   1  14
HETATM   14  N   UNK N   1      23.772  13.483   5.935  0.00  0.00    -0.255 N 
HETATM   15  C   UNK N   1      24.380  14.729   5.998  0.00  0.00     0.189 C 
HETATM   16  N   UNK N   1      24.223  15.350   4.796  0.00  0.00    -0.304 N 
HETATM   17  S   UNK N   1      25.503  15.037   6.887  0.00  0.00    -0.040 SA
HETATM   18  C   UNK N   1      23.794  14.358   3.797  0.00  0.00     0.121 C 
HETATM   19  C   UNK N   1      23.518  13.184   4.661  0.00  0.00     0.260 C 
HETATM   20  C   UNK N   1      22.645  14.679   2.880  0.00  0.00     0.042 C 
HETATM   21  C   UNK N   1      24.734  14.101   2.650  0.00  0.00     0.042 C 
HETATM   22  O   UNK N   1      23.055  12.118   4.284  0.00  0.00    -0.270 OA
HETATM   23  C   UNK N   1      23.535  14.244   1.715  0.00  0.00     0.006 C 
BRANCH  16  24
HETATM   24  C   UNK N   1      24.083  16.739   4.730  0.00  0.00     0.041 C 
HETATM   25  C   UNK N   1      24.962  17.532   3.955  0.00  0.00     0.031 C 
HETATM   26  C   UNK N   1      24.513  18.748   3.470  0.00  0.00     0.022 C 
HETATM   27  C   UNK N   1      23.208  19.145   3.791  0.00  0.00     0.070 C 
HETATM   28  C   UNK N   1      22.471  18.426   4.753  0.00  0.00     0.134 C 
HETATM   29  C   UNK N   1      22.920  17.244   5.198  0.00  0.00     0.073 C 
HETATM   30  F   UNK N   1      21.218  18.749   5.123  0.00  0.00    -0.205 F 
BRANCH  27  31
HETATM   31  C   UNK N   1      22.532  20.185   3.025  0.00  0.00     0.254 C 
HETATM   32  N   UNK N   1      21.457  19.833   2.281  0.00  0.00    -0.361 N 
HETATM   33  C   UNK N   1      20.772  20.727   1.400  0.00  0.00     0.149 C 
HETATM   34  H   UNK N   1      21.128  18.907   2.351  0.00  0.00     0.162 HD
HETATM   35  O   UNK N   1      23.005  21.310   2.948  0.00  0.00    -0.268 OA
ENDBRANCH  27  31
ENDBRANCH  16  24
ENDBRANCH   1  14
TORSDOF 4
ENDMDL
MODEL 3
REMARK VINA RESULT:      -8.2     11.671     14.907
REMARK  4 active torsions:
REMARK  status: ('A' for Active; 'I' for Inactive)
REMARK       I    between atoms: N_2  and  C_3 
REMARK    1  A    between atoms: C_3  and  C_5 
REMARK    2  A    between atoms: C_8  and  N_12 
REMARK    3  A    between atoms: N_15  and  C_22 
REMARK    4  A    between atoms: C_24  and  C_31 
ROOT
HETATM    1  C   UNK N   1      28.027  17.002   3.565  0.00  0.00     0.061 C 
HETATM    2  C   UNK N   1      27.910  18.275   4.034  0.00  0.00     0.050 C 
HETATM    3  C   UNK N   1      26.747  18.907   4.132  0.00  0.00     0.087 C 
HETATM    4  C   UNK N   1      25.609  18.188   3.683  0.00  0.00     0.129 C 
HETATM    5  N   UNK N   1      25.762  17.001   3.019  0.00  0.00    -0.355 N 
ATOM      6  HN  UNK N   1      24.955  16.575   2.564  1.00  0.00     0.166 HD
HETATM    7  C   UNK N   1      26.962  16.384   2.954  0.00  0.00     0.119 C 
HETATM    8  C   UNK N   1      24.292  18.559   4.031  0.00  0.00     0.118 C 
HETATM    9  N   UNK N   1      23.194  18.805   4.277  0.00  0.00    -0.190 NA
ENDROOT
BRANCH   3  10
HETATM   10  C   UNK N   1      26.818  20.102   5.039  0.00  0.00     0.420 C 
HETATM   11  F   UNK N   1      26.674  19.648   6.341  0.00  0.00    -0.166 F 
HETATM   12  F   UNK N   1      25.859  21.036   4.745  0.00  0.00    -0.166 F 
HETATM   13  F   UNK N   1      28.076  20.703   4.958  0.00  0.00    -0.166 F 
ENDBRANCH   3  10
BRANCH   1  14
HETATM   14  N   UNK N   1      29.205  16.358   3.882  0.00  0.00    -0.255 N 
HETATM   15  C   UNK N   1      29.391  15.721   5.103  0.00  0.00     0.189 C 
HETATM   16  N   UNK N   1      30.728  15.601   5.329  0.00  0.00    -0.304 N 
HETATM   17  S   UNK N   1      28.420  14.793   5.686  0.00  0.00    -0.040 SA
HETATM   18  C   UNK N   1      31.453  15.859   4.074  0.00  0.00     0.121 C 
HETATM   19  C   UNK N   1      30.356  16.358   3.209  0.00  0.00     0.260 C 
HETATM   20  C   UNK N   1      32.643  16.780   4.082  0.00  0.00     0.042 C 
HETATM   21  C   UNK N   1      32.248  14.716   3.504  0.00  0.00     0.042 C 
HETATM   22  O   UNK N   1      30.485  16.779   2.070  0.00  0.00    -0.270 OA
HETATM   23  C   UNK N   1      33.412  15.690   3.335  0.00  0.00     0.006 C 
BRANCH  16  24
HETATM   24  C   UNK N   1      31.233  15.664   6.632  0.00  0.00     0.041 C 
HETATM   25  C   UNK N   1      32.030  14.623   7.163  0.00  0.00     0.031 C 
HETATM   26  C   UNK N   1      32.933  14.919   8.169  0.00  0.00     0.022 C 
HETATM   27  C   UNK N   1      32.997  16.242   8.628  0.00  0.00     0.070 C 
HETATM   28  C   UNK N   1      32.021  17.175   8.225  0.00  0.00     0.134 C 
HETATM   29  C   UNK N   1      31.166  16.869   7.239  0.00  0.00     0.073 C 
HETATM   30  F   UNK N   1      32.009  18.458   8.629  0.00  0.00    -0.205 F 
BRANCH  27  31
HETATM   31  C   UNK N   1      34.154  16.718   9.378  0.00  0.00     0.254 C 
HETATM   32  N   UNK N   1      34.517  16.036  10.490  0.00  0.00    -0.361 N 
HETATM   33  C   UNK N   1      35.558  16.456  11.376  0.00  0.00     0.149 C 
HETATM   34  H   UNK N   1      34.037  15.203  10.700  0.00  0.00     0.162 HD
HETATM   35  O   UNK N   1      34.691  17.778   9.091  0.00  0.00    -0.268 OA
ENDBRANCH  27  31
ENDBRANCH  16  24
ENDBRANCH   1  14
TORSDOF 4
ENDMDL
MODEL 4
REMARK VINA RESULT:      -8.1     13.069     15.616
REMARK  4 active torsions:
REMARK  status: ('A' for Active; 'I' for Inactive)
REMARK       I    between atoms: N_2  and  C_3 
REMARK    1  A    between atoms: C_3  and  C_5 
REMARK    2  A    between atoms: C_8  and  N_12 
REMARK    3  A    between atoms: N_15  and  C_22 
REMARK    4  A    between atoms: C_24  and  C_31 
ROOT
HETATM    1  C   UNK N   1      32.981  15.229   8.516  0.00  0.00     0.061 C 
HETATM    2  C   UNK N   1      33.880  15.813   9.355  0.00  0.00     0.050 C 
HETATM    3  C   UNK N   1      34.603  15.128  10.233  0.00  0.00     0.087 C 
HETATM    4  C   UNK N   1      34.364  13.730  10.278  0.00  0.00     0.129 C 
HETATM    5  N   UNK N   1      33.314  13.188   9.588  0.00  0.00    -0.355 N 
ATOM      6  HN  UNK N   1      33.057  12.214   9.753  1.00  0.00     0.166 HD
HETATM    7  C   UNK N   1      32.613  13.916   8.694  0.00  0.00     0.119 C 
HETATM    8  C   UNK N   1      35.265  12.826  10.883  0.00  0.00     0.118 C 
HETATM    9  N   UNK N   1      35.956  12.035  11.357  0.00  0.00    -0.190 NA
ENDROOT
BRANCH   3  10
HETATM   10  C   UNK N   1      35.786  15.907  10.734  0.00  0.00     0.420 C 
HETATM   11  F   UNK N   1      35.597  17.232  10.372  0.00  0.00    -0.166 F 
HETATM   12  F   UNK N   1      36.970  15.434  10.230  0.00  0.00    -0.166 F 
HETATM   13  F   UNK N   1      35.840  15.872  12.128  0.00  0.00    -0.166 F 
ENDBRANCH   3  10
BRANCH   1  14
HETATM   14  N   UNK N   1      32.608  15.986   7.425  0.00  0.00    -0.255 N 
HETATM   15  C   UNK N   1      31.497  16.819   7.453  0.00  0.00     0.189 C 
HETATM   16  N   UNK N   1      31.100  17.055   6.171  0.00  0.00    -0.304 N 
HETATM   17  S   UNK N   1      31.224  17.767   8.535  0.00  0.00    -0.040 SA
HETATM   18  C   UNK N   1      32.176  16.645   5.253  0.00  0.00     0.121 C 
HETATM   19  C   UNK N   1      33.096  15.949   6.185  0.00  0.00     0.260 C 
HETATM   20  C   UNK N   1      31.841  15.812   4.046  0.00  0.00     0.042 C 
HETATM   21  C   UNK N   1      32.806  17.730   4.422  0.00  0.00     0.042 C 
HETATM   22  O   UNK N   1      34.117  15.361   5.867  0.00  0.00    -0.270 OA
HETATM   23  C   UNK N   1      32.639  16.814   3.211  0.00  0.00     0.006 C 
BRANCH  16  24
HETATM   24  C   UNK N   1      29.746  17.232   5.871  0.00  0.00     0.041 C 
HETATM   25  C   UNK N   1      29.303  18.315   5.077  0.00  0.00     0.031 C 
HETATM   26  C   UNK N   1      28.127  18.183   4.360  0.00  0.00     0.022 C 
HETATM   27  C   UNK N   1      27.418  16.979   4.476  0.00  0.00     0.070 C 
HETATM   28  C   UNK N   1      27.785  16.037   5.457  0.00  0.00     0.134 C 
HETATM   29  C   UNK N   1      28.937  16.181   6.128  0.00  0.00     0.073 C 
HETATM   30  F   UNK N   1      27.150  14.865   5.637  0.00  0.00    -0.205 F 
BRANCH  27  31
HETATM   31  C   UNK N   1      26.413  16.604   3.487  0.00  0.00     0.254 C 
HETATM   32  N   UNK N   1      26.721  15.625   2.604  0.00  0.00    -0.361 N 
HETATM   33  C   UNK N   1      25.875  15.238   1.519  0.00  0.00     0.149 C 
HETATM   34  H   UNK N   1      27.577  15.152   2.717  0.00  0.00     0.162 HD
HETATM   35  O   UNK N   1      25.381  17.249   3.371  0.00  0.00    -0.268 OA
ENDBRANCH  27  31
ENDBRANCH  16  24
ENDBRANCH   1  14
TORSDOF 4
ENDMDL
MODEL 5
REMARK VINA RESULT:      -8.1     11.324     14.218
REMARK  4 active torsions:
REMARK  status: ('A' for Active; 'I' for Inactive)
REMARK       I    between atoms: N_2  and  C_3 
REMARK    1  A    between atoms: C_3  and  C_5 
REMARK    2  A    between atoms: C_8  and  N_12 
REMARK    3  A    between atoms: N_15  and  C_22 
REMARK    4  A    between atoms: C_24  and  C_31 
ROOT
HETATM    1  C   UNK N   1      26.180  17.955   4.105  0.00  0.00     0.061 C 
HETATM    2  C   UNK N   1      24.936  17.754   4.620  0.00  0.00     0.050 C 
HETATM    3  C   UNK N   1      23.925  18.590   4.417  0.00  0.00     0.087 C 
HETATM    4  C   UNK N   1      24.217  19.745   3.646  0.00  0.00     0.129 C 
HETATM    5  N   UNK N   1      25.512  20.043   3.317  0.00  0.00    -0.355 N 
ATOM      6  HN  UNK N   1      25.726  20.951   2.904  1.00  0.00     0.166 HD
HETATM    7  C   UNK N   1      26.510  19.159   3.529  0.00  0.00     0.119 C 
HETATM    8  C   UNK N   1      23.210  20.536   3.052  0.00  0.00     0.118 C 
HETATM    9  N   UNK N   1      22.440  21.223   2.540  0.00  0.00    -0.190 NA
ENDROOT
BRANCH   3  10
HETATM   10  C   UNK N   1      22.594  17.964   4.721  0.00  0.00     0.420 C 
HETATM   11  F   UNK N   1      22.778  17.082   5.775  0.00  0.00    -0.166 F 
HETATM   12  F   UNK N   1      22.065  17.314   3.636  0.00  0.00    -0.166 F 
HETATM   13  F   UNK N   1      21.686  18.930   5.157  0.00  0.00    -0.166 F 
ENDBRANCH   3  10
BRANCH   1  14
HETATM   14  N   UNK N   1      26.995  16.843   4.070  0.00  0.00    -0.255 N 
HETATM   15  C   UNK N   1      28.150  16.751   4.837  0.00  0.00     0.189 C 
HETATM   16  N   UNK N   1      28.969  15.818   4.276  0.00  0.00    -0.304 N 
HETATM   17  S   UNK N   1      28.198  17.065   6.266  0.00  0.00    -0.040 SA
HETATM   18  C   UNK N   1      28.198  15.025   3.305  0.00  0.00     0.121 C 
HETATM   19  C   UNK N   1      26.933  15.796   3.246  0.00  0.00     0.260 C 
HETATM   20  C   UNK N   1      28.775  14.761   1.941  0.00  0.00     0.042 C 
HETATM   21  C   UNK N   1      28.040  13.558   3.602  0.00  0.00     0.042 C 
HETATM   22  O   UNK N   1      25.993  15.562   2.503  0.00  0.00    -0.270 OA
HETATM   23  C   UNK N   1      28.450  13.283   2.157  0.00  0.00     0.006 C 
BRANCH  16  24
HETATM   24  C   UNK N   1      30.358  15.964   4.346  0.00  0.00     0.041 C 
HETATM   25  C   UNK N   1      30.988  17.181   3.997  0.00  0.00     0.031 C 
HETATM   26  C   UNK N   1      32.213  17.487   4.565  0.00  0.00     0.022 C 
HETATM   27  C   UNK N   1      32.780  16.556   5.447  0.00  0.00     0.070 C 
HETATM   28  C   UNK N   1      32.219  15.270   5.570  0.00  0.00     0.134 C 
HETATM   29  C   UNK N   1      31.024  15.004   5.022  0.00  0.00     0.073 C 
HETATM   30  F   UNK N   1      32.709  14.320   6.386  0.00  0.00    -0.205 F 
BRANCH  27  31
HETATM   31  C   UNK N   1      33.838  16.950   6.370  0.00  0.00     0.254 C 
HETATM   32  N   UNK N   1      33.566  17.918   7.277  0.00  0.00    -0.361 N 
HETATM   33  C   UNK N   1      34.541  18.473   8.163  0.00  0.00     0.149 C 
HETATM   34  H   UNK N   1      32.644  18.258   7.329  0.00  0.00     0.162 HD
HETATM   35  O   UNK N   1      34.974  16.518   6.237  0.00  0.00    -0.268 OA
ENDBRANCH  27  31
ENDBRANCH  16  24
ENDBRANCH   1  14
TORSDOF 4
ENDMDL
MODEL 6
REMARK VINA RESULT:      -8.0     18.346     22.192
REMARK  4 active torsions:
REMARK  status: ('A' for Active; 'I' for Inactive)
REMARK       I    between atoms: N_2  and  C_3 
REMARK    1  A    between atoms: C_3  and  C_5 
REMARK    2  A    between atoms: C_8  and  N_12 
REMARK    3  A    between atoms: N_15  and  C_22 
REMARK    4  A    between atoms: C_24  and  C_31 
ROOT
HETATM    1  C   UNK N   1      34.810  14.597  11.218  0.00  0.00     0.061 C 
HETATM    2  C   UNK N   1      33.770  14.647  10.342  0.00  0.00     0.050 C 
HETATM    3  C   UNK N   1      33.560  15.674   9.526  0.00  0.00     0.087 C 
HETATM    4  C   UNK N   1      34.473  16.754   9.638  0.00  0.00     0.129 C 
HETATM    5  N   UNK N   1      35.379  16.786  10.664  0.00  0.00    -0.355 N 
ATOM      6  HN  UNK N   1      35.919  17.636  10.827  1.00  0.00     0.166 HD
HETATM    7  C   UNK N   1      35.571  15.715  11.462  0.00  0.00     0.119 C 
HETATM    8  C   UNK N   1      34.606  17.741   8.638  0.00  0.00     0.118 C 
HETATM    9  N   UNK N   1      34.767  18.577   7.861  0.00  0.00    -0.190 NA
ENDROOT
BRANCH   3  10
HETATM   10  C   UNK N   1      32.631  15.328   8.397  0.00  0.00     0.420 C 
HETATM   11  F   UNK N   1      32.007  14.133   8.721  0.00  0.00    -0.166 F 
HETATM   12  F   UNK N   1      33.288  15.220   7.199  0.00  0.00    -0.166 F 
HETATM   13  F   UNK N   1      31.626  16.289   8.279  0.00  0.00    -0.166 F 
ENDBRANCH   3  10
BRANCH   1  14
HETATM   14  N   UNK N   1      35.119  13.342  11.701  0.00  0.00    -0.255 N 
HETATM   15  C   UNK N   1      35.468  12.294  10.859  0.00  0.00     0.189 C 
HETATM   16  N   UNK N   1      35.256  11.120  11.517  0.00  0.00    -0.304 N 
HETATM   17  S   UNK N   1      36.459  12.413   9.788  0.00  0.00    -0.040 SA
HETATM   18  C   UNK N   1      35.083  11.399  12.952  0.00  0.00     0.121 C 
HETATM   19  C   UNK N   1      34.997  12.880  12.946  0.00  0.00     0.260 C 
HETATM   20  C   UNK N   1      33.944  10.760  13.699  0.00  0.00     0.042 C 
HETATM   21  C   UNK N   1      36.115  10.822  13.884  0.00  0.00     0.042 C 
HETATM   22  O   UNK N   1      34.773  13.582  13.920  0.00  0.00    -0.270 OA
HETATM   23  C   UNK N   1      34.963  10.323  14.752  0.00  0.00     0.006 C 
BRANCH  16  24
HETATM   24  C   UNK N   1      34.850   9.980  10.817  0.00  0.00     0.041 C 
HETATM   25  C   UNK N   1      35.669   8.829  10.747  0.00  0.00     0.031 C 
HETATM   26  C   UNK N   1      35.074   7.595  10.553  0.00  0.00     0.022 C 
HETATM   27  C   UNK N   1      33.679   7.552  10.413  0.00  0.00     0.070 C 
HETATM   28  C   UNK N   1      32.950   8.747  10.258  0.00  0.00     0.134 C 
HETATM   29  C   UNK N   1      33.547   9.929  10.465  0.00  0.00     0.073 C 
HETATM   30  F   UNK N   1      31.614   8.788  10.109  0.00  0.00    -0.205 F 
BRANCH  27  31
HETATM   31  C   UNK N   1      32.948   6.304  10.597  0.00  0.00     0.254 C 
HETATM   32  N   UNK N   1      33.284   5.516  11.646  0.00  0.00    -0.361 N 
HETATM   33  C   UNK N   1      32.726   4.220  11.878  0.00  0.00     0.149 C 
HETATM   34  H   UNK N   1      33.952   5.855  12.285  0.00  0.00     0.162 HD
HETATM   35  O   UNK N   1      32.152   5.916   9.753  0.00  0.00    -0.268 OA
ENDBRANCH  27  31
ENDBRANCH  16  24
ENDBRANCH   1  14
TORSDOF 4
ENDMDL
MODEL 7
REMARK VINA RESULT:      -7.9     12.265     13.741
REMARK  4 active torsions:
REMARK  status: ('A' for Active; 'I' for Inactive)
REMARK       I    between atoms: N_2  and  C_3 
REMARK    1  A    between atoms: C_3  and  C_5 
REMARK    2  A    between atoms: C_8  and  N_12 
REMARK    3  A    between atoms: N_15  and  C_22 
REMARK    4  A    between atoms: C_24  and  C_31 
ROOT
HETATM    1  C   UNK N   1      25.000  18.894   4.000  0.00  0.00     0.061 C 
HETATM    2  C   UNK N   1      25.543  17.858   3.304  0.00  0.00     0.050 C 
HETATM    3  C   UNK N   1      26.732  17.340   3.587  0.00  0.00     0.087 C 
HETATM    4  C   UNK N   1      27.439  17.953   4.654  0.00  0.00     0.129 C 
HETATM    5  N   UNK N   1      26.983  19.121   5.202  0.00  0.00    -0.355 N 
ATOM      6  HN  UNK N   1      27.577  19.634   5.853  1.00  0.00     0.166 HD
HETATM    7  C   UNK N   1      25.760  19.607   4.896  0.00  0.00     0.119 C 
HETATM    8  C   UNK N   1      28.528  17.328   5.301  0.00  0.00     0.118 C 
HETATM    9  N   UNK N   1      29.419  16.874   5.872  0.00  0.00    -0.190 NA
ENDROOT
BRANCH   3  10
HETATM   10  C   UNK N   1      26.926  15.982   2.976  0.00  0.00     0.420 C 
HETATM   11  F   UNK N   1      26.011  15.855   1.942  0.00  0.00    -0.166 F 
HETATM   12  F   UNK N   1      26.764  14.973   3.889  0.00  0.00    -0.166 F 
HETATM   13  F   UNK N   1      28.196  15.879   2.406  0.00  0.00    -0.166 F 
ENDBRANCH   3  10
BRANCH   1  14
HETATM   14  N   UNK N   1      23.638  19.060   3.852  0.00  0.00    -0.255 N 
HETATM   15  C   UNK N   1      22.725  18.149   4.367  0.00  0.00     0.189 C 
HETATM   16  N   UNK N   1      21.548  18.288   3.696  0.00  0.00    -0.304 N 
HETATM   17  S   UNK N   1      22.779  17.638   5.739  0.00  0.00    -0.040 SA
HETATM   18  C   UNK N   1      21.571  19.554   2.945  0.00  0.00     0.121 C 
HETATM   19  C   UNK N   1      22.989  19.958   3.111  0.00  0.00     0.260 C 
HETATM   20  C   UNK N   1      21.134  19.568   1.506  0.00  0.00     0.042 C 
HETATM   21  C   UNK N   1      20.559  20.595   3.340  0.00  0.00     0.042 C 
HETATM   22  O   UNK N   1      23.516  20.929   2.591  0.00  0.00    -0.270 OA
HETATM   23  C   UNK N   1      20.232  20.752   1.857  0.00  0.00     0.006 C 
BRANCH  16  24
HETATM   24  C   UNK N   1      20.727  17.179   3.470  0.00  0.00     0.041 C 
HETATM   25  C   UNK N   1      21.183  16.065   2.726  0.00  0.00     0.031 C 
HETATM   26  C   UNK N   1      20.620  14.824   2.966  0.00  0.00     0.022 C 
HETATM   27  C   UNK N   1      19.603  14.738   3.927  0.00  0.00     0.070 C 
HETATM   28  C   UNK N   1      19.036  15.913   4.460  0.00  0.00     0.134 C 
HETATM   29  C   UNK N   1      19.609  17.102   4.223  0.00  0.00     0.073 C 
HETATM   30  F   UNK N   1      18.051  15.913   5.376  0.00  0.00    -0.205 F 
BRANCH  27  31
HETATM   31  C   UNK N   1      19.236  13.455   4.514  0.00  0.00     0.254 C 
HETATM   32  N   UNK N   1      20.232  12.632   4.920  0.00  0.00    -0.361 N 
HETATM   33  C   UNK N   1      20.017  11.305   5.409  0.00  0.00     0.149 C 
HETATM   34  H   UNK N   1      21.157  12.966   4.876  0.00  0.00     0.162 HD
HETATM   35  O   UNK N   1      18.074  13.077   4.513  0.00  0.00    -0.268 OA
ENDBRANCH  27  31
ENDBRANCH  16  24
ENDBRANCH   1  14
TORSDOF 4
ENDMDL
MODEL 8
REMARK VINA RESULT:      -7.9     14.849     16.684
REMARK  4 active torsions:
REMARK  status: ('A' for Active; 'I' for Inactive)
REMARK       I    between atoms: N_2  and  C_3 
REMARK    1  A    between atoms: C_3  and  C_5 
REMARK    2  A    between atoms: C_8  and  N_12 
REMARK    3  A    between atoms: N_15  and  C_22 
REMARK    4  A    between atoms: C_24  and  C_31 
ROOT
HETATM    1  C   UNK N   1      20.978  15.991   7.397  0.00  0.00     0.061 C 
HETATM    2  C   UNK N   1      22.006  15.130   7.627  0.00  0.00     0.050 C 
HETATM    3  C   UNK N   1      22.002  14.248   8.620  0.00  0.00     0.087 C 
HETATM    4  C   UNK N   1      20.864  14.269   9.466  0.00  0.00     0.129 C 
HETATM    5  N   UNK N   1      19.943  15.275   9.357  0.00  0.00    -0.355 N 
ATOM      6  HN  UNK N   1      19.219  15.370  10.069  1.00  0.00     0.166 HD
HETATM    7  C   UNK N   1      19.974  16.144   8.324  0.00  0.00     0.119 C 
HETATM    8  C   UNK N   1      20.541  13.199  10.330  0.00  0.00     0.118 C 
HETATM    9  N   UNK N   1      20.219  12.363  11.053  0.00  0.00    -0.190 NA
ENDROOT
BRANCH   3  10
HETATM   10  C   UNK N   1      23.020  13.160   8.423  0.00  0.00     0.420 C 
HETATM   11  F   UNK N   1      23.941  13.613   7.491  0.00  0.00    -0.166 F 
HETATM   12  F   UNK N   1      22.451  11.985   8.006  0.00  0.00    -0.166 F 
HETATM   13  F   UNK N   1      23.723  12.929   9.607  0.00  0.00    -0.166 F 
ENDBRANCH   3  10
BRANCH   1  14
HETATM   14  N   UNK N   1      20.948  16.557   6.138  0.00  0.00    -0.255 N 
HETATM   15  C   UNK N   1      20.736  15.798   4.995  0.00  0.00     0.189 C 
HETATM   16  N   UNK N   1      21.214  16.487   3.922  0.00  0.00    -0.304 N 
HETATM   17  S   UNK N   1      19.658  14.814   4.865  0.00  0.00    -0.040 SA
HETATM   18  C   UNK N   1      21.444  17.887   4.316  0.00  0.00     0.121 C 
HETATM   19  C   UNK N   1      21.252  17.806   5.784  0.00  0.00     0.260 C 
HETATM   20  C   UNK N   1      22.738  18.558   3.941  0.00  0.00     0.042 C 
HETATM   21  C   UNK N   1      20.615  18.932   3.619  0.00  0.00     0.042 C 
HETATM   22  O   UNK N   1      21.417  18.722   6.574  0.00  0.00    -0.270 OA
HETATM   23  C   UNK N   1      21.906  19.717   3.392  0.00  0.00     0.006 C 
BRANCH  16  24
HETATM   24  C   UNK N   1      21.769  15.806   2.834  0.00  0.00     0.041 C 
HETATM   25  C   UNK N   1      23.017  15.149   2.937  0.00  0.00     0.031 C 
HETATM   26  C   UNK N   1      23.279  14.078   2.100  0.00  0.00     0.022 C 
HETATM   27  C   UNK N   1      22.295  13.711   1.172  0.00  0.00     0.070 C 
HETATM   28  C   UNK N   1      21.180  14.546   0.961  0.00  0.00     0.134 C 
HETATM   29  C   UNK N   1      20.940  15.569   1.795  0.00  0.00     0.073 C 
HETATM   30  F   UNK N   1      20.199  14.269   0.083  0.00  0.00    -0.205 F 
BRANCH  27  31
HETATM   31  C   UNK N   1      22.314  12.396   0.542  0.00  0.00     0.254 C 
HETATM   32  N   UNK N   1      21.426  11.469   0.973  0.00  0.00    -0.361 N 
HETATM   33  C   UNK N   1      21.409  10.113   0.521  0.00  0.00     0.149 C 
HETATM   34  H   UNK N   1      20.753  11.746   1.636  0.00  0.00     0.162 HD
HETATM   35  O   UNK N   1      23.194  12.097  -0.252  0.00  0.00    -0.268 OA
ENDBRANCH  27  31
ENDBRANCH  16  24
ENDBRANCH   1  14
TORSDOF 4
ENDMDL
MODEL 9
REMARK VINA RESULT:      -7.9     11.662     13.553
REMARK  4 active torsions:
REMARK  status: ('A' for Active; 'I' for Inactive)
REMARK       I    between atoms: N_2  and  C_3 
REMARK    1  A    between atoms: C_3  and  C_5 
REMARK    2  A    between atoms: C_8  and  N_12 
REMARK    3  A    between atoms: N_15  and  C_22 
REMARK    4  A    between atoms: C_24  and  C_31 
ROOT
HETATM    1  C   UNK N   1      29.432  17.151   5.316  0.00  0.00     0.061 C 
HETATM    2  C   UNK N   1      29.768  16.968   6.623  0.00  0.00     0.050 C 
HETATM    3  C   UNK N   1      31.023  16.980   7.056  0.00  0.00     0.087 C 
HETATM    4  C   UNK N   1      32.021  17.164   6.065  0.00  0.00     0.129 C 
HETATM    5  N   UNK N   1      31.689  17.131   4.738  0.00  0.00    -0.355 N 
ATOM      6  HN  UNK N   1      32.430  17.104   4.038  1.00  0.00     0.166 HD
HETATM    7  C   UNK N   1      30.399  17.133   4.339  0.00  0.00     0.119 C 
HETATM    8  C   UNK N   1      33.344  17.544   6.383  0.00  0.00     0.118 C 
HETATM    9  N   UNK N   1      34.437  17.854   6.571  0.00  0.00    -0.190 NA
ENDROOT
BRANCH   3  10
HETATM   10  C   UNK N   1      31.113  17.172   8.543  0.00  0.00     0.420 C 
HETATM   11  F   UNK N   1      31.446  18.498   8.774  0.00  0.00    -0.166 F 
HETATM   12  F   UNK N   1      32.035  16.337   9.120  0.00  0.00    -0.166 F 
HETATM   13  F   UNK N   1      29.870  16.958   9.141  0.00  0.00    -0.166 F 
ENDBRANCH   3  10
BRANCH   1  14
HETATM   14  N   UNK N   1      28.117  17.498   5.084  0.00  0.00    -0.255 N 
HETATM   15  C   UNK N   1      27.140  16.546   4.824  0.00  0.00     0.189 C 
HETATM   16  N   UNK N   1      26.101  17.154   4.187  0.00  0.00    -0.304 N 
HETATM   17  S   UNK N   1      26.953  15.338   5.630  0.00  0.00    -0.040 SA
HETATM   18  C   UNK N   1      26.241  18.613   4.327  0.00  0.00     0.121 C 
HETATM   19  C   UNK N   1      27.599  18.715   4.914  0.00  0.00     0.260 C 
HETATM   20  C   UNK N   1      26.070  19.492   3.118  0.00  0.00     0.042 C 
HETATM   21  C   UNK N   1      25.159  19.327   5.091  0.00  0.00     0.042 C 
HETATM   22  O   UNK N   1      28.197  19.754   5.144  0.00  0.00    -0.270 OA
HETATM   23  C   UNK N   1      25.103  20.338   3.947  0.00  0.00     0.006 C 
BRANCH  16  24
HETATM   24  C   UNK N   1      25.351  16.459   3.234  0.00  0.00     0.041 C 
HETATM   25  C   UNK N   1      25.972  15.787   2.156  0.00  0.00     0.031 C 
HETATM   26  C   UNK N   1      25.326  14.706   1.580  0.00  0.00     0.022 C 
HETATM   27  C   UNK N   1      24.069  14.344   2.086  0.00  0.00     0.070 C 
HETATM   28  C   UNK N   1      23.406  15.191   2.995  0.00  0.00     0.134 C 
HETATM   29  C   UNK N   1      24.059  16.223   3.550  0.00  0.00     0.073 C 
HETATM   30  F   UNK N   1      22.196  14.919   3.517  0.00  0.00    -0.205 F 
BRANCH  27  31
HETATM   31  C   UNK N   1      23.509  13.024   1.821  0.00  0.00     0.254 C 
HETATM   32  N   UNK N   1      22.502  12.928   0.920  0.00  0.00    -0.361 N 
HETATM   33  C   UNK N   1      21.791  11.718   0.649  0.00  0.00     0.149 C 
HETATM   34  H   UNK N   1      22.245  13.738   0.424  0.00  0.00     0.162 HD
HETATM   35  O   UNK N   1      23.843  12.059   2.492  0.00  0.00    -0.268 OA
ENDBRANCH  27  31
ENDBRANCH  16  24
ENDBRANCH   1  14
TORSDOF 4
ENDMDL
