MODEL 1
REMARK VINA RESULT:      -7.3      0.000      0.000
REMARK  9 active torsions:
REMARK  status: ('A' for Active; 'I' for Inactive)
REMARK    1  A    between atoms: C_2  and  C_3 
REMARK    2  A    between atoms: C_4  and  C_24 
REMARK    3  A    between atoms: N_7  and  C_8 
REMARK    4  A    between atoms: C_8  and  C_9 
REMARK    5  A    between atoms: C_18  and  O_19 
REMARK    6  A    between atoms: O_19  and  C_20 
REMARK    7  A    between atoms: C_20  and  C_21 
REMARK    8  A    between atoms: C_21  and  O_23 
REMARK    9  A    between atoms: C_24  and  C_26 
REMARK       I    between atoms: C_26  and  N_28 
ROOT
HETATM    1  C   UNK N   1      30.817  17.181   7.726  0.00  0.00     0.027 A 
HETATM    2  C   UNK N   1      32.181  16.879   7.563  0.00  0.00     0.058 A 
HETATM    3  C   UNK N   1      32.396  16.812   6.189  0.00  0.00     0.041 A 
HETATM    4  C   UNK N   1      31.174  17.032   5.590  0.00  0.00     0.049 A 
HETATM    5  N   UNK N   1      30.206  17.235   6.508  0.00  0.00    -0.344 N 
HETATM    6  C   UNK N   1      31.013  17.030   4.205  0.00  0.00     0.031 A 
HETATM    7  C   UNK N   1      32.139  16.813   3.404  0.00  0.00     0.005 A 
HETATM    8  C   UNK N   1      33.397  16.602   3.995  0.00  0.00     0.038 A 
HETATM    9  C   UNK N   1      33.549  16.598   5.400  0.00  0.00     0.083 A 
ENDROOT
BRANCH   2  10
HETATM   10  C   UNK N   1      33.150  16.635   8.670  0.00  0.00     0.252 C 
HETATM   11  O   UNK N   1      33.099  15.585   9.291  0.00  0.00    -0.281 OA
BRANCH  10  12
HETATM   12  C   UNK N   1      34.273  17.565   8.949  0.00  0.00     0.290 C 
HETATM   13  O   UNK N   1      35.163  17.227   9.713  0.00  0.00    -0.264 OA
HETATM   14  N   UNK N   1      34.392  18.724   8.271  0.00  0.00    -0.363 N 
HETATM   15  H   UNK N   1      34.998  19.488   8.137  0.00  0.00     0.159 HD
HETATM   16  H   UNK N   1      33.592  18.850   7.711  0.00  0.00     0.159 HD
ENDBRANCH  10  12
ENDBRANCH   2  10
BRANCH   1  17
HETATM   17  C   UNK N   1      30.132  17.322   9.049  0.00  0.00     0.054 C 
HETATM   18  C   UNK N   1      30.078  18.772   9.493  0.00  0.00     0.011 C 
ENDBRANCH   1  17
BRANCH   5  19
HETATM   19  C   UNK N   1      28.799  17.407   6.081  0.00  0.00     0.167 C 
BRANCH  19  20
HETATM   20  C   UNK N   1      28.198  18.761   5.838  0.00  0.00    -0.040 A 
HETATM   21  C   UNK N   1      27.800  19.609   6.879  0.00  0.00     0.009 A 
HETATM   22  C   UNK N   1      27.139  20.809   6.598  0.00  0.00     0.001 A 
HETATM   23  C   UNK N   1      26.819  21.139   5.277  0.00  0.00     0.000 A 
HETATM   24  C   UNK N   1      27.168  20.273   4.239  0.00  0.00     0.001 A 
HETATM   25  C   UNK N   1      27.855  19.090   4.520  0.00  0.00     0.009 A 
ENDBRANCH  19  20
ENDBRANCH   5  19
BRANCH   9  26
HETATM   26  O   UNK N   1      34.766  16.410   5.966  0.00  0.00    -0.340 OA
BRANCH  26  27
HETATM   27  C   UNK N   1      35.466  15.225   5.845  0.00  0.00     0.285 C 
BRANCH  27  28
HETATM   28  C   UNK N   1      35.254  14.338   7.033  0.00  0.00     0.164 C 
HETATM   29  O   UNK N   1      34.499  13.384   6.942  0.00  0.00    -0.648 OA
BRANCH  28  30
HETATM   30  O   UNK N   1      35.878  14.585   8.199  0.00  0.00    -0.775 OA
HETATM   31  H   UNK N   1      35.545  15.236   8.784  0.00  0.00     0.167 HD
ENDBRANCH  28  30
ENDBRANCH  27  28
ENDBRANCH  26  27
ENDBRANCH   9  26
TORSDOF 9
ENDMDL
MODEL 2
REMARK VINA RESULT:      -7.3      2.182      4.410
REMARK  9 active torsions:
REMARK  status: ('A' for Active; 'I' for Inactive)
REMARK    1  A    between atoms: C_2  and  C_3 
REMARK    2  A    between atoms: C_4  and  C_24 
REMARK    3  A    between atoms: N_7  and  C_8 
REMARK    4  A    between atoms: C_8  and  C_9 
REMARK    5  A    between atoms: C_18  and  O_19 
REMARK    6  A    between atoms: O_19  and  C_20 
REMARK    7  A    between atoms: C_20  and  C_21 
REMARK    8  A    between atoms: C_21  and  O_23 
REMARK    9  A    between atoms: C_24  and  C_26 
REMARK       I    between atoms: C_26  and  N_28 
ROOT
HETATM    1  C   UNK N   1      29.332  16.815   4.586  0.00  0.00     0.027 A 
HETATM    2  C   UNK N   1      30.539  16.891   5.305  0.00  0.00     0.058 A 
HETATM    3  C   UNK N   1      30.180  17.164   6.623  0.00  0.00     0.041 A 
HETATM    4  C   UNK N   1      28.806  17.279   6.640  0.00  0.00     0.049 A 
HETATM    5  N   UNK N   1      28.282  17.092   5.410  0.00  0.00    -0.344 N 
HETATM    6  C   UNK N   1      28.098  17.558   7.807  0.00  0.00     0.031 A 
HETATM    7  C   UNK N   1      28.813  17.709   9.001  0.00  0.00     0.005 A 
HETATM    8  C   UNK N   1      30.213  17.581   9.007  0.00  0.00     0.038 A 
HETATM    9  C   UNK N   1      30.923  17.305   7.816  0.00  0.00     0.083 A 
ENDROOT
BRANCH   2  10
HETATM   10  C   UNK N   1      31.903  16.753   4.720  0.00  0.00     0.252 C 
HETATM   11  O   UNK N   1      32.485  17.747   4.316  0.00  0.00    -0.281 OA
BRANCH  10  12
HETATM   12  C   UNK N   1      32.642  15.467   4.747  0.00  0.00     0.290 C 
HETATM   13  O   UNK N   1      32.613  14.730   3.773  0.00  0.00    -0.264 OA
HETATM   14  N   UNK N   1      33.450  15.158   5.782  0.00  0.00    -0.363 N 
HETATM   15  H   UNK N   1      34.107  14.489   6.083  0.00  0.00     0.159 HD
HETATM   16  H   UNK N   1      33.347  15.842   6.482  0.00  0.00     0.159 HD
ENDBRANCH  10  12
ENDBRANCH   2  10
BRANCH   1  17
HETATM   17  C   UNK N   1      29.238  16.564   3.114  0.00  0.00     0.054 C 
HETATM   18  C   UNK N   1      29.079  15.086   2.812  0.00  0.00     0.011 C 
ENDBRANCH   1  17
BRANCH   5  19
HETATM   19  C   UNK N   1      26.828  17.255   5.188  0.00  0.00     0.167 C 
BRANCH  19  20
HETATM   20  C   UNK N   1      26.267  18.373   4.358  0.00  0.00    -0.040 A 
HETATM   21  C   UNK N   1      27.045  19.453   3.922  0.00  0.00     0.009 A 
HETATM   22  C   UNK N   1      26.448  20.526   3.250  0.00  0.00     0.001 A 
HETATM   23  C   UNK N   1      25.062  20.553   3.066  0.00  0.00     0.000 A 
HETATM   24  C   UNK N   1      24.276  19.503   3.544  0.00  0.00     0.001 A 
HETATM   25  C   UNK N   1      24.878  18.419   4.187  0.00  0.00     0.009 A 
ENDBRANCH  19  20
ENDBRANCH   5  19
BRANCH   9  26
HETATM   26  O   UNK N   1      32.272  17.166   7.830  0.00  0.00    -0.340 OA
BRANCH  26  27
HETATM   27  C   UNK N   1      33.092  17.960   8.608  0.00  0.00     0.285 C 
BRANCH  27  28
HETATM   28  C   UNK N   1      34.337  18.349   7.873  0.00  0.00     0.164 C 
HETATM   29  O   UNK N   1      35.158  19.065   8.422  0.00  0.00    -0.648 OA
BRANCH  28  30
HETATM   30  O   UNK N   1      34.558  17.926   6.615  0.00  0.00    -0.775 OA
HETATM   31  H   UNK N   1      33.975  18.172   5.925  0.00  0.00     0.167 HD
ENDBRANCH  28  30
ENDBRANCH  27  28
ENDBRANCH  26  27
ENDBRANCH   9  26
TORSDOF 9
ENDMDL
MODEL 3
REMARK VINA RESULT:      -6.8      6.703      9.875
REMARK  9 active torsions:
REMARK  status: ('A' for Active; 'I' for Inactive)
REMARK    1  A    between atoms: C_2  and  C_3 
REMARK    2  A    between atoms: C_4  and  C_24 
REMARK    3  A    between atoms: N_7  and  C_8 
REMARK    4  A    between atoms: C_8  and  C_9 
REMARK    5  A    between atoms: C_18  and  O_19 
REMARK    6  A    between atoms: O_19  and  C_20 
REMARK    7  A    between atoms: C_20  and  C_21 
REMARK    8  A    between atoms: C_21  and  O_23 
REMARK    9  A    between atoms: C_24  and  C_26 
REMARK       I    between atoms: C_26  and  N_28 
ROOT
HETATM    1  C   UNK N   1      25.642  16.688   4.786  0.00  0.00     0.027 A 
HETATM    2  C   UNK N   1      24.398  17.267   4.477  0.00  0.00     0.058 A 
HETATM    3  C   UNK N   1      24.685  18.514   3.926  0.00  0.00     0.041 A 
HETATM    4  C   UNK N   1      26.056  18.651   3.959  0.00  0.00     0.049 A 
HETATM    5  N   UNK N   1      26.646  17.563   4.497  0.00  0.00    -0.344 N 
HETATM    6  C   UNK N   1      26.700  19.793   3.486  0.00  0.00     0.031 A 
HETATM    7  C   UNK N   1      25.922  20.823   2.946  0.00  0.00     0.005 A 
HETATM    8  C   UNK N   1      24.523  20.695   2.889  0.00  0.00     0.038 A 
HETATM    9  C   UNK N   1      23.878  19.536   3.378  0.00  0.00     0.083 A 
ENDROOT
BRANCH   2  10
HETATM   10  C   UNK N   1      23.067  16.654   4.753  0.00  0.00     0.252 C 
HETATM   11  O   UNK N   1      22.559  16.796   5.854  0.00  0.00    -0.281 OA
BRANCH  10  12
HETATM   12  C   UNK N   1      22.268  16.001   3.686  0.00  0.00     0.290 C 
HETATM   13  O   UNK N   1      22.436  14.817   3.442  0.00  0.00    -0.264 OA
HETATM   14  N   UNK N   1      21.268  16.665   3.071  0.00  0.00    -0.363 N 
HETATM   15  H   UNK N   1      20.531  16.540   2.429  0.00  0.00     0.159 HD
HETATM   16  H   UNK N   1      21.276  17.603   3.369  0.00  0.00     0.159 HD
ENDBRANCH  10  12
ENDBRANCH   2  10
BRANCH   1  17
HETATM   17  C   UNK N   1      25.816  15.348   5.429  0.00  0.00     0.054 C 
HETATM   18  C   UNK N   1      25.949  15.468   6.935  0.00  0.00     0.011 C 
ENDBRANCH   1  17
BRANCH   5  19
HETATM   19  C   UNK N   1      28.111  17.538   4.705  0.00  0.00     0.167 C 
BRANCH  19  20
HETATM   20  C   UNK N   1      28.731  17.763   6.054  0.00  0.00    -0.040 A 
HETATM   21  C   UNK N   1      29.856  17.055   6.495  0.00  0.00     0.009 A 
HETATM   22  C   UNK N   1      30.323  17.219   7.804  0.00  0.00     0.001 A 
HETATM   23  C   UNK N   1      29.633  18.046   8.696  0.00  0.00     0.000 A 
HETATM   24  C   UNK N   1      28.482  18.714   8.276  0.00  0.00     0.001 A 
HETATM   25  C   UNK N   1      28.034  18.572   6.960  0.00  0.00     0.009 A 
ENDBRANCH  19  20
ENDBRANCH   5  19
BRANCH   9  26
HETATM   26  O   UNK N   1      22.530  19.411   3.307  0.00  0.00    -0.340 OA
BRANCH  26  27
HETATM   27  C   UNK N   1      21.714  20.420   2.833  0.00  0.00     0.285 C 
BRANCH  27  28
HETATM   28  C   UNK N   1      21.079  20.046   1.529  0.00  0.00     0.164 C 
HETATM   29  O   UNK N   1      21.375  20.661   0.519  0.00  0.00    -0.648 OA
BRANCH  28  30
HETATM   30  O   UNK N   1      20.179  19.047   1.461  0.00  0.00    -0.775 OA
HETATM   31  H   UNK N   1      20.446  18.188   1.201  0.00  0.00     0.167 HD
ENDBRANCH  28  30
ENDBRANCH  27  28
ENDBRANCH  26  27
ENDBRANCH   9  26
TORSDOF 9
ENDMDL
MODEL 4
REMARK VINA RESULT:      -6.6     11.986     14.987
REMARK  9 active torsions:
REMARK  status: ('A' for Active; 'I' for Inactive)
REMARK    1  A    between atoms: C_2  and  C_3 
REMARK    2  A    between atoms: C_4  and  C_24 
REMARK    3  A    between atoms: N_7  and  C_8 
REMARK    4  A    between atoms: C_8  and  C_9 
REMARK    5  A    between atoms: C_18  and  O_19 
REMARK    6  A    between atoms: O_19  and  C_20 
REMARK    7  A    between atoms: C_20  and  C_21 
REMARK    8  A    between atoms: C_21  and  O_23 
REMARK    9  A    between atoms: C_24  and  C_26 
REMARK       I    between atoms: C_26  and  N_28 
ROOT
HETATM    1  C   UNK N   1      29.684  22.798  -4.184  0.00  0.00     0.027 A 
HETATM    2  C   UNK N   1      28.773  23.072  -5.221  0.00  0.00     0.058 A 
HETATM    3  C   UNK N   1      28.983  22.086  -6.183  0.00  0.00     0.041 A 
HETATM    4  C   UNK N   1      30.015  21.298  -5.719  0.00  0.00     0.049 A 
HETATM    5  N   UNK N   1      30.463  21.731  -4.521  0.00  0.00    -0.344 N 
HETATM    6  C   UNK N   1      30.498  20.207  -6.438  0.00  0.00     0.031 A 
HETATM    7  C   UNK N   1      29.899  19.898  -7.664  0.00  0.00     0.005 A 
HETATM    8  C   UNK N   1      28.835  20.680  -8.148  0.00  0.00     0.038 A 
HETATM    9  C   UNK N   1      28.357  21.790  -7.414  0.00  0.00     0.083 A 
ENDROOT
BRANCH   2  10
HETATM   10  C   UNK N   1      27.831  24.226  -5.260  0.00  0.00     0.252 C 
HETATM   11  O   UNK N   1      28.192  25.277  -5.767  0.00  0.00    -0.281 OA
BRANCH  10  12
HETATM   12  C   UNK N   1      26.415  24.098  -4.837  0.00  0.00     0.290 C 
HETATM   13  O   UNK N   1      26.111  24.288  -3.670  0.00  0.00    -0.264 OA
HETATM   14  N   UNK N   1      25.439  23.901  -5.747  0.00  0.00    -0.363 N 
HETATM   15  H   UNK N   1      24.459  23.854  -5.839  0.00  0.00     0.159 HD
HETATM   16  H   UNK N   1      25.850  23.755  -6.629  0.00  0.00     0.159 HD
ENDBRANCH  10  12
ENDBRANCH   2  10
BRANCH   1  17
HETATM   17  C   UNK N   1      29.831  23.624  -2.946  0.00  0.00     0.054 C 
HETATM   18  C   UNK N   1      29.012  23.058  -1.801  0.00  0.00     0.011 C 
ENDBRANCH   1  17
BRANCH   5  19
HETATM   19  C   UNK N   1      31.626  21.076  -3.881  0.00  0.00     0.167 C 
BRANCH  19  20
HETATM   20  C   UNK N   1      33.036  21.522  -4.140  0.00  0.00    -0.040 A 
HETATM   21  C   UNK N   1      33.345  22.599  -4.980  0.00  0.00     0.009 A 
HETATM   22  C   UNK N   1      34.678  22.900  -5.279  0.00  0.00     0.001 A 
HETATM   23  C   UNK N   1      35.706  22.088  -4.789  0.00  0.00     0.000 A 
HETATM   24  C   UNK N   1      35.401  20.983  -3.993  0.00  0.00     0.001 A 
HETATM   25  C   UNK N   1      34.070  20.702  -3.671  0.00  0.00     0.009 A 
ENDBRANCH  19  20
ENDBRANCH   5  19
BRANCH   9  26
HETATM   26  O   UNK N   1      27.321  22.532  -7.877  0.00  0.00    -0.340 OA
BRANCH  26  27
HETATM   27  C   UNK N   1      26.471  22.083  -8.869  0.00  0.00     0.285 C 
BRANCH  27  28
HETATM   28  C   UNK N   1      25.246  21.442  -8.294  0.00  0.00     0.164 C 
HETATM   29  O   UNK N   1      25.288  20.276  -7.941  0.00  0.00    -0.648 OA
BRANCH  28  30
HETATM   30  O   UNK N   1      24.098  22.134  -8.171  0.00  0.00    -0.775 OA
HETATM   31  H   UNK N   1      23.496  22.182  -8.887  0.00  0.00     0.167 HD
ENDBRANCH  28  30
ENDBRANCH  27  28
ENDBRANCH  26  27
ENDBRANCH   9  26
TORSDOF 9
ENDMDL
MODEL 5
REMARK VINA RESULT:      -6.6      2.682      4.703
REMARK  9 active torsions:
REMARK  status: ('A' for Active; 'I' for Inactive)
REMARK    1  A    between atoms: C_2  and  C_3 
REMARK    2  A    between atoms: C_4  and  C_24 
REMARK    3  A    between atoms: N_7  and  C_8 
REMARK    4  A    between atoms: C_8  and  C_9 
REMARK    5  A    between atoms: C_18  and  O_19 
REMARK    6  A    between atoms: O_19  and  C_20 
REMARK    7  A    between atoms: C_20  and  C_21 
REMARK    8  A    between atoms: C_21  and  O_23 
REMARK    9  A    between atoms: C_24  and  C_26 
REMARK       I    between atoms: C_26  and  N_28 
ROOT
HETATM    1  C   UNK N   1      29.248  16.909   4.567  0.00  0.00     0.027 A 
HETATM    2  C   UNK N   1      30.453  16.712   5.266  0.00  0.00     0.058 A 
HETATM    3  C   UNK N   1      30.263  17.284   6.521  0.00  0.00     0.041 A 
HETATM    4  C   UNK N   1      28.996  17.827   6.518  0.00  0.00     0.049 A 
HETATM    5  N   UNK N   1      28.379  17.626   5.334  0.00  0.00    -0.344 N 
HETATM    6  C   UNK N   1      28.469  18.493   7.623  0.00  0.00     0.031 A 
HETATM    7  C   UNK N   1      29.254  18.594   8.776  0.00  0.00     0.005 A 
HETATM    8  C   UNK N   1      30.543  18.034   8.806  0.00  0.00     0.038 A 
HETATM    9  C   UNK N   1      31.071  17.367   7.677  0.00  0.00     0.083 A 
ENDROOT
BRANCH   2  10
HETATM   10  C   UNK N   1      31.675  16.062   4.713  0.00  0.00     0.252 C 
HETATM   11  O   UNK N   1      31.847  14.865   4.884  0.00  0.00    -0.281 OA
BRANCH  10  12
HETATM   12  C   UNK N   1      32.621  16.791   3.832  0.00  0.00     0.290 C 
HETATM   13  O   UNK N   1      33.034  17.890   4.164  0.00  0.00    -0.264 OA
HETATM   14  N   UNK N   1      33.131  16.201   2.731  0.00  0.00    -0.363 N 
HETATM   15  H   UNK N   1      33.793  16.334   2.014  0.00  0.00     0.159 HD
HETATM   16  H   UNK N   1      32.687  15.333   2.600  0.00  0.00     0.159 HD
ENDBRANCH  10  12
ENDBRANCH   2  10
BRANCH   1  17
HETATM   17  C   UNK N   1      29.007  16.475   3.155  0.00  0.00     0.054 C 
HETATM   18  C   UNK N   1      28.239  15.168   3.100  0.00  0.00     0.011 C 
ENDBRANCH   1  17
BRANCH   5  19
HETATM   19  C   UNK N   1      27.038  18.203   5.086  0.00  0.00     0.167 C 
BRANCH  19  20
HETATM   20  C   UNK N   1      25.783  17.390   5.213  0.00  0.00    -0.040 A 
HETATM   21  C   UNK N   1      24.528  17.873   4.822  0.00  0.00     0.009 A 
HETATM   22  C   UNK N   1      23.374  17.120   5.069  0.00  0.00     0.001 A 
HETATM   23  C   UNK N   1      23.464  15.909   5.762  0.00  0.00     0.000 A 
HETATM   24  C   UNK N   1      24.706  15.447   6.199  0.00  0.00     0.001 A 
HETATM   25  C   UNK N   1      25.860  16.186   5.924  0.00  0.00     0.009 A 
ENDBRANCH  19  20
ENDBRANCH   5  19
BRANCH   9  26
HETATM   26  O   UNK N   1      32.309  16.815   7.714  0.00  0.00    -0.340 OA
BRANCH  26  27
HETATM   27  C   UNK N   1      33.308  17.287   8.544  0.00  0.00     0.285 C 
BRANCH  27  28
HETATM   28  C   UNK N   1      34.280  18.148   7.799  0.00  0.00     0.164 C 
HETATM   29  O   UNK N   1      34.841  19.061   8.381  0.00  0.00    -0.648 OA
BRANCH  28  30
HETATM   30  O   UNK N   1      34.536  17.931   6.496  0.00  0.00    -0.775 OA
HETATM   31  H   UNK N   1      33.833  17.808   5.890  0.00  0.00     0.167 HD
ENDBRANCH  28  30
ENDBRANCH  27  28
ENDBRANCH  26  27
ENDBRANCH   9  26
TORSDOF 9
ENDMDL
MODEL 6
REMARK VINA RESULT:      -6.5     10.935     14.021
REMARK  9 active torsions:
REMARK  status: ('A' for Active; 'I' for Inactive)
REMARK    1  A    between atoms: C_2  and  C_3 
REMARK    2  A    between atoms: C_4  and  C_24 
REMARK    3  A    between atoms: N_7  and  C_8 
REMARK    4  A    between atoms: C_8  and  C_9 
REMARK    5  A    between atoms: C_18  and  O_19 
REMARK    6  A    between atoms: O_19  and  C_20 
REMARK    7  A    between atoms: C_20  and  C_21 
REMARK    8  A    between atoms: C_21  and  O_23 
REMARK    9  A    between atoms: C_24  and  C_26 
REMARK       I    between atoms: C_26  and  N_28 
ROOT
HETATM    1  C   UNK N   1      35.403   9.402  17.093  0.00  0.00     0.027 A 
HETATM    2  C   UNK N   1      35.360  10.507  16.223  0.00  0.00     0.058 A 
HETATM    3  C   UNK N   1      35.313  11.634  17.040  0.00  0.00     0.041 A 
HETATM    4  C   UNK N   1      35.289  11.175  18.340  0.00  0.00     0.049 A 
HETATM    5  N   UNK N   1      35.320   9.827  18.386  0.00  0.00    -0.344 N 
HETATM    6  C   UNK N   1      35.234  12.039  19.432  0.00  0.00     0.031 A 
HETATM    7  C   UNK N   1      35.220  13.417  19.192  0.00  0.00     0.005 A 
HETATM    8  C   UNK N   1      35.260  13.906  17.874  0.00  0.00     0.038 A 
HETATM    9  C   UNK N   1      35.308  13.021  16.772  0.00  0.00     0.083 A 
ENDROOT
BRANCH   2  10
HETATM   10  C   UNK N   1      35.322  10.433  14.734  0.00  0.00     0.252 C 
HETATM   11  O   UNK N   1      36.315  10.063  14.128  0.00  0.00    -0.281 OA
BRANCH  10  12
HETATM   12  C   UNK N   1      34.070  10.652  13.970  0.00  0.00     0.290 C 
HETATM   13  O   UNK N   1      33.011  10.777  14.564  0.00  0.00    -0.264 OA
HETATM   14  N   UNK N   1      34.102  10.843  12.635  0.00  0.00    -0.363 N 
HETATM   15  H   UNK N   1      33.530  11.080  11.869  0.00  0.00     0.159 HD
HETATM   16  H   UNK N   1      35.021  10.696  12.314  0.00  0.00     0.159 HD
ENDBRANCH  10  12
ENDBRANCH   2  10
BRANCH   1  17
HETATM   17  C   UNK N   1      35.434   7.974  16.648  0.00  0.00     0.054 C 
HETATM   18  C   UNK N   1      36.852   7.436  16.608  0.00  0.00     0.011 C 
ENDBRANCH   1  17
BRANCH   5  19
HETATM   19  C   UNK N   1      35.217   9.124  19.685  0.00  0.00     0.167 C 
BRANCH  19  20
HETATM   20  C   UNK N   1      33.895   8.832  20.332  0.00  0.00    -0.040 A 
HETATM   21  C   UNK N   1      33.747   8.694  21.718  0.00  0.00     0.009 A 
HETATM   22  C   UNK N   1      32.517   8.308  22.262  0.00  0.00     0.001 A 
HETATM   23  C   UNK N   1      31.446   7.998  21.418  0.00  0.00     0.000 A 
HETATM   24  C   UNK N   1      31.602   8.084  20.034  0.00  0.00     0.001 A 
HETATM   25  C   UNK N   1      32.822   8.500  19.495  0.00  0.00     0.009 A 
ENDBRANCH  19  20
ENDBRANCH   5  19
BRANCH   9  26
HETATM   26  O   UNK N   1      35.362  13.496  15.504  0.00  0.00    -0.340 OA
BRANCH  26  27
HETATM   27  C   UNK N   1      36.549  13.850  14.893  0.00  0.00     0.285 C 
BRANCH  27  28
HETATM   28  C   UNK N   1      36.365  14.082  13.426  0.00  0.00     0.164 C 
HETATM   29  O   UNK N   1      36.212  13.127  12.682  0.00  0.00    -0.648 OA
BRANCH  28  30
HETATM   30  O   UNK N   1      36.375  15.327  12.916  0.00  0.00    -0.775 OA
HETATM   31  H   UNK N   1      36.092  16.053  13.436  0.00  0.00     0.167 HD
ENDBRANCH  28  30
ENDBRANCH  27  28
ENDBRANCH  26  27
ENDBRANCH   9  26
TORSDOF 9
ENDMDL
MODEL 7
REMARK VINA RESULT:      -6.4      7.666     10.355
REMARK  9 active torsions:
REMARK  status: ('A' for Active; 'I' for Inactive)
REMARK    1  A    between atoms: C_2  and  C_3 
REMARK    2  A    between atoms: C_4  and  C_24 
REMARK    3  A    between atoms: N_7  and  C_8 
REMARK    4  A    between atoms: C_8  and  C_9 
REMARK    5  A    between atoms: C_18  and  O_19 
REMARK    6  A    between atoms: O_19  and  C_20 
REMARK    7  A    between atoms: C_20  and  C_21 
REMARK    8  A    between atoms: C_21  and  O_23 
REMARK    9  A    between atoms: C_24  and  C_26 
REMARK       I    between atoms: C_26  and  N_28 
ROOT
HETATM    1  C   UNK N   1      23.050  17.198   5.376  0.00  0.00     0.027 A 
HETATM    2  C   UNK N   1      22.255  16.403   6.221  0.00  0.00     0.058 A 
HETATM    3  C   UNK N   1      23.069  15.348   6.628  0.00  0.00     0.041 A 
HETATM    4  C   UNK N   1      24.282  15.522   5.995  0.00  0.00     0.049 A 
HETATM    5  N   UNK N   1      24.277  16.625   5.217  0.00  0.00    -0.344 N 
HETATM    6  C   UNK N   1      25.345  14.637   6.169  0.00  0.00     0.031 A 
HETATM    7  C   UNK N   1      25.171  13.548   7.030  0.00  0.00     0.005 A 
HETATM    8  C   UNK N   1      23.947  13.361   7.696  0.00  0.00     0.038 A 
HETATM    9  C   UNK N   1      22.873  14.260   7.508  0.00  0.00     0.083 A 
ENDROOT
BRANCH   2  10
HETATM   10  C   UNK N   1      20.821  16.651   6.544  0.00  0.00     0.252 C 
HETATM   11  O   UNK N   1      19.959  15.996   5.981  0.00  0.00    -0.281 OA
BRANCH  10  12
HETATM   12  C   UNK N   1      20.411  17.566   7.638  0.00  0.00     0.290 C 
HETATM   13  O   UNK N   1      20.713  18.748   7.585  0.00  0.00    -0.264 OA
HETATM   14  N   UNK N   1      19.598  17.139   8.625  0.00  0.00    -0.363 N 
HETATM   15  H   UNK N   1      19.090  17.456   9.407  0.00  0.00     0.159 HD
HETATM   16  H   UNK N   1      19.463  16.168   8.529  0.00  0.00     0.159 HD
ENDBRANCH  10  12
ENDBRANCH   2  10
BRANCH   1  17
HETATM   17  C   UNK N   1      22.573  18.435   4.681  0.00  0.00     0.054 C 
HETATM   18  C   UNK N   1      21.829  18.100   3.402  0.00  0.00     0.011 C 
ENDBRANCH   1  17
BRANCH   5  19
HETATM   19  C   UNK N   1      25.454  16.952   4.382  0.00  0.00     0.167 C 
BRANCH  19  20
HETATM   20  C   UNK N   1      26.314  18.153   4.647  0.00  0.00    -0.040 A 
HETATM   21  C   UNK N   1      27.135  18.259   5.777  0.00  0.00     0.009 A 
HETATM   22  C   UNK N   1      27.826  19.447   6.037  0.00  0.00     0.001 A 
HETATM   23  C   UNK N   1      27.652  20.556   5.203  0.00  0.00     0.000 A 
HETATM   24  C   UNK N   1      26.795  20.472   4.105  0.00  0.00     0.001 A 
HETATM   25  C   UNK N   1      26.129  19.275   3.829  0.00  0.00     0.009 A 
ENDBRANCH  19  20
ENDBRANCH   5  19
BRANCH   9  26
HETATM   26  O   UNK N   1      21.699  14.086   8.164  0.00  0.00    -0.340 OA
BRANCH  26  27
HETATM   27  C   UNK N   1      21.592  14.204   9.536  0.00  0.00     0.285 C 
BRANCH  27  28
HETATM   28  C   UNK N   1      20.239  13.782  10.020  0.00  0.00     0.164 C 
HETATM   29  O   UNK N   1      19.256  14.426   9.691  0.00  0.00    -0.648 OA
BRANCH  28  30
HETATM   30  O   UNK N   1      20.095  12.709  10.818  0.00  0.00    -0.775 OA
HETATM   31  H   UNK N   1      19.254  12.312  10.930  0.00  0.00     0.167 HD
ENDBRANCH  28  30
ENDBRANCH  27  28
ENDBRANCH  26  27
ENDBRANCH   9  26
TORSDOF 9
ENDMDL
MODEL 8
REMARK VINA RESULT:      -6.3     11.473     13.840
REMARK  9 active torsions:
REMARK  status: ('A' for Active; 'I' for Inactive)
REMARK    1  A    between atoms: C_2  and  C_3 
REMARK    2  A    between atoms: C_4  and  C_24 
REMARK    3  A    between atoms: N_7  and  C_8 
REMARK    4  A    between atoms: C_8  and  C_9 
REMARK    5  A    between atoms: C_18  and  O_19 
REMARK    6  A    between atoms: O_19  and  C_20 
REMARK    7  A    between atoms: C_20  and  C_21 
REMARK    8  A    between atoms: C_21  and  O_23 
REMARK    9  A    between atoms: C_24  and  C_26 
REMARK       I    between atoms: C_26  and  N_28 
ROOT
HETATM    1  C   UNK N   1      28.692  23.475  -5.198  0.00  0.00     0.027 A 
HETATM    2  C   UNK N   1      29.948  22.874  -4.994  0.00  0.00     0.058 A 
HETATM    3  C   UNK N   1      30.018  21.822  -5.905  0.00  0.00     0.041 A 
HETATM    4  C   UNK N   1      28.816  21.805  -6.579  0.00  0.00     0.049 A 
HETATM    5  N   UNK N   1      27.996  22.786  -6.145  0.00  0.00    -0.344 N 
HETATM    6  C   UNK N   1      28.533  20.868  -7.571  0.00  0.00     0.031 A 
HETATM    7  C   UNK N   1      29.515  19.928  -7.899  0.00  0.00     0.005 A 
HETATM    8  C   UNK N   1      30.754  19.938  -7.234  0.00  0.00     0.038 A 
HETATM    9  C   UNK N   1      31.029  20.888  -6.224  0.00  0.00     0.083 A 
ENDROOT
BRANCH   2  10
HETATM   10  C   UNK N   1      30.944  23.283  -3.964  0.00  0.00     0.252 C 
HETATM   11  O   UNK N   1      31.588  24.307  -4.127  0.00  0.00    -0.281 OA
BRANCH  10  12
HETATM   12  C   UNK N   1      31.076  22.566  -2.671  0.00  0.00     0.290 C 
HETATM   13  O   UNK N   1      30.580  23.041  -1.662  0.00  0.00    -0.264 OA
HETATM   14  N   UNK N   1      31.624  21.335  -2.619  0.00  0.00    -0.363 N 
HETATM   15  H   UNK N   1      31.789  20.582  -2.006  0.00  0.00     0.159 HD
HETATM   16  H   UNK N   1      31.984  21.108  -3.507  0.00  0.00     0.159 HD
ENDBRANCH  10  12
ENDBRANCH   2  10
BRANCH   1  17
HETATM   17  C   UNK N   1      28.173  24.638  -4.413  0.00  0.00     0.054 C 
HETATM   18  C   UNK N   1      27.322  24.181  -3.242  0.00  0.00     0.011 C 
ENDBRANCH   1  17
BRANCH   5  19
HETATM   19  C   UNK N   1      26.619  22.894  -6.679  0.00  0.00     0.167 C 
BRANCH  19  20
HETATM   20  C   UNK N   1      26.247  23.899  -7.730  0.00  0.00    -0.040 A 
HETATM   21  C   UNK N   1      26.218  23.587  -9.095  0.00  0.00     0.009 A 
HETATM   22  C   UNK N   1      25.978  24.588 -10.042  0.00  0.00     0.001 A 
HETATM   23  C   UNK N   1      25.826  25.917  -9.634  0.00  0.00     0.000 A 
HETATM   24  C   UNK N   1      25.905  26.241  -8.278  0.00  0.00     0.001 A 
HETATM   25  C   UNK N   1      26.115  25.235  -7.332  0.00  0.00     0.009 A 
ENDBRANCH  19  20
ENDBRANCH   5  19
BRANCH   9  26
HETATM   26  O   UNK N   1      32.230  20.904  -5.595  0.00  0.00    -0.340 OA
BRANCH  26  27
HETATM   27  C   UNK N   1      33.128  19.857  -5.682  0.00  0.00     0.285 C 
BRANCH  27  28
HETATM   28  C   UNK N   1      33.709  19.519  -4.345  0.00  0.00     0.164 C 
HETATM   29  O   UNK N   1      34.336  20.367  -3.732  0.00  0.00    -0.648 OA
BRANCH  28  30
HETATM   30  O   UNK N   1      33.556  18.292  -3.815  0.00  0.00    -0.775 OA
HETATM   31  H   UNK N   1      34.171  17.967  -3.188  0.00  0.00     0.167 HD
ENDBRANCH  28  30
ENDBRANCH  27  28
ENDBRANCH  26  27
ENDBRANCH   9  26
TORSDOF 9
ENDMDL
MODEL 9
REMARK VINA RESULT:      -6.3      2.869      5.038
REMARK  9 active torsions:
REMARK  status: ('A' for Active; 'I' for Inactive)
REMARK    1  A    between atoms: C_2  and  C_3 
REMARK    2  A    between atoms: C_4  and  C_24 
REMARK    3  A    between atoms: N_7  and  C_8 
REMARK    4  A    between atoms: C_8  and  C_9 
REMARK    5  A    between atoms: C_18  and  O_19 
REMARK    6  A    between atoms: O_19  and  C_20 
REMARK    7  A    between atoms: C_20  and  C_21 
REMARK    8  A    between atoms: C_21  and  O_23 
REMARK    9  A    between atoms: C_24  and  C_26 
REMARK       I    between atoms: C_26  and  N_28 
ROOT
HETATM    1  C   UNK N   1      29.635  16.620   4.406  0.00  0.00     0.027 A 
HETATM    2  C   UNK N   1      30.721  16.793   5.283  0.00  0.00     0.058 A 
HETATM    3  C   UNK N   1      30.163  17.053   6.533  0.00  0.00     0.041 A 
HETATM    4  C   UNK N   1      28.796  17.066   6.357  0.00  0.00     0.049 A 
HETATM    5  N   UNK N   1      28.464  16.828   5.071  0.00  0.00    -0.344 N 
HETATM    6  C   UNK N   1      27.913  17.305   7.409  0.00  0.00     0.031 A 
HETATM    7  C   UNK N   1      28.442  17.522   8.686  0.00  0.00     0.005 A 
HETATM    8  C   UNK N   1      29.833  17.497   8.889  0.00  0.00     0.038 A 
HETATM    9  C   UNK N   1      30.720  17.261   7.814  0.00  0.00     0.083 A 
ENDROOT
BRANCH   2  10
HETATM   10  C   UNK N   1      32.160  16.750   4.896  0.00  0.00     0.252 C 
HETATM   11  O   UNK N   1      32.734  17.787   4.606  0.00  0.00    -0.281 OA
BRANCH  10  12
HETATM   12  C   UNK N   1      32.962  15.505   4.994  0.00  0.00     0.290 C 
HETATM   13  O   UNK N   1      33.279  14.907   3.978  0.00  0.00    -0.264 OA
HETATM   14  N   UNK N   1      33.455  15.095   6.180  0.00  0.00    -0.363 N 
HETATM   15  H   UNK N   1      34.049  14.421   6.585  0.00  0.00     0.159 HD
HETATM   16  H   UNK N   1      33.097  15.673   6.892  0.00  0.00     0.159 HD
ENDBRANCH  10  12
ENDBRANCH   2  10
BRANCH   1  17
HETATM   17  C   UNK N   1      29.766  16.347   2.940  0.00  0.00     0.054 C 
HETATM   18  C   UNK N   1      29.670  14.863   2.642  0.00  0.00     0.011 C 
ENDBRANCH   1  17
BRANCH   5  19
HETATM   19  C   UNK N   1      27.047  16.881   4.646  0.00  0.00     0.167 C 
BRANCH  19  20
HETATM   20  C   UNK N   1      26.412  15.784   3.842  0.00  0.00    -0.040 A 
HETATM   21  C   UNK N   1      26.354  14.458   4.289  0.00  0.00     0.009 A 
HETATM   22  C   UNK N   1      25.857  13.453   3.452  0.00  0.00     0.001 A 
HETATM   23  C   UNK N   1      25.471  13.759   2.143  0.00  0.00     0.000 A 
HETATM   24  C   UNK N   1      25.574  15.070   1.676  0.00  0.00     0.001 A 
HETATM   25  C   UNK N   1      26.043  16.077   2.524  0.00  0.00     0.009 A 
ENDBRANCH  19  20
ENDBRANCH   5  19
BRANCH   9  26
HETATM   26  O   UNK N   1      32.060  17.222   8.017  0.00  0.00    -0.340 OA
BRANCH  26  27
HETATM   27  C   UNK N   1      32.795  18.347   8.342  0.00  0.00     0.285 C 
BRANCH  27  28
HETATM   28  C   UNK N   1      34.250  18.157   8.045  0.00  0.00     0.164 C 
HETATM   29  O   UNK N   1      35.061  18.222   8.954  0.00  0.00    -0.648 OA
BRANCH  28  30
HETATM   30  O   UNK N   1      34.674  17.925   6.789  0.00  0.00    -0.775 OA
HETATM   31  H   UNK N   1      35.474  17.461   6.638  0.00  0.00     0.167 HD
ENDBRANCH  28  30
ENDBRANCH  27  28
ENDBRANCH  26  27
ENDBRANCH   9  26
TORSDOF 9
ENDMDL
