REMARK  5 active torsions:
REMARK  status: ('A' for Active; 'I' for Inactive)
REMARK    1  A    between atoms: C_3  and  N_9 
REMARK       I    between atoms: N_9  and  C_10 
REMARK       I    between atoms: C_10  and  N_12 
REMARK    2  A    between atoms: N_12  and  C_13 
REMARK    3  A    between atoms: C_17  and  S_20 
REMARK    4  A    between atoms: C_18  and  O_19 
REMARK    5  A    between atoms: C_23  and  S_20 
ROOT
HETATM    1  C   UNK N   1       4.849  -3.818  -0.135  0.00  0.00     0.071 A 
HETATM    2  C   UNK N   1       3.576  -3.244  -0.044  0.00  0.00     0.034 A 
HETATM    3  C   UNK N   1       3.409  -1.886   0.109  0.00  0.00     0.028 A 
HETATM    4  C   UNK N   1       4.506  -1.043   0.159  0.00  0.00     0.058 A 
HETATM    5  C   UNK N   1       5.824  -1.573   0.038  0.00  0.00     0.116 A 
HETATM    6  C   UNK N   1       5.984  -2.981  -0.106  0.00  0.00     0.115 A 
HETATM    7 Cl   UNK N   1       4.135   0.659   0.388  0.00  0.00    -0.083 Cl
ENDROOT
BRANCH   1   8
HETATM    8  N   UNK N   1       4.954  -5.233  -0.320  0.00  0.00    -0.306 N 
HETATM    9  C   UNK N   1       3.983  -6.071   0.145  0.00  0.00     0.325 C 
HETATM   10  N   UNK N   1       3.857  -7.326  -0.362  0.00  0.00    -0.308 N 
HETATM   11  O   UNK N   1       3.203  -5.684   1.004  0.00  0.00    -0.247 OA
HETATM   12  H   UNK N   1       4.590  -7.695  -0.906  0.00  0.00     0.170 HD
HETATM   13  H   UNK N   1       5.735  -5.606  -0.787  0.00  0.00     0.171 HD
BRANCH  10  14
HETATM   14  C   UNK N   1       2.695  -8.129  -0.132  0.00  0.00     0.045 A 
HETATM   15  C   UNK N   1       1.372  -7.597  -0.209  0.00  0.00     0.003 A 
HETATM   16  C   UNK N   1       1.099  -6.177  -0.597  0.00  0.00     0.054 C 
HETATM   17  C   UNK N   1       0.272  -8.427   0.049  0.00  0.00     0.124 A 
HETATM   18  C   UNK N   1       0.465  -9.773   0.358  0.00  0.00     0.043 A 
HETATM   19  F   UNK N   1      -0.990  -7.928  -0.006  0.00  0.00    -0.205 F 
HETATM   20  C   UNK N   1       1.754 -10.305   0.398  0.00  0.00     0.005 A 
HETATM   21  C   UNK N   1       2.862  -9.489   0.152  0.00  0.00     0.030 A 
ENDBRANCH  10  14
ENDBRANCH   1   8
BRANCH   6  22
HETATM   22  O   UNK N   1       7.214  -3.518  -0.209  0.00  0.00    -0.357 OA
HETATM   23  H   UNK N   1       7.319  -4.446  -0.281  0.00  0.00     0.217 HD
ENDBRANCH   6  22
BRANCH   5  24
HETATM   24  S   UNK N   1       7.288  -0.475   0.063  0.00  0.00     0.185 S 
HETATM   25  O   UNK N   1       7.299  -0.794  -1.440  0.00  0.00    -0.222 OA
HETATM   26  O   UNK N   1       6.764   0.928  -0.274  0.00  0.00    -0.222 OA
BRANCH  24  27
HETATM   27  C   UNK N   1       9.082  -0.323  -0.243  0.00  0.00     0.131 C 
HETATM   28  C   UNK N   1       9.513   1.136  -0.069  0.00  0.00     0.023 C 
HETATM   29  C   UNK N   1      11.004   1.284  -0.325  0.00  0.00     0.021 C 
HETATM   30  C   UNK N   1      11.765   0.318   0.579  0.00  0.00     0.113 C 
HETATM   31  N   UNK N   1      11.330  -1.059   0.334  0.00  0.00    -0.420 N 
HETATM   32  C   UNK N   1       9.915  -1.188   0.692  0.00  0.00     0.134 C 
HETATM   33  H   UNK N   1      11.919  -1.808  -0.029  0.00  0.00     0.153 HD
ENDBRANCH  24  27
ENDBRANCH   5  24
TORSDOF 5
