MODEL 1
REMARK VINA RESULT:      -7.7      0.000      0.000
REMARK  7 active torsions:
REMARK  status: ('A' for Active; 'I' for Inactive)
REMARK    1  A    between atoms: C_9  and  O_12 
REMARK    2  A    between atoms: O_12  and  C_13 
REMARK    3  A    between atoms: C_21  and  O_30 
REMARK    4  A    between atoms: C_22  and  O_24 
REMARK    5  A    between atoms: O_24  and  C_25 
REMARK    6  A    between atoms: C_25  and  C_26 
REMARK    7  A    between atoms: C_26  and  N_29 
ROOT
HETATM    1  C   UNK N   1      28.942  17.934   7.014  0.00  0.00     0.090 A 
HETATM    2  C   UNK N   1      28.247  18.475   8.098  0.00  0.00     0.055 A 
HETATM    3  C   UNK N   1      28.734  18.340   9.396  0.00  0.00     0.091 A 
HETATM    4  N   UNK N   1      29.881  17.653   9.624  0.00  0.00    -0.365 N 
ATOM      5  HN  UNK N   1      30.219  17.546  10.581  1.00  0.00     0.165 HD
HETATM    6  C   UNK N   1      30.589  17.108   8.601  0.00  0.00     0.048 A 
HETATM    7  C   UNK N   1      30.144  17.255   7.272  0.00  0.00     0.027 A 
HETATM    8  C   UNK N   1      30.897  16.701   6.229  0.00  0.00     0.056 A 
HETATM    9  C   UNK N   1      32.072  15.986   6.487  0.00  0.00     0.102 A 
HETATM   10  C   UNK N   1      32.486  15.797   7.834  0.00  0.00     0.104 A 
HETATM   11  C   UNK N   1      31.737  16.377   8.873  0.00  0.00     0.070 A 
ENDROOT
BRANCH   1  12
HETATM   12  O   UNK N   1      28.493  18.009   5.727  0.00  0.00    -0.307 OA
BRANCH  12  13
HETATM   13  C   UNK N   1      27.434  18.598   5.091  0.00  0.00     0.115 A 
HETATM   14  C   UNK N   1      27.720  19.796   4.389  0.00  0.00     0.043 A 
HETATM   15  C   UNK N   1      26.724  20.504   3.693  0.00  0.00     0.033 A 
HETATM   16  C   UNK N   1      25.436  19.989   3.715  0.00  0.00     0.045 A 
HETATM   17  C   UNK N   1      25.134  18.840   4.379  0.00  0.00     0.034 A 
HETATM   18  N   UNK N   1      24.346  20.509   3.130  0.00  0.00    -0.359 N 
HETATM   19  C   UNK N   1      23.788  18.599   4.220  0.00  0.00     0.041 A 
HETATM   20  C   UNK N   1      26.086  18.109   5.076  0.00  0.00     0.162 A 
HETATM   21  C   UNK N   1      23.340  19.658   3.442  0.00  0.00     0.006 A 
HETATM   22  C   UNK N   1      21.932  19.848   3.006  0.00  0.00     0.068 C 
HETATM   23  F   UNK N   1      25.670  16.990   5.702  0.00  0.00    -0.202 F 
HETATM   24  H   UNK N   1      24.289  21.331   2.592  0.00  0.00     0.166 HD
ENDBRANCH  12  13
ENDBRANCH   1  12
BRANCH   9  25
HETATM   25  O   UNK N   1      32.745  15.481   5.418  0.00  0.00    -0.353 OA
HETATM   26  C   UNK N   1      33.408  16.222   4.468  0.00  0.00     0.210 C 
ENDBRANCH   9  25
BRANCH  10  27
HETATM   27  O   UNK N   1      33.577  15.050   8.130  0.00  0.00    -0.346 OA
BRANCH  27  28
HETATM   28  C   UNK N   1      34.811  15.618   8.377  0.00  0.00     0.206 C 
BRANCH  28  29
HETATM   29  C   UNK N   1      35.050  15.792   9.860  0.00  0.00     0.045 A 
HETATM   30  C   UNK N   1      36.169  14.952  10.421  0.00  0.00     0.035 A 
HETATM   31  C   UNK N   1      34.717  14.654  10.793  0.00  0.00     0.035 A 
BRANCH  29  32
HETATM   32  N   UNK N   1      34.983  17.121  10.438  0.00  0.00    -0.420 N 
HETATM   33  H   UNK N   1      35.676  17.871  10.432  0.00  0.00     0.150 HD
HETATM   34  H   UNK N   1      34.113  17.339  10.923  0.00  0.00     0.150 HD
ENDBRANCH  29  32
ENDBRANCH  28  29
ENDBRANCH  27  28
ENDBRANCH  10  27
TORSDOF 7
ENDMDL
MODEL 2
REMARK VINA RESULT:      -7.6      1.867      2.908
REMARK  7 active torsions:
REMARK  status: ('A' for Active; 'I' for Inactive)
REMARK    1  A    between atoms: C_9  and  O_12 
REMARK    2  A    between atoms: O_12  and  C_13 
REMARK    3  A    between atoms: C_21  and  O_30 
REMARK    4  A    between atoms: C_22  and  O_24 
REMARK    5  A    between atoms: O_24  and  C_25 
REMARK    6  A    between atoms: C_25  and  C_26 
REMARK    7  A    between atoms: C_26  and  N_29 
ROOT
HETATM    1  C   UNK N   1      28.962  17.077   4.721  0.00  0.00     0.090 A 
HETATM    2  C   UNK N   1      29.406  16.693   3.453  0.00  0.00     0.055 A 
HETATM    3  C   UNK N   1      30.755  16.436   3.218  0.00  0.00     0.091 A 
HETATM    4  N   UNK N   1      31.660  16.585   4.217  0.00  0.00    -0.365 N 
ATOM      5  HN  UNK N   1      32.647  16.412   4.028  1.00  0.00     0.165 HD
HETATM    6  C   UNK N   1      31.275  16.960   5.464  0.00  0.00     0.048 A 
HETATM    7  C   UNK N   1      29.914  17.195   5.747  0.00  0.00     0.027 A 
HETATM    8  C   UNK N   1      29.534  17.562   7.044  0.00  0.00     0.056 A 
HETATM    9  C   UNK N   1      30.485  17.721   8.058  0.00  0.00     0.102 A 
HETATM   10  C   UNK N   1      31.861  17.535   7.752  0.00  0.00     0.104 A 
HETATM   11  C   UNK N   1      32.231  17.142   6.453  0.00  0.00     0.070 A 
ENDROOT
BRANCH   1  12
HETATM   12  O   UNK N   1      27.658  17.372   4.998  0.00  0.00    -0.307 OA
BRANCH  12  13
HETATM   13  C   UNK N   1      26.713  18.214   4.479  0.00  0.00     0.115 A 
HETATM   14  C   UNK N   1      27.188  19.459   3.994  0.00  0.00     0.043 A 
HETATM   15  C   UNK N   1      26.323  20.417   3.438  0.00  0.00     0.033 A 
HETATM   16  C   UNK N   1      24.973  20.106   3.377  0.00  0.00     0.045 A 
HETATM   17  C   UNK N   1      24.489  18.918   3.834  0.00  0.00     0.034 A 
HETATM   18  N   UNK N   1      23.984  20.877   2.898  0.00  0.00    -0.359 N 
HETATM   19  C   UNK N   1      23.125  18.914   3.643  0.00  0.00     0.041 A 
HETATM   20  C   UNK N   1      25.307  17.943   4.388  0.00  0.00     0.162 A 
HETATM   21  C   UNK N   1      22.856  20.146   3.063  0.00  0.00     0.006 A 
HETATM   22  C   UNK N   1      21.502  20.618   2.674  0.00  0.00     0.068 C 
HETATM   23  F   UNK N   1      24.716  16.808   4.812  0.00  0.00    -0.202 F 
HETATM   24  H   UNK N   1      24.061  21.778   2.511  0.00  0.00     0.166 HD
ENDBRANCH  12  13
ENDBRANCH   1  12
BRANCH   9  25
HETATM   25  O   UNK N   1      30.034  18.079   9.290  0.00  0.00    -0.353 OA
HETATM   26  C   UNK N   1      28.830  17.705   9.840  0.00  0.00     0.210 C 
ENDBRANCH   9  25
BRANCH  10  27
HETATM   27  O   UNK N   1      32.819  17.750   8.686  0.00  0.00    -0.346 OA
BRANCH  27  28
HETATM   28  C   UNK N   1      34.126  17.341   8.506  0.00  0.00     0.206 C 
BRANCH  28  29
HETATM   29  C   UNK N   1      34.563  16.398   9.605  0.00  0.00     0.045 A 
HETATM   30  C   UNK N   1      35.296  15.171   9.127  0.00  0.00     0.035 A 
HETATM   31  C   UNK N   1      33.894  15.052   9.722  0.00  0.00     0.035 A 
BRANCH  29  32
HETATM   32  N   UNK N   1      35.099  16.945  10.837  0.00  0.00    -0.420 N 
HETATM   33  H   UNK N   1      35.475  16.464  11.656  0.00  0.00     0.150 HD
HETATM   34  H   UNK N   1      35.101  17.963  10.895  0.00  0.00     0.150 HD
ENDBRANCH  29  32
ENDBRANCH  28  29
ENDBRANCH  27  28
ENDBRANCH  10  27
TORSDOF 7
ENDMDL
MODEL 3
REMARK VINA RESULT:      -7.6      3.114     10.190
REMARK  7 active torsions:
REMARK  status: ('A' for Active; 'I' for Inactive)
REMARK    1  A    between atoms: C_9  and  O_12 
REMARK    2  A    between atoms: O_12  and  C_13 
REMARK    3  A    between atoms: C_21  and  O_30 
REMARK    4  A    between atoms: C_22  and  O_24 
REMARK    5  A    between atoms: O_24  and  C_25 
REMARK    6  A    between atoms: C_25  and  C_26 
REMARK    7  A    between atoms: C_26  and  N_29 
ROOT
HETATM    1  C   UNK N   1      33.662  16.295   7.629  0.00  0.00     0.090 A 
HETATM    2  C   UNK N   1      34.570  15.888   6.649  0.00  0.00     0.055 A 
HETATM    3  C   UNK N   1      34.215  15.893   5.302  0.00  0.00     0.091 A 
HETATM    4  N   UNK N   1      32.966  16.270   4.930  0.00  0.00    -0.365 N 
ATOM      5  HN  UNK N   1      32.712  16.252   3.942  1.00  0.00     0.165 HD
HETATM    6  C   UNK N   1      32.049  16.670   5.849  0.00  0.00     0.048 A 
HETATM    7  C   UNK N   1      32.386  16.710   7.217  0.00  0.00     0.027 A 
HETATM    8  C   UNK N   1      31.433  17.144   8.147  0.00  0.00     0.056 A 
HETATM    9  C   UNK N   1      30.146  17.518   7.743  0.00  0.00     0.102 A 
HETATM   10  C   UNK N   1      29.798  17.424   6.368  0.00  0.00     0.104 A 
HETATM   11  C   UNK N   1      30.768  17.010   5.438  0.00  0.00     0.070 A 
ENDROOT
BRANCH   1  12
HETATM   12  O   UNK N   1      33.948  16.278   8.965  0.00  0.00    -0.307 OA
BRANCH  12  13
HETATM   13  C   UNK N   1      34.415  15.351   9.855  0.00  0.00     0.115 A 
HETATM   14  C   UNK N   1      34.233  13.993   9.490  0.00  0.00     0.043 A 
HETATM   15  C   UNK N   1      34.665  12.939  10.315  0.00  0.00     0.033 A 
HETATM   16  C   UNK N   1      35.281  13.271  11.513  0.00  0.00     0.045 A 
HETATM   17  C   UNK N   1      35.470  14.566  11.887  0.00  0.00     0.034 A 
HETATM   18  N   UNK N   1      35.754  12.426  12.442  0.00  0.00    -0.359 N 
HETATM   19  C   UNK N   1      36.094  14.566  13.114  0.00  0.00     0.041 A 
HETATM   20  C   UNK N   1      35.062  15.637  11.103  0.00  0.00     0.162 A 
HETATM   21  C   UNK N   1      36.249  13.221  13.420  0.00  0.00     0.006 A 
HETATM   22  C   UNK N   1      36.872  12.705  14.667  0.00  0.00     0.068 C 
HETATM   23  F   UNK N   1      35.296  16.876  11.578  0.00  0.00    -0.202 F 
HETATM   24  H   UNK N   1      35.743  11.443  12.419  0.00  0.00     0.166 HD
ENDBRANCH  12  13
ENDBRANCH   1  12
BRANCH   9  25
HETATM   25  O   UNK N   1      29.281  17.927   8.709  0.00  0.00    -0.353 OA
HETATM   26  C   UNK N   1      29.622  18.627   9.844  0.00  0.00     0.210 C 
ENDBRANCH   9  25
BRANCH  10  27
HETATM   27  O   UNK N   1      28.542  17.706   5.945  0.00  0.00    -0.346 OA
BRANCH  27  28
HETATM   28  C   UNK N   1      28.247  18.847   5.226  0.00  0.00     0.206 C 
BRANCH  28  29
HETATM   29  C   UNK N   1      27.313  19.756   5.993  0.00  0.00     0.045 A 
HETATM   30  C   UNK N   1      26.018  20.069   5.288  0.00  0.00     0.035 A 
HETATM   31  C   UNK N   1      27.074  21.156   5.483  0.00  0.00     0.035 A 
BRANCH  29  32
HETATM   32  N   UNK N   1      27.160  19.572   7.424  0.00  0.00    -0.420 N 
HETATM   33  H   UNK N   1      27.857  19.625   8.167  0.00  0.00     0.150 HD
HETATM   34  H   UNK N   1      26.213  19.355   7.733  0.00  0.00     0.150 HD
ENDBRANCH  29  32
ENDBRANCH  28  29
ENDBRANCH  27  28
ENDBRANCH  10  27
TORSDOF 7
ENDMDL
MODEL 4
REMARK VINA RESULT:      -7.5      2.629     10.181
REMARK  7 active torsions:
REMARK  status: ('A' for Active; 'I' for Inactive)
REMARK    1  A    between atoms: C_9  and  O_12 
REMARK    2  A    between atoms: O_12  and  C_13 
REMARK    3  A    between atoms: C_21  and  O_30 
REMARK    4  A    between atoms: C_22  and  O_24 
REMARK    5  A    between atoms: O_24  and  C_25 
REMARK    6  A    between atoms: C_25  and  C_26 
REMARK    7  A    between atoms: C_26  and  N_29 
ROOT
HETATM    1  C   UNK N   1      27.081  18.388   4.794  0.00  0.00     0.090 A 
HETATM    2  C   UNK N   1      27.697  19.477   4.174  0.00  0.00     0.055 A 
HETATM    3  C   UNK N   1      26.944  20.422   3.480  0.00  0.00     0.091 A 
HETATM    4  N   UNK N   1      25.600  20.276   3.376  0.00  0.00    -0.365 N 
ATOM      5  HN  UNK N   1      25.061  20.964   2.850  1.00  0.00     0.165 HD
HETATM    6  C   UNK N   1      24.958  19.231   3.960  0.00  0.00     0.048 A 
HETATM    7  C   UNK N   1      25.684  18.275   4.699  0.00  0.00     0.027 A 
HETATM    8  C   UNK N   1      25.003  17.215   5.309  0.00  0.00     0.056 A 
HETATM    9  C   UNK N   1      23.616  17.077   5.180  0.00  0.00     0.102 A 
HETATM   10  C   UNK N   1      22.898  18.015   4.389  0.00  0.00     0.104 A 
HETATM   11  C   UNK N   1      23.587  19.090   3.800  0.00  0.00     0.070 A 
ENDROOT
BRANCH   1  12
HETATM   12  O   UNK N   1      27.774  17.417   5.458  0.00  0.00    -0.307 OA
BRANCH  12  13
HETATM   13  C   UNK N   1      28.817  17.388   6.343  0.00  0.00     0.115 A 
HETATM   14  C   UNK N   1      28.467  17.432   7.717  0.00  0.00     0.043 A 
HETATM   15  C   UNK N   1      29.440  17.411   8.731  0.00  0.00     0.033 A 
HETATM   16  C   UNK N   1      30.771  17.346   8.344  0.00  0.00     0.045 A 
HETATM   17  C   UNK N   1      31.135  17.302   7.033  0.00  0.00     0.034 A 
HETATM   18  N   UNK N   1      31.847  17.327   9.145  0.00  0.00    -0.359 N 
HETATM   19  C   UNK N   1      32.510  17.250   6.976  0.00  0.00     0.041 A 
HETATM   20  C   UNK N   1      30.208  17.318   6.000  0.00  0.00     0.162 A 
HETATM   21  C   UNK N   1      32.909  17.269   8.306  0.00  0.00     0.006 A 
HETATM   22  C   UNK N   1      34.322  17.239   8.764  0.00  0.00     0.068 C 
HETATM   23  F   UNK N   1      30.685  17.276   4.740  0.00  0.00    -0.202 F 
HETATM   24  H   UNK N   1      31.863  17.350  10.128  0.00  0.00     0.166 HD
ENDBRANCH  12  13
ENDBRANCH   1  12
BRANCH   9  25
HETATM   25  O   UNK N   1      23.032  16.020   5.805  0.00  0.00    -0.353 OA
HETATM   26  C   UNK N   1      22.915  14.750   5.288  0.00  0.00     0.210 C 
ENDBRANCH   9  25
BRANCH  10  27
HETATM   27  O   UNK N   1      21.567  17.876   4.179  0.00  0.00    -0.346 OA
BRANCH  27  28
HETATM   28  C   UNK N   1      21.030  17.770   2.912  0.00  0.00     0.206 C 
BRANCH  28  29
HETATM   29  C   UNK N   1      20.051  18.889   2.633  0.00  0.00     0.045 A 
HETATM   30  C   UNK N   1      20.606  20.018   1.801  0.00  0.00     0.035 A 
HETATM   31  C   UNK N   1      20.277  20.234   3.278  0.00  0.00     0.035 A 
BRANCH  29  32
HETATM   32  N   UNK N   1      18.673  18.565   2.317  0.00  0.00    -0.420 N 
HETATM   33  H   UNK N   1      18.087  18.887   1.547  0.00  0.00     0.150 HD
HETATM   34  H   UNK N   1      18.222  17.917   2.962  0.00  0.00     0.150 HD
ENDBRANCH  29  32
ENDBRANCH  28  29
ENDBRANCH  27  28
ENDBRANCH  10  27
TORSDOF 7
ENDMDL
MODEL 5
REMARK VINA RESULT:      -7.2      2.468      9.694
REMARK  7 active torsions:
REMARK  status: ('A' for Active; 'I' for Inactive)
REMARK    1  A    between atoms: C_9  and  O_12 
REMARK    2  A    between atoms: O_12  and  C_13 
REMARK    3  A    between atoms: C_21  and  O_30 
REMARK    4  A    between atoms: C_22  and  O_24 
REMARK    5  A    between atoms: O_24  and  C_25 
REMARK    6  A    between atoms: C_25  and  C_26 
REMARK    7  A    between atoms: C_26  and  N_29 
ROOT
HETATM    1  C   UNK N   1      28.985  17.018   3.858  0.00  0.00     0.090 A 
HETATM    2  C   UNK N   1      29.045  15.733   3.313  0.00  0.00     0.055 A 
HETATM    3  C   UNK N   1      27.900  15.119   2.809  0.00  0.00     0.091 A 
HETATM    4  N   UNK N   1      26.704  15.756   2.869  0.00  0.00    -0.365 N 
ATOM      5  HN  UNK N   1      25.870  15.289   2.513  1.00  0.00     0.165 HD
HETATM    6  C   UNK N   1      26.598  17.004   3.393  0.00  0.00     0.048 A 
HETATM    7  C   UNK N   1      27.741  17.670   3.880  0.00  0.00     0.027 A 
HETATM    8  C   UNK N   1      27.614  18.964   4.400  0.00  0.00     0.056 A 
HETATM    9  C   UNK N   1      26.368  19.599   4.462  0.00  0.00     0.102 A 
HETATM   10  C   UNK N   1      25.212  18.901   4.017  0.00  0.00     0.104 A 
HETATM   11  C   UNK N   1      25.353  17.611   3.475  0.00  0.00     0.070 A 
ENDROOT
BRANCH   1  12
HETATM   12  O   UNK N   1      30.068  17.653   4.395  0.00  0.00    -0.307 OA
BRANCH  12  13
HETATM   13  C   UNK N   1      31.073  17.314   5.258  0.00  0.00     0.115 A 
HETATM   14  C   UNK N   1      32.394  17.521   4.785  0.00  0.00     0.043 A 
HETATM   15  C   UNK N   1      33.519  17.214   5.570  0.00  0.00     0.033 A 
HETATM   16  C   UNK N   1      33.298  16.696   6.837  0.00  0.00     0.045 A 
HETATM   17  C   UNK N   1      32.041  16.488   7.317  0.00  0.00     0.034 A 
HETATM   18  N   UNK N   1      34.224  16.329   7.736  0.00  0.00    -0.359 N 
HETATM   19  C   UNK N   1      32.152  15.964   8.586  0.00  0.00     0.041 A 
HETATM   20  C   UNK N   1      30.902  16.779   6.578  0.00  0.00     0.162 A 
HETATM   21  C   UNK N   1      33.520  15.881   8.803  0.00  0.00     0.006 A 
HETATM   22  C   UNK N   1      34.147  15.360  10.046  0.00  0.00     0.068 C 
HETATM   23  F   UNK N   1      29.710  16.527   7.154  0.00  0.00    -0.202 F 
HETATM   24  H   UNK N   1      35.202  16.374   7.641  0.00  0.00     0.166 HD
ENDBRANCH  12  13
ENDBRANCH   1  12
BRANCH   9  25
HETATM   25  O   UNK N   1      26.332  20.856   4.980  0.00  0.00    -0.353 OA
HETATM   26  C   UNK N   1      26.530  21.183   6.301  0.00  0.00     0.210 C 
ENDBRANCH   9  25
BRANCH  10  27
HETATM   27  O   UNK N   1      23.979  19.451   4.128  0.00  0.00    -0.346 OA
BRANCH  27  28
HETATM   28  C   UNK N   1      23.370  20.107   3.077  0.00  0.00     0.206 C 
BRANCH  28  29
HETATM   29  C   UNK N   1      21.868  19.925   3.111  0.00  0.00     0.045 A 
HETATM   30  C   UNK N   1      21.353  19.165   4.306  0.00  0.00     0.035 A 
HETATM   31  C   UNK N   1      21.295  18.544   2.912  0.00  0.00     0.035 A 
BRANCH  29  32
HETATM   32  N   UNK N   1      21.011  21.027   2.716  0.00  0.00    -0.420 N 
HETATM   33  H   UNK N   1      19.996  21.063   2.622  0.00  0.00     0.150 HD
HETATM   34  H   UNK N   1      21.497  21.897   2.500  0.00  0.00     0.150 HD
ENDBRANCH  29  32
ENDBRANCH  28  29
ENDBRANCH  27  28
ENDBRANCH  10  27
TORSDOF 7
ENDMDL
MODEL 6
REMARK VINA RESULT:      -7.0      5.920     11.587
REMARK  7 active torsions:
REMARK  status: ('A' for Active; 'I' for Inactive)
REMARK    1  A    between atoms: C_9  and  O_12 
REMARK    2  A    between atoms: O_12  and  C_13 
REMARK    3  A    between atoms: C_21  and  O_30 
REMARK    4  A    between atoms: C_22  and  O_24 
REMARK    5  A    between atoms: O_24  and  C_25 
REMARK    6  A    between atoms: C_25  and  C_26 
REMARK    7  A    between atoms: C_26  and  N_29 
ROOT
HETATM    1  C   UNK N   1      36.624  13.798  10.503  0.00  0.00     0.090 A 
HETATM    2  C   UNK N   1      37.568  12.772  10.414  0.00  0.00     0.055 A 
HETATM    3  C   UNK N   1      38.051  12.354   9.176  0.00  0.00     0.091 A 
HETATM    4  N   UNK N   1      37.586  12.924   8.037  0.00  0.00    -0.365 N 
ATOM      5  HN  UNK N   1      37.934  12.598   7.135  1.00  0.00     0.165 HD
HETATM    6  C   UNK N   1      36.666  13.923   8.075  0.00  0.00     0.048 A 
HETATM    7  C   UNK N   1      36.181  14.395   9.312  0.00  0.00     0.027 A 
HETATM    8  C   UNK N   1      35.247  15.438   9.331  0.00  0.00     0.056 A 
HETATM    9  C   UNK N   1      34.771  16.005   8.144  0.00  0.00     0.102 A 
HETATM   10  C   UNK N   1      35.226  15.488   6.899  0.00  0.00     0.104 A 
HETATM   11  C   UNK N   1      36.182  14.457   6.889  0.00  0.00     0.070 A 
ENDROOT
BRANCH   1  12
HETATM   12  O   UNK N   1      36.094  14.223  11.687  0.00  0.00    -0.307 OA
BRANCH  12  13
HETATM   13  C   UNK N   1      35.759  13.639  12.878  0.00  0.00     0.115 A 
HETATM   14  C   UNK N   1      34.947  12.478  12.792  0.00  0.00     0.043 A 
HETATM   15  C   UNK N   1      34.529  11.781  13.939  0.00  0.00     0.033 A 
HETATM   16  C   UNK N   1      34.937  12.267  15.172  0.00  0.00     0.045 A 
HETATM   17  C   UNK N   1      35.718  13.377  15.283  0.00  0.00     0.034 A 
HETATM   18  N   UNK N   1      34.644  11.761  16.380  0.00  0.00    -0.359 N 
HETATM   19  C   UNK N   1      35.943  13.605  16.622  0.00  0.00     0.041 A 
HETATM   20  C   UNK N   1      36.155  14.094  14.178  0.00  0.00     0.162 A 
HETATM   21  C   UNK N   1      35.259  12.582  17.264  0.00  0.00     0.006 A 
HETATM   22  C   UNK N   1      35.195  12.404  18.738  0.00  0.00     0.068 C 
HETATM   23  F   UNK N   1      36.918  15.181  14.410  0.00  0.00    -0.202 F 
HETATM   24  H   UNK N   1      34.099  10.966  16.581  0.00  0.00     0.166 HD
ENDBRANCH  12  13
ENDBRANCH   1  12
BRANCH   9  25
HETATM   25  O   UNK N   1      33.866  17.014   8.250  0.00  0.00    -0.353 OA
HETATM   26  C   UNK N   1      34.115  18.342   7.990  0.00  0.00     0.210 C 
ENDBRANCH   9  25
BRANCH  10  27
HETATM   27  O   UNK N   1      34.736  15.960   5.727  0.00  0.00    -0.346 OA
BRANCH  27  28
HETATM   28  C   UNK N   1      33.804  15.261   4.986  0.00  0.00     0.206 C 
BRANCH  28  29
HETATM   29  C   UNK N   1      33.080  16.168   4.015  0.00  0.00     0.045 A 
HETATM   30  C   UNK N   1      33.014  17.614   4.435  0.00  0.00     0.035 A 
HETATM   31  C   UNK N   1      31.750  16.755   4.417  0.00  0.00     0.035 A 
BRANCH  29  32
HETATM   32  N   UNK N   1      33.287  15.991   2.590  0.00  0.00    -0.420 N 
HETATM   33  H   UNK N   1      32.962  16.561   1.808  0.00  0.00     0.150 HD
HETATM   34  H   UNK N   1      33.839  15.174   2.331  0.00  0.00     0.150 HD
ENDBRANCH  29  32
ENDBRANCH  28  29
ENDBRANCH  27  28
ENDBRANCH  10  27
TORSDOF 7
ENDMDL
MODEL 7
REMARK VINA RESULT:      -6.9      2.792      9.782
REMARK  7 active torsions:
REMARK  status: ('A' for Active; 'I' for Inactive)
REMARK    1  A    between atoms: C_9  and  O_12 
REMARK    2  A    between atoms: O_12  and  C_13 
REMARK    3  A    between atoms: C_21  and  O_30 
REMARK    4  A    between atoms: C_22  and  O_24 
REMARK    5  A    between atoms: O_24  and  C_25 
REMARK    6  A    between atoms: C_25  and  C_26 
REMARK    7  A    between atoms: C_26  and  N_29 
ROOT
HETATM    1  C   UNK N   1      27.765  18.599   4.748  0.00  0.00     0.090 A 
HETATM    2  C   UNK N   1      27.990  19.962   4.955  0.00  0.00     0.055 A 
HETATM    3  C   UNK N   1      26.930  20.866   4.963  0.00  0.00     0.091 A 
HETATM    4  N   UNK N   1      25.665  20.432   4.741  0.00  0.00    -0.365 N 
ATOM      5  HN  UNK N   1      24.899  21.105   4.732  1.00  0.00     0.165 HD
HETATM    6  C   UNK N   1      25.399  19.116   4.532  0.00  0.00     0.048 A 
HETATM    7  C   UNK N   1      26.443  18.169   4.551  0.00  0.00     0.027 A 
HETATM    8  C   UNK N   1      26.146  16.815   4.352  0.00  0.00     0.056 A 
HETATM    9  C   UNK N   1      24.834  16.389   4.113  0.00  0.00     0.102 A 
HETATM   10  C   UNK N   1      23.795  17.357   4.043  0.00  0.00     0.104 A 
HETATM   11  C   UNK N   1      24.098  18.711   4.268  0.00  0.00     0.070 A 
ENDROOT
BRANCH   1  12
HETATM   12  O   UNK N   1      28.770  17.675   4.697  0.00  0.00    -0.307 OA
BRANCH  12  13
HETATM   13  C   UNK N   1      29.998  17.531   5.280  0.00  0.00     0.115 A 
HETATM   14  C   UNK N   1      31.105  17.485   4.394  0.00  0.00     0.043 A 
HETATM   15  C   UNK N   1      32.423  17.337   4.861  0.00  0.00     0.033 A 
HETATM   16  C   UNK N   1      32.612  17.235   6.232  0.00  0.00     0.045 A 
HETATM   17  C   UNK N   1      31.569  17.278   7.105  0.00  0.00     0.034 A 
HETATM   18  N   UNK N   1      33.777  17.080   6.880  0.00  0.00    -0.359 N 
HETATM   19  C   UNK N   1      32.075  17.146   8.378  0.00  0.00     0.041 A 
HETATM   20  C   UNK N   1      30.252  17.425   6.688  0.00  0.00     0.162 A 
HETATM   21  C   UNK N   1      33.445  17.025   8.191  0.00  0.00     0.006 A 
HETATM   22  C   UNK N   1      34.434  16.847   9.286  0.00  0.00     0.068 C 
HETATM   23  F   UNK N   1      29.301  17.448   7.642  0.00  0.00    -0.202 F 
HETATM   24  H   UNK N   1      34.677  17.019   6.487  0.00  0.00     0.166 HD
ENDBRANCH  12  13
ENDBRANCH   1  12
BRANCH   9  25
HETATM   25  O   UNK N   1      24.632  15.057   3.931  0.00  0.00    -0.353 OA
HETATM   26  C   UNK N   1      24.818  14.374   2.751  0.00  0.00     0.210 C 
ENDBRANCH   9  25
BRANCH  10  27
HETATM   27  O   UNK N   1      22.524  16.995   3.742  0.00  0.00    -0.346 OA
BRANCH  27  28
HETATM   28  C   UNK N   1      21.431  17.559   4.370  0.00  0.00     0.206 C 
BRANCH  28  29
HETATM   29  C   UNK N   1      20.164  17.338   3.573  0.00  0.00     0.045 A 
HETATM   30  C   UNK N   1      20.365  17.258   2.081  0.00  0.00     0.035 A 
HETATM   31  C   UNK N   1      19.646  18.455   2.702  0.00  0.00     0.035 A 
BRANCH  29  32
HETATM   32  N   UNK N   1      19.166  16.411   4.070  0.00  0.00    -0.420 N 
HETATM   33  H   UNK N   1      19.002  16.076   5.020  0.00  0.00     0.150 HD
HETATM   34  H   UNK N   1      18.532  16.038   3.365  0.00  0.00     0.150 HD
ENDBRANCH  29  32
ENDBRANCH  28  29
ENDBRANCH  27  28
ENDBRANCH  10  27
TORSDOF 7
ENDMDL
MODEL 8
REMARK VINA RESULT:      -6.8      3.012      9.333
REMARK  7 active torsions:
REMARK  status: ('A' for Active; 'I' for Inactive)
REMARK    1  A    between atoms: C_9  and  O_12 
REMARK    2  A    between atoms: O_12  and  C_13 
REMARK    3  A    between atoms: C_21  and  O_30 
REMARK    4  A    between atoms: C_22  and  O_24 
REMARK    5  A    between atoms: O_24  and  C_25 
REMARK    6  A    between atoms: C_25  and  C_26 
REMARK    7  A    between atoms: C_26  and  N_29 
ROOT
HETATM    1  C   UNK N   1      31.887  16.898   5.336  0.00  0.00     0.090 A 
HETATM    2  C   UNK N   1      32.764  16.291   4.434  0.00  0.00     0.055 A 
HETATM    3  C   UNK N   1      32.330  15.909   3.166  0.00  0.00     0.091 A 
HETATM    4  N   UNK N   1      31.037  16.100   2.804  0.00  0.00    -0.365 N 
ATOM      5  HN  UNK N   1      30.727  15.800   1.880  1.00  0.00     0.165 HD
HETATM    6  C   UNK N   1      30.148  16.683   3.650  0.00  0.00     0.048 A 
HETATM    7  C   UNK N   1      30.561  17.113   4.927  0.00  0.00     0.027 A 
HETATM    8  C   UNK N   1      29.634  17.730   5.778  0.00  0.00     0.056 A 
HETATM    9  C   UNK N   1      28.302  17.907   5.388  0.00  0.00     0.102 A 
HETATM   10  C   UNK N   1      27.881  17.422   4.119  0.00  0.00     0.104 A 
HETATM   11  C   UNK N   1      28.824  16.827   3.262  0.00  0.00     0.070 A 
ENDROOT
BRANCH   1  12
HETATM   12  O   UNK N   1      32.251  17.261   6.601  0.00  0.00    -0.307 OA
BRANCH  12  13
HETATM   13  C   UNK N   1      32.739  16.616   7.704  0.00  0.00     0.115 A 
HETATM   14  C   UNK N   1      32.073  15.419   8.069  0.00  0.00     0.043 A 
HETATM   15  C   UNK N   1      32.471  14.658   9.182  0.00  0.00     0.033 A 
HETATM   16  C   UNK N   1      33.548  15.119   9.924  0.00  0.00     0.045 A 
HETATM   17  C   UNK N   1      34.208  16.264   9.596  0.00  0.00     0.034 A 
HETATM   18  N   UNK N   1      34.079  14.555  11.020  0.00  0.00    -0.359 N 
HETATM   19  C   UNK N   1      35.212  16.454  10.517  0.00  0.00     0.041 A 
HETATM   20  C   UNK N   1      33.850  17.044   8.504  0.00  0.00     0.162 A 
HETATM   21  C   UNK N   1      35.095  15.374  11.381  0.00  0.00     0.006 A 
HETATM   22  C   UNK N   1      35.964  15.139  12.562  0.00  0.00     0.068 C 
HETATM   23  F   UNK N   1      34.571  18.160   8.279  0.00  0.00    -0.202 F 
HETATM   24  H   UNK N   1      33.791  13.726  11.465  0.00  0.00     0.166 HD
ENDBRANCH  12  13
ENDBRANCH   1  12
BRANCH   9  25
HETATM   25  O   UNK N   1      27.467  18.515   6.272  0.00  0.00    -0.353 OA
HETATM   26  C   UNK N   1      27.293  19.873   6.404  0.00  0.00     0.210 C 
ENDBRANCH   9  25
BRANCH  10  27
HETATM   27  O   UNK N   1      26.585  17.509   3.734  0.00  0.00    -0.346 OA
BRANCH  27  28
HETATM   28  C   UNK N   1      25.715  16.442   3.838  0.00  0.00     0.206 C 
BRANCH  28  29
HETATM   29  C   UNK N   1      24.839  16.563   5.065  0.00  0.00     0.045 A 
HETATM   30  C   UNK N   1      25.237  15.673   6.215  0.00  0.00     0.035 A 
HETATM   31  C   UNK N   1      23.946  15.407   5.442  0.00  0.00     0.035 A 
BRANCH  29  32
HETATM   32  N   UNK N   1      24.383  17.875   5.484  0.00  0.00    -0.420 N 
HETATM   33  H   UNK N   1      23.896  18.597   4.952  0.00  0.00     0.150 HD
HETATM   34  H   UNK N   1      24.578  18.111   6.457  0.00  0.00     0.150 HD
ENDBRANCH  29  32
ENDBRANCH  28  29
ENDBRANCH  27  28
ENDBRANCH  10  27
TORSDOF 7
ENDMDL
MODEL 9
REMARK VINA RESULT:      -6.8     12.014     15.729
REMARK  7 active torsions:
REMARK  status: ('A' for Active; 'I' for Inactive)
REMARK    1  A    between atoms: C_9  and  O_12 
REMARK    2  A    between atoms: O_12  and  C_13 
REMARK    3  A    between atoms: C_21  and  O_30 
REMARK    4  A    between atoms: C_22  and  O_24 
REMARK    5  A    between atoms: O_24  and  C_25 
REMARK    6  A    between atoms: C_25  and  C_26 
REMARK    7  A    between atoms: C_26  and  N_29 
ROOT
HETATM    1  C   UNK N   1      30.740  22.028  -5.145  0.00  0.00     0.090 A 
HETATM    2  C   UNK N   1      31.664  21.701  -4.150  0.00  0.00     0.055 A 
HETATM    3  C   UNK N   1      31.439  22.059  -2.823  0.00  0.00     0.091 A 
HETATM    4  N   UNK N   1      30.326  22.758  -2.487  0.00  0.00    -0.365 N 
ATOM      5  HN  UNK N   1      30.180  23.030  -1.514  1.00  0.00     0.165 HD
HETATM    6  C   UNK N   1      29.402  23.100  -3.421  0.00  0.00     0.048 A 
HETATM    7  C   UNK N   1      29.580  22.724  -4.768  0.00  0.00     0.027 A 
HETATM    8  C   UNK N   1      28.607  23.071  -5.713  0.00  0.00     0.056 A 
HETATM    9  C   UNK N   1      27.471  23.802  -5.348  0.00  0.00     0.102 A 
HETATM   10  C   UNK N   1      27.325  24.223  -3.997  0.00  0.00     0.104 A 
HETATM   11  C   UNK N   1      28.295  23.850  -3.050  0.00  0.00     0.070 A 
ENDROOT
BRANCH   1  12
HETATM   12  O   UNK N   1      30.927  21.730  -6.464  0.00  0.00    -0.307 OA
BRANCH  12  13
HETATM   13  C   UNK N   1      30.938  20.590  -7.220  0.00  0.00     0.115 A 
HETATM   14  C   UNK N   1      29.716  19.871  -7.276  0.00  0.00     0.043 A 
HETATM   15  C   UNK N   1      29.590  18.681  -8.014  0.00  0.00     0.033 A 
HETATM   16  C   UNK N   1      30.709  18.224  -8.694  0.00  0.00     0.045 A 
HETATM   17  C   UNK N   1      31.893  18.894  -8.659  0.00  0.00     0.034 A 
HETATM   18  N   UNK N   1      30.805  17.114  -9.443  0.00  0.00    -0.359 N 
HETATM   19  C   UNK N   1      32.801  18.192  -9.418  0.00  0.00     0.041 A 
HETATM   20  C   UNK N   1      32.062  20.073  -7.945  0.00  0.00     0.162 A 
HETATM   21  C   UNK N   1      32.086  17.097  -9.883  0.00  0.00     0.006 A 
HETATM   22  C   UNK N   1      32.646  16.028 -10.750  0.00  0.00     0.068 C 
HETATM   23  F   UNK N   1      33.281  20.646  -7.977  0.00  0.00    -0.202 F 
HETATM   24  H   UNK N   1      30.099  16.455  -9.631  0.00  0.00     0.166 HD
ENDBRANCH  12  13
ENDBRANCH   1  12
BRANCH   9  25
HETATM   25  O   UNK N   1      26.574  24.096  -6.326  0.00  0.00    -0.353 OA
HETATM   26  C   UNK N   1      25.786  23.184  -6.990  0.00  0.00     0.210 C 
ENDBRANCH   9  25
BRANCH  10  27
HETATM   27  O   UNK N   1      26.277  24.994  -3.617  0.00  0.00    -0.346 OA
BRANCH  27  28
HETATM   28  C   UNK N   1      26.407  26.350  -3.389  0.00  0.00     0.206 C 
BRANCH  28  29
HETATM   29  C   UNK N   1      25.928  27.156  -4.576  0.00  0.00     0.045 A 
HETATM   30  C   UNK N   1      27.009  27.921  -5.296  0.00  0.00     0.035 A 
HETATM   31  C   UNK N   1      25.943  28.662  -4.490  0.00  0.00     0.035 A 
BRANCH  29  32
HETATM   32  N   UNK N   1      24.936  26.585  -5.467  0.00  0.00    -0.420 N 
HETATM   33  H   UNK N   1      24.117  26.016  -5.254  0.00  0.00     0.150 HD
HETATM   34  H   UNK N   1      25.079  26.783  -6.458  0.00  0.00     0.150 HD
ENDBRANCH  29  32
ENDBRANCH  28  29
ENDBRANCH  27  28
ENDBRANCH  10  27
TORSDOF 7
ENDMDL
