REMARK  7 active torsions:
REMARK  status: ('A' for Active; 'I' for Inactive)
REMARK    1  A    between atoms: C_4  and  C_2 
REMARK    2  A    between atoms: C_4  and  C_18 
REMARK    3  A    between atoms: C_7  and  N_9 
REMARK    4  A    between atoms: C_10  and  N_9 
REMARK    5  A    between atoms: C_15  and  O_16 
REMARK    6  A    between atoms: C_18  and  N_19 
REMARK    7  A    between atoms: C_25  and  C_29 
ROOT
HETATM    1  C   UNK N   1      -3.169   0.584   0.094  0.00  0.00    -0.020 C 
HETATM    2  C   UNK N   1      -3.019   0.193   1.562  0.00  0.00     0.013 C 
HETATM    3  C   UNK N   1      -4.265  -0.614   1.867  0.00  0.00     0.026 C 
HETATM    4  C   UNK N   1      -4.555  -1.384   0.590  0.00  0.00     0.077 C 
HETATM    5  C   UNK N   1      -4.025  -0.503  -0.539  0.00  0.00     0.036 C 
ENDROOT
BRANCH   1   6
HETATM    6  C   UNK N   1      -3.864   1.959  -0.068  0.00  0.00    -0.013 C 
HETATM    7  C   UNK N   1      -5.271   2.027   0.506  0.00  0.00     0.010 C 
HETATM    8  C   UNK N   1      -3.038   3.098   0.521  0.00  0.00     0.010 C 
ENDBRANCH   1   6
BRANCH   1   9
HETATM    9  C   UNK N   1      -1.837   0.670  -0.662  0.00  0.00     0.127 C 
BRANCH   9  10
HETATM   10  N   UNK N   1      -0.770  -0.255  -0.281  0.00  0.00    -0.407 N 
HETATM   11  C   UNK N   1      -1.083  -1.686  -0.104  0.00  0.00     0.123 C 
HETATM   12  C   UNK N   1       0.140  -2.510   0.402  0.00  0.00     0.077 C 
HETATM   13  C   UNK N   1       1.429  -1.729   0.308  0.00  0.00     0.018 A 
HETATM   14  C   UNK N   1       1.388  -0.348   0.523  0.00  0.00    -0.017 A 
HETATM   15  N   UNK N   1       2.589  -2.323  -0.075  0.00  0.00    -0.368 N 
HETATM   16  C   UNK N   1       2.522   0.422   0.312  0.00  0.00     0.028 A 
HETATM   17  C   UNK N   1       0.075   0.274   0.778  0.00  0.00     0.157 C 
HETATM   18  C   UNK N   1       3.703  -0.193  -0.097  0.00  0.00     0.063 A 
HETATM   19  C   UNK N   1       3.722  -1.587  -0.277  0.00  0.00     0.104 A 
ATOM     20  HN  UNK N   1       2.615  -3.333  -0.212  1.00  0.00     0.165 HD
BRANCH  18  21
HETATM   21  C   UNK N   1       4.899   0.657  -0.403  0.00  0.00     0.418 C 
HETATM   22  F   UNK N   1       5.289   1.341   0.734  0.00  0.00    -0.166 F 
HETATM   23  F   UNK N   1       5.957  -0.111  -0.856  0.00  0.00    -0.166 F 
HETATM   24  F   UNK N   1       4.562   1.571  -1.386  0.00  0.00    -0.166 F 
ENDBRANCH  18  21
ENDBRANCH   9  10
ENDBRANCH   1   9
BRANCH   4  25
HETATM   25  N   UNK N   1      -3.837  -2.657   0.626  0.00  0.00    -0.410 N 
HETATM   26  H   UNK N   1      -3.251  -2.978   1.397  0.00  0.00     0.154 HD
BRANCH  25  27
HETATM   27  C   UNK N   1      -4.086  -3.404  -0.610  0.00  0.00     0.110 C 
HETATM   28  C   UNK N   1      -2.881  -4.295  -0.916  0.00  0.00     0.053 C 
HETATM   29  C   UNK N   1      -2.837  -5.445   0.095  0.00  0.00     0.169 C 
HETATM   30  O   UNK N   1      -4.007  -6.220  -0.020  0.00  0.00    -0.388 OA
HETATM   31  C   UNK N   1      -5.070  -5.438   0.472  0.00  0.00     0.201 C 
HETATM   32  C   UNK N   1      -5.340  -4.285  -0.497  0.00  0.00     0.167 C 
BRANCH  32  33
HETATM   33  O   UNK N   1      -6.451  -3.542  -0.091  0.00  0.00    -0.387 OA
HETATM   34  C   UNK N   1      -7.194  -3.341  -1.255  0.00  0.00     0.202 C 
ENDBRANCH  32  33
ENDBRANCH  25  27
ENDBRANCH   4  25
TORSDOF 7
