MODEL 1
REMARK VINA RESULT:      -8.6      0.000      0.000
REMARK  8 active torsions:
REMARK  status: ('A' for Active; 'I' for Inactive)
REMARK    1  A    between atoms: C_3  and  C_12 
REMARK    2  A    between atoms: C_12  and  C_13 
REMARK    3  A    between atoms: C_12  and  O_34 
REMARK    4  A    between atoms: C_13  and  N_14 
REMARK    5  A    between atoms: N_17  and  C_20 
REMARK    6  A    between atoms: C_20  and  C_21 
REMARK    7  A    between atoms: C_21  and  C_22 
REMARK    8  A    between atoms: C_21  and  O_33 
ROOT
HETATM    1  N   UNK N   1      36.175  12.677  12.681  0.00  0.00     0.094 N 
HETATM    2  C   UNK N   1      36.325  12.176  11.316  0.00  0.00     0.302 C 
HETATM    3  C   UNK N   1      36.683  13.326  10.367  0.00  0.00     0.302 C 
HETATM    4  N   UNK N   1      36.033  14.592  10.735  0.00  0.00     0.094 N 
HETATM    5  C   UNK N   1      34.777  14.342  11.440  0.00  0.00     0.302 C 
HETATM    6  C   UNK N   1      35.052  13.620  12.766  0.00  0.00     0.302 C 
ENDROOT
BRANCH   1   7
HETATM    7  C   UNK N   1      35.817  11.537  13.506  0.00  0.00     0.309 C 
BRANCH   7   8
HETATM    8  C   UNK N   1      36.875  11.280  14.569  0.00  0.00     0.180 C 
BRANCH   8   9
HETATM    9  C   UNK N   1      36.349  11.686  15.928  0.00  0.00    -0.021 A 
HETATM   10  C   UNK N   1      36.225  10.741  16.986  0.00  0.00    -0.044 A 
HETATM   11  C   UNK N   1      36.647   9.319  16.835  0.00  0.00     0.049 C 
HETATM   12  C   UNK N   1      35.710  11.174  18.208  0.00  0.00    -0.011 A 
HETATM   13  C   UNK N   1      35.348  12.471  18.401  0.00  0.00     0.048 A 
HETATM   14  C   UNK N   1      35.471  10.381  19.471  0.00  0.00     0.219 A 
HETATM   15  C   UNK N   1      35.466  13.434  17.406  0.00  0.00     0.019 A 
HETATM   16  C   UNK N   1      34.884  12.554  19.745  0.00  0.00     0.294 A 
HETATM   17  C   UNK N   1      35.971  13.032  16.160  0.00  0.00     0.011 A 
HETATM   18  O   UNK N   1      34.958  11.348  20.342  0.00  0.00    -0.313 OA
HETATM   19  O   UNK N   1      34.485  13.564  20.302  0.00  0.00    -0.259 OA
ENDBRANCH   8   9
BRANCH   8  20
HETATM   20  O   UNK N   1      38.018  12.010  14.231  0.00  0.00    -0.389 OA
HETATM   21  H   UNK N   1      38.116  12.925  14.535  0.00  0.00     0.210 HD
ENDBRANCH   8  20
ENDBRANCH   7   8
ENDBRANCH   1   7
BRANCH   4  22
HETATM   22  C   UNK N   1      35.686  15.253   9.489  0.00  0.00     0.309 C 
BRANCH  22  23
HETATM   23  C   UNK N   1      34.701  16.387   9.729  0.00  0.00     0.180 C 
BRANCH  23  24
HETATM   24  C   UNK N   1      33.908  16.656   8.470  0.00  0.00    -0.021 A 
HETATM   25  C   UNK N   1      34.468  17.462   7.447  0.00  0.00     0.011 A 
HETATM   26  C   UNK N   1      33.761  17.717   6.262  0.00  0.00     0.019 A 
HETATM   27  C   UNK N   1      32.500  17.151   6.124  0.00  0.00     0.048 A 
HETATM   28  C   UNK N   1      31.935  16.380   7.090  0.00  0.00    -0.011 A 
HETATM   29  C   UNK N   1      31.546  17.218   5.068  0.00  0.00     0.294 A 
HETATM   30  C   UNK N   1      32.605  16.114   8.286  0.00  0.00    -0.044 A 
HETATM   31  C   UNK N   1      30.565  15.924   6.649  0.00  0.00     0.219 A 
HETATM   32  C   UNK N   1      31.928  15.298   9.335  0.00  0.00     0.049 C 
HETATM   33  O   UNK N   1      30.446  16.507   5.384  0.00  0.00    -0.313 OA
HETATM   34  O   UNK N   1      31.680  17.836   4.024  0.00  0.00    -0.259 OA
ENDBRANCH  23  24
BRANCH  23  35
HETATM   35  O   UNK N   1      35.425  17.516  10.122  0.00  0.00    -0.389 OA
HETATM   36  H   UNK N   1      36.060  17.455  10.853  0.00  0.00     0.210 HD
ENDBRANCH  23  35
ENDBRANCH  22  23
ENDBRANCH   4  22
TORSDOF 8
ENDMDL
MODEL 2
REMARK VINA RESULT:      -8.6      1.644     11.500
REMARK  8 active torsions:
REMARK  status: ('A' for Active; 'I' for Inactive)
REMARK    1  A    between atoms: C_3  and  C_12 
REMARK    2  A    between atoms: C_12  and  C_13 
REMARK    3  A    between atoms: C_12  and  O_34 
REMARK    4  A    between atoms: C_13  and  N_14 
REMARK    5  A    between atoms: N_17  and  C_20 
REMARK    6  A    between atoms: C_20  and  C_21 
REMARK    7  A    between atoms: C_21  and  C_22 
REMARK    8  A    between atoms: C_21  and  O_33 
ROOT
HETATM    1  N   UNK N   1      35.047  15.744   9.075  0.00  0.00     0.094 N 
HETATM    2  C   UNK N   1      33.872  15.265   9.802  0.00  0.00     0.302 C 
HETATM    3  C   UNK N   1      34.251  14.914  11.245  0.00  0.00     0.302 C 
HETATM    4  N   UNK N   1      35.603  14.346  11.358  0.00  0.00     0.094 N 
HETATM    5  C   UNK N   1      35.984  13.670  10.119  0.00  0.00     0.302 C 
HETATM    6  C   UNK N   1      36.057  14.682   8.968  0.00  0.00     0.302 C 
ENDROOT
BRANCH   1   7
HETATM    7  C   UNK N   1      34.610  16.032   7.721  0.00  0.00     0.309 C 
BRANCH   7   8
HETATM    8  C   UNK N   1      33.854  17.352   7.662  0.00  0.00     0.180 C 
BRANCH   8   9
HETATM    9  C   UNK N   1      32.715  17.249   6.672  0.00  0.00    -0.021 A 
HETATM   10  C   UNK N   1      31.362  17.162   7.106  0.00  0.00    -0.044 A 
HETATM   11  C   UNK N   1      30.985  17.218   8.547  0.00  0.00     0.049 C 
HETATM   12  C   UNK N   1      30.359  17.045   6.142  0.00  0.00    -0.011 A 
HETATM   13  C   UNK N   1      30.656  17.029   4.815  0.00  0.00     0.048 A 
HETATM   14  C   UNK N   1      28.866  16.929   6.336  0.00  0.00     0.219 A 
HETATM   15  C   UNK N   1      31.958  17.128   4.340  0.00  0.00     0.019 A 
HETATM   16  C   UNK N   1      29.410  16.911   4.136  0.00  0.00     0.294 A 
HETATM   17  C   UNK N   1      32.994  17.237   5.282  0.00  0.00     0.011 A 
HETATM   18  O   UNK N   1      28.396  16.852   5.022  0.00  0.00    -0.313 OA
HETATM   19  O   UNK N   1      29.256  16.880   2.925  0.00  0.00    -0.259 OA
ENDBRANCH   8   9
BRANCH   8  20
HETATM   20  O   UNK N   1      34.755  18.353   7.292  0.00  0.00    -0.389 OA
HETATM   21  H   UNK N   1      34.782  19.188   7.785  0.00  0.00     0.210 HD
ENDBRANCH   8  20
ENDBRANCH   7   8
ENDBRANCH   1   7
BRANCH   4  22
HETATM   22  C   UNK N   1      35.534  13.322  12.386  0.00  0.00     0.309 C 
BRANCH  22  23
HETATM   23  C   UNK N   1      36.650  13.498  13.406  0.00  0.00     0.180 C 
BRANCH  23  24
HETATM   24  C   UNK N   1      36.317  12.736  14.669  0.00  0.00    -0.021 A 
HETATM   25  C   UNK N   1      35.389  13.280  15.592  0.00  0.00     0.011 A 
HETATM   26  C   UNK N   1      35.051  12.588  16.766  0.00  0.00     0.019 A 
HETATM   27  C   UNK N   1      35.652  11.356  16.989  0.00  0.00     0.048 A 
HETATM   28  C   UNK N   1      36.551  10.814  16.126  0.00  0.00    -0.011 A 
HETATM   29  C   UNK N   1      35.528  10.426  18.061  0.00  0.00     0.294 A 
HETATM   30  C   UNK N   1      36.918  11.478  14.954  0.00  0.00    -0.044 A 
HETATM   31  C   UNK N   1      37.028   9.480  16.649  0.00  0.00     0.219 A 
HETATM   32  C   UNK N   1      37.939  10.863  14.057  0.00  0.00     0.049 C 
HETATM   33  O   UNK N   1      36.320   9.356  17.848  0.00  0.00    -0.313 OA
HETATM   34  O   UNK N   1      34.822  10.563  19.047  0.00  0.00    -0.259 OA
ENDBRANCH  23  24
BRANCH  23  35
HETATM   35  O   UNK N   1      36.792  14.865  13.662  0.00  0.00    -0.389 OA
HETATM   36  H   UNK N   1      36.017  15.396  13.903  0.00  0.00     0.210 HD
ENDBRANCH  23  35
ENDBRANCH  22  23
ENDBRANCH   4  22
TORSDOF 8
ENDMDL
MODEL 3
REMARK VINA RESULT:      -8.5      1.626      2.332
REMARK  8 active torsions:
REMARK  status: ('A' for Active; 'I' for Inactive)
REMARK    1  A    between atoms: C_3  and  C_12 
REMARK    2  A    between atoms: C_12  and  C_13 
REMARK    3  A    between atoms: C_12  and  O_34 
REMARK    4  A    between atoms: C_13  and  N_14 
REMARK    5  A    between atoms: N_17  and  C_20 
REMARK    6  A    between atoms: C_20  and  C_21 
REMARK    7  A    between atoms: C_21  and  C_22 
REMARK    8  A    between atoms: C_21  and  O_33 
ROOT
HETATM    1  N   UNK N   1      35.557  13.767  10.735  0.00  0.00     0.094 N 
HETATM    2  C   UNK N   1      35.500  13.113   9.428  0.00  0.00     0.302 C 
HETATM    3  C   UNK N   1      35.719  14.142   8.313  0.00  0.00     0.302 C 
HETATM    4  N   UNK N   1      35.137  15.455   8.625  0.00  0.00     0.094 N 
HETATM    5  C   UNK N   1      33.998  15.313   9.531  0.00  0.00     0.302 C 
HETATM    6  C   UNK N   1      34.463  14.738  10.876  0.00  0.00     0.302 C 
ENDROOT
BRANCH   1   7
HETATM    7  C   UNK N   1      35.320  12.735  11.728  0.00  0.00     0.309 C 
BRANCH   7   8
HETATM    8  C   UNK N   1      36.576  12.465  12.544  0.00  0.00     0.180 C 
BRANCH   8   9
HETATM    9  C   UNK N   1      36.264  12.573  14.020  0.00  0.00    -0.021 A 
HETATM   10  C   UNK N   1      35.859  11.438  14.776  0.00  0.00    -0.044 A 
HETATM   11  C   UNK N   1      35.765  10.076  14.176  0.00  0.00     0.049 C 
HETATM   12  C   UNK N   1      35.563  11.609  16.129  0.00  0.00    -0.011 A 
HETATM   13  C   UNK N   1      35.671  12.826  16.725  0.00  0.00     0.048 A 
HETATM   14  C   UNK N   1      35.107  10.582  17.138  0.00  0.00     0.219 A 
HETATM   15  C   UNK N   1      36.079  13.962  16.035  0.00  0.00     0.019 A 
HETATM   16  C   UNK N   1      35.308  12.630  18.088  0.00  0.00     0.294 A 
HETATM   17  C   UNK N   1      36.376  13.828  14.670  0.00  0.00     0.011 A 
HETATM   18  O   UNK N   1      34.984  11.340  18.306  0.00  0.00    -0.313 OA
HETATM   19  O   UNK N   1      35.295  13.489  18.955  0.00  0.00    -0.259 OA
ENDBRANCH   8   9
BRANCH   8  20
HETATM   20  O   UNK N   1      37.550  13.392  12.164  0.00  0.00    -0.389 OA
HETATM   21  H   UNK N   1      38.397  13.427  12.634  0.00  0.00     0.210 HD
ENDBRANCH   8  20
ENDBRANCH   7   8
ENDBRANCH   1   7
BRANCH   4  22
HETATM   22  C   UNK N   1      34.612  15.980   7.377  0.00  0.00     0.309 C 
BRANCH  22  23
HETATM   23  C   UNK N   1      33.813  17.253   7.614  0.00  0.00     0.180 C 
BRANCH  23  24
HETATM   24  C   UNK N   1      32.578  17.255   6.741  0.00  0.00    -0.021 A 
HETATM   25  C   UNK N   1      32.717  17.245   5.330  0.00  0.00     0.011 A 
HETATM   26  C   UNK N   1      31.588  17.234   4.495  0.00  0.00     0.019 A 
HETATM   27  C   UNK N   1      30.336  17.228   5.097  0.00  0.00     0.048 A 
HETATM   28  C   UNK N   1      30.173  17.246   6.446  0.00  0.00    -0.011 A 
HETATM   29  C   UNK N   1      29.023  17.220   4.543  0.00  0.00     0.294 A 
HETATM   30  C   UNK N   1      31.272  17.268   7.307  0.00  0.00    -0.044 A 
HETATM   31  C   UNK N   1      28.702  17.244   6.787  0.00  0.00     0.219 A 
HETATM   32  C   UNK N   1      31.044  17.329   8.779  0.00  0.00     0.049 C 
HETATM   33  O   UNK N   1      28.100  17.225   5.525  0.00  0.00    -0.313 OA
HETATM   34  O   UNK N   1      28.750  17.220   3.354  0.00  0.00    -0.259 OA
ENDBRANCH  23  24
BRANCH  23  35
HETATM   35  O   UNK N   1      34.639  18.344   7.325  0.00  0.00    -0.389 OA
HETATM   36  H   UNK N   1      35.249  18.681   7.999  0.00  0.00     0.210 HD
ENDBRANCH  23  35
ENDBRANCH  22  23
ENDBRANCH   4  22
TORSDOF 8
ENDMDL
MODEL 4
REMARK VINA RESULT:      -8.1      1.950      2.863
REMARK  8 active torsions:
REMARK  status: ('A' for Active; 'I' for Inactive)
REMARK    1  A    between atoms: C_3  and  C_12 
REMARK    2  A    between atoms: C_12  and  C_13 
REMARK    3  A    between atoms: C_12  and  O_34 
REMARK    4  A    between atoms: C_13  and  N_14 
REMARK    5  A    between atoms: N_17  and  C_20 
REMARK    6  A    between atoms: C_20  and  C_21 
REMARK    7  A    between atoms: C_21  and  C_22 
REMARK    8  A    between atoms: C_21  and  O_33 
ROOT
HETATM    1  N   UNK N   1      35.468  13.721  10.509  0.00  0.00     0.094 N 
HETATM    2  C   UNK N   1      35.779  15.149  10.501  0.00  0.00     0.302 C 
HETATM    3  C   UNK N   1      34.913  15.872   9.463  0.00  0.00     0.302 C 
HETATM    4  N   UNK N   1      34.655  15.058   8.267  0.00  0.00     0.094 N 
HETATM    5  C   UNK N   1      35.741  14.102   8.050  0.00  0.00     0.302 C 
HETATM    6  C   UNK N   1      35.809  13.109   9.218  0.00  0.00     0.302 C 
ENDROOT
BRANCH   1   7
HETATM    7  C   UNK N   1      36.340  13.110  11.496  0.00  0.00     0.309 C 
BRANCH   7   8
HETATM    8  C   UNK N   1      35.533  12.388  12.565  0.00  0.00     0.180 C 
BRANCH   8   9
HETATM    9  C   UNK N   1      35.756  13.044  13.910  0.00  0.00    -0.021 A 
HETATM   10  C   UNK N   1      35.126  12.553  15.088  0.00  0.00    -0.044 A 
HETATM   11  C   UNK N   1      34.254  11.343  15.076  0.00  0.00     0.049 C 
HETATM   12  C   UNK N   1      35.355  13.218  16.293  0.00  0.00    -0.011 A 
HETATM   13  C   UNK N   1      36.173  14.302  16.355  0.00  0.00     0.048 A 
HETATM   14  C   UNK N   1      34.807  12.908  17.666  0.00  0.00     0.219 A 
HETATM   15  C   UNK N   1      36.825  14.810  15.238  0.00  0.00     0.019 A 
HETATM   16  C   UNK N   1      36.182  14.710  17.719  0.00  0.00     0.294 A 
HETATM   17  C   UNK N   1      36.610  14.172  14.006  0.00  0.00     0.011 A 
HETATM   18  O   UNK N   1      35.392  13.903  18.455  0.00  0.00    -0.313 OA
HETATM   19  O   UNK N   1      36.816  15.645  18.182  0.00  0.00    -0.259 OA
ENDBRANCH   8   9
BRANCH   8  20
HETATM   20  O   UNK N   1      35.934  11.050  12.583  0.00  0.00    -0.389 OA
HETATM   21  H   UNK N   1      35.269  10.345  12.592  0.00  0.00     0.210 HD
ENDBRANCH   8  20
ENDBRANCH   7   8
ENDBRANCH   1   7
BRANCH   4  22
HETATM   22  C   UNK N   1      34.673  15.969   7.137  0.00  0.00     0.309 C 
BRANCH  22  23
HETATM   23  C   UNK N   1      33.851  17.216   7.430  0.00  0.00     0.180 C 
BRANCH  23  24
HETATM   24  C   UNK N   1      32.587  17.206   6.599  0.00  0.00    -0.021 A 
HETATM   25  C   UNK N   1      32.677  17.265   5.185  0.00  0.00     0.011 A 
HETATM   26  C   UNK N   1      31.522  17.245   4.388  0.00  0.00     0.019 A 
HETATM   27  C   UNK N   1      30.293  17.160   5.029  0.00  0.00     0.048 A 
HETATM   28  C   UNK N   1      30.176  17.110   6.383  0.00  0.00    -0.011 A 
HETATM   29  C   UNK N   1      28.963  17.122   4.519  0.00  0.00     0.294 A 
HETATM   30  C   UNK N   1      31.302  17.139   7.207  0.00  0.00    -0.044 A 
HETATM   31  C   UNK N   1      28.718  17.032   6.771  0.00  0.00     0.219 A 
HETATM   32  C   UNK N   1      31.123  17.124   8.687  0.00  0.00     0.049 C 
HETATM   33  O   UNK N   1      28.075  17.045   5.530  0.00  0.00    -0.313 OA
HETATM   34  O   UNK N   1      28.649  17.165   3.340  0.00  0.00    -0.259 OA
ENDBRANCH  23  24
BRANCH  23  35
HETATM   35  O   UNK N   1      34.638  18.334   7.140  0.00  0.00    -0.389 OA
HETATM   36  H   UNK N   1      35.098  18.395   6.288  0.00  0.00     0.210 HD
ENDBRANCH  23  35
ENDBRANCH  22  23
ENDBRANCH   4  22
TORSDOF 8
ENDMDL
MODEL 5
REMARK VINA RESULT:      -8.0      1.674      2.504
REMARK  8 active torsions:
REMARK  status: ('A' for Active; 'I' for Inactive)
REMARK    1  A    between atoms: C_3  and  C_12 
REMARK    2  A    between atoms: C_12  and  C_13 
REMARK    3  A    between atoms: C_12  and  O_34 
REMARK    4  A    between atoms: C_13  and  N_14 
REMARK    5  A    between atoms: N_17  and  C_20 
REMARK    6  A    between atoms: C_20  and  C_21 
REMARK    7  A    between atoms: C_21  and  C_22 
REMARK    8  A    between atoms: C_21  and  O_33 
ROOT
HETATM    1  N   UNK N   1      34.905  12.869  12.617  0.00  0.00     0.094 N 
HETATM    2  C   UNK N   1      35.668  14.101  12.813  0.00  0.00     0.302 C 
HETATM    3  C   UNK N   1      35.301  15.127  11.734  0.00  0.00     0.302 C 
HETATM    4  N   UNK N   1      35.016  14.508  10.431  0.00  0.00     0.094 N 
HETATM    5  C   UNK N   1      35.743  13.248  10.289  0.00  0.00     0.302 C 
HETATM    6  C   UNK N   1      35.259  12.238  11.338  0.00  0.00     0.302 C 
ENDROOT
BRANCH   1   7
HETATM    7  C   UNK N   1      35.325  11.949  13.658  0.00  0.00     0.309 C 
BRANCH   7   8
HETATM    8  C   UNK N   1      34.161  11.588  14.570  0.00  0.00     0.180 C 
BRANCH   8   9
HETATM    9  C   UNK N   1      34.683  11.046  15.882  0.00  0.00    -0.021 A 
HETATM   10  C   UNK N   1      34.938  11.904  16.989  0.00  0.00    -0.044 A 
HETATM   11  C   UNK N   1      34.662  13.369  16.938  0.00  0.00     0.049 C 
HETATM   12  C   UNK N   1      35.442  11.344  18.163  0.00  0.00    -0.011 A 
HETATM   13  C   UNK N   1      35.672  10.008  18.265  0.00  0.00     0.048 A 
HETATM   14  C   UNK N   1      35.801  12.028  19.461  0.00  0.00     0.219 A 
HETATM   15  C   UNK N   1      35.423   9.127  17.220  0.00  0.00     0.019 A 
HETATM   16  C   UNK N   1      36.165   9.794  19.583  0.00  0.00     0.294 A 
HETATM   17  C   UNK N   1      34.925   9.656  16.019  0.00  0.00     0.011 A 
HETATM   18  O   UNK N   1      36.236  10.961  20.253  0.00  0.00    -0.313 OA
HETATM   19  O   UNK N   1      36.473   8.715  20.064  0.00  0.00    -0.259 OA
ENDBRANCH   8   9
BRANCH   8  20
HETATM   20  O   UNK N   1      33.370  10.644  13.911  0.00  0.00    -0.389 OA
HETATM   21  H   UNK N   1      32.482  10.883  13.604  0.00  0.00     0.210 HD
ENDBRANCH   8  20
ENDBRANCH   7   8
ENDBRANCH   1   7
BRANCH   4  22
HETATM   22  C   UNK N   1      35.545  15.410   9.424  0.00  0.00     0.309 C 
BRANCH  22  23
HETATM   23  C   UNK N   1      34.537  16.497   9.081  0.00  0.00     0.180 C 
BRANCH  23  24
HETATM   24  C   UNK N   1      34.162  16.409   7.619  0.00  0.00    -0.021 A 
HETATM   25  C   UNK N   1      35.005  15.709   6.720  0.00  0.00     0.011 A 
HETATM   26  C   UNK N   1      34.675  15.600   5.360  0.00  0.00     0.019 A 
HETATM   27  C   UNK N   1      33.497  16.195   4.928  0.00  0.00     0.048 A 
HETATM   28  C   UNK N   1      32.673  16.879   5.766  0.00  0.00    -0.011 A 
HETATM   29  C   UNK N   1      32.893  16.266   3.639  0.00  0.00     0.294 A 
HETATM   30  C   UNK N   1      32.975  17.017   7.122  0.00  0.00    -0.044 A 
HETATM   31  C   UNK N   1      31.487  17.413   4.999  0.00  0.00     0.219 A 
HETATM   32  C   UNK N   1      32.063  17.812   7.994  0.00  0.00     0.049 C 
HETATM   33  O   UNK N   1      31.741  16.964   3.699  0.00  0.00    -0.313 OA
HETATM   34  O   UNK N   1      33.342  15.783   2.613  0.00  0.00    -0.259 OA
ENDBRANCH  23  24
BRANCH  23  35
HETATM   35  O   UNK N   1      35.113  17.735   9.383  0.00  0.00    -0.389 OA
HETATM   36  H   UNK N   1      36.076  17.814   9.464  0.00  0.00     0.210 HD
ENDBRANCH  23  35
ENDBRANCH  22  23
ENDBRANCH   4  22
TORSDOF 8
ENDMDL
MODEL 6
REMARK VINA RESULT:      -7.9      5.108     13.210
REMARK  8 active torsions:
REMARK  status: ('A' for Active; 'I' for Inactive)
REMARK    1  A    between atoms: C_3  and  C_12 
REMARK    2  A    between atoms: C_12  and  C_13 
REMARK    3  A    between atoms: C_12  and  O_34 
REMARK    4  A    between atoms: C_13  and  N_14 
REMARK    5  A    between atoms: N_17  and  C_20 
REMARK    6  A    between atoms: C_20  and  C_21 
REMARK    7  A    between atoms: C_21  and  C_22 
REMARK    8  A    between atoms: C_21  and  O_33 
ROOT
HETATM    1  N   UNK N   1      28.737  16.834   6.763  0.00  0.00     0.094 N 
HETATM    2  C   UNK N   1      29.666  17.506   5.855  0.00  0.00     0.302 C 
HETATM    3  C   UNK N   1      31.108  17.099   6.177  0.00  0.00     0.302 C 
HETATM    4  N   UNK N   1      31.335  16.892   7.615  0.00  0.00     0.094 N 
HETATM    5  C   UNK N   1      30.413  17.706   8.405  0.00  0.00     0.302 C 
HETATM    6  C   UNK N   1      28.967  17.264   8.149  0.00  0.00     0.302 C 
ENDROOT
BRANCH   1   7
HETATM    7  C   UNK N   1      27.405  17.288   6.408  0.00  0.00     0.309 C 
BRANCH   7   8
HETATM    8  C   UNK N   1      27.067  16.915   4.971  0.00  0.00     0.180 C 
BRANCH   8   9
HETATM    9  C   UNK N   1      25.785  17.598   4.550  0.00  0.00    -0.021 A 
HETATM   10  C   UNK N   1      25.796  18.894   3.961  0.00  0.00    -0.044 A 
HETATM   11  C   UNK N   1      27.063  19.629   3.681  0.00  0.00     0.049 C 
HETATM   12  C   UNK N   1      24.577  19.479   3.617  0.00  0.00    -0.011 A 
HETATM   13  C   UNK N   1      23.400  18.828   3.820  0.00  0.00     0.048 A 
HETATM   14  C   UNK N   1      24.316  20.830   2.994  0.00  0.00     0.219 A 
HETATM   15  C   UNK N   1      23.337  17.556   4.375  0.00  0.00     0.019 A 
HETATM   16  C   UNK N   1      22.381  19.704   3.349  0.00  0.00     0.294 A 
HETATM   17  C   UNK N   1      24.544  16.940   4.743  0.00  0.00     0.011 A 
HETATM   18  O   UNK N   1      22.922  20.847   2.883  0.00  0.00    -0.313 OA
HETATM   19  O   UNK N   1      21.182  19.469   3.346  0.00  0.00    -0.259 OA
ENDBRANCH   8   9
BRANCH   8  20
HETATM   20  O   UNK N   1      26.946  15.525   4.900  0.00  0.00    -0.389 OA
HETATM   21  H   UNK N   1      26.320  15.124   4.277  0.00  0.00     0.210 HD
ENDBRANCH   8  20
ENDBRANCH   7   8
ENDBRANCH   1   7
BRANCH   4  22
HETATM   22  C   UNK N   1      32.672  17.386   7.895  0.00  0.00     0.309 C 
BRANCH  22  23
HETATM   23  C   UNK N   1      33.713  16.300   7.664  0.00  0.00     0.180 C 
BRANCH  23  24
HETATM   24  C   UNK N   1      34.300  15.861   8.987  0.00  0.00    -0.021 A 
HETATM   25  C   UNK N   1      34.896  16.822   9.843  0.00  0.00     0.011 A 
HETATM   26  C   UNK N   1      35.437  16.445  11.082  0.00  0.00     0.019 A 
HETATM   27  C   UNK N   1      35.365  15.105  11.442  0.00  0.00     0.048 A 
HETATM   28  C   UNK N   1      34.805  14.162  10.639  0.00  0.00    -0.011 A 
HETATM   29  C   UNK N   1      35.812  14.415  12.605  0.00  0.00     0.294 A 
HETATM   30  C   UNK N   1      34.267  14.498   9.395  0.00  0.00    -0.044 A 
HETATM   31  C   UNK N   1      34.887  12.808  11.302  0.00  0.00     0.219 A 
HETATM   32  C   UNK N   1      33.702  13.423   8.531  0.00  0.00     0.049 C 
HETATM   33  O   UNK N   1      35.527  13.101  12.510  0.00  0.00    -0.313 OA
HETATM   34  O   UNK N   1      36.385  14.919  13.558  0.00  0.00    -0.259 OA
ENDBRANCH  23  24
BRANCH  23  35
HETATM   35  O   UNK N   1      34.700  16.817   6.819  0.00  0.00    -0.389 OA
HETATM   36  H   UNK N   1      35.632  16.594   6.970  0.00  0.00     0.210 HD
ENDBRANCH  23  35
ENDBRANCH  22  23
ENDBRANCH   4  22
TORSDOF 8
ENDMDL
MODEL 7
REMARK VINA RESULT:      -7.7      1.546      2.425
REMARK  8 active torsions:
REMARK  status: ('A' for Active; 'I' for Inactive)
REMARK    1  A    between atoms: C_3  and  C_12 
REMARK    2  A    between atoms: C_12  and  C_13 
REMARK    3  A    between atoms: C_12  and  O_34 
REMARK    4  A    between atoms: C_13  and  N_14 
REMARK    5  A    between atoms: N_17  and  C_20 
REMARK    6  A    between atoms: C_20  and  C_21 
REMARK    7  A    between atoms: C_21  and  C_22 
REMARK    8  A    between atoms: C_21  and  O_33 
ROOT
HETATM    1  N   UNK N   1      35.407  14.313  12.087  0.00  0.00     0.094 N 
HETATM    2  C   UNK N   1      36.540  14.555  11.195  0.00  0.00     0.302 C 
HETATM    3  C   UNK N   1      36.278  15.794  10.331  0.00  0.00     0.302 C 
HETATM    4  N   UNK N   1      34.864  15.940   9.957  0.00  0.00     0.094 N 
HETATM    5  C   UNK N   1      34.204  14.636   9.915  0.00  0.00     0.302 C 
HETATM    6  C   UNK N   1      34.196  14.004  11.313  0.00  0.00     0.302 C 
ENDROOT
BRANCH   1   7
HETATM    7  C   UNK N   1      35.723  13.119  12.849  0.00  0.00     0.309 C 
BRANCH   7   8
HETATM    8  C   UNK N   1      36.762  13.416  13.922  0.00  0.00     0.180 C 
BRANCH   8   9
HETATM    9  C   UNK N   1      36.401  12.695  15.201  0.00  0.00    -0.021 A 
HETATM   10  C   UNK N   1      36.818  11.354  15.438  0.00  0.00    -0.044 A 
HETATM   11  C   UNK N   1      37.670  10.605  14.471  0.00  0.00     0.049 C 
HETATM   12  C   UNK N   1      36.432  10.737  16.629  0.00  0.00    -0.011 A 
HETATM   13  C   UNK N   1      35.687  11.397  17.555  0.00  0.00     0.048 A 
HETATM   14  C   UNK N   1      36.731   9.338  17.112  0.00  0.00     0.219 A 
HETATM   15  C   UNK N   1      35.269  12.711  17.379  0.00  0.00     0.019 A 
HETATM   16  C   UNK N   1      35.493  10.481  18.628  0.00  0.00     0.294 A 
HETATM   17  C   UNK N   1      35.631  13.360  16.188  0.00  0.00     0.011 A 
HETATM   18  O   UNK N   1      36.094   9.306  18.356  0.00  0.00    -0.313 OA
HETATM   19  O   UNK N   1      34.884  10.709  19.661  0.00  0.00    -0.259 OA
ENDBRANCH   8   9
BRANCH   8  20
HETATM   20  O   UNK N   1      36.803  14.799  14.116  0.00  0.00    -0.389 OA
HETATM   21  H   UNK N   1      36.636  15.171  14.996  0.00  0.00     0.210 HD
ENDBRANCH   8  20
ENDBRANCH   7   8
ENDBRANCH   1   7
BRANCH   4  22
HETATM   22  C   UNK N   1      34.849  16.458   8.600  0.00  0.00     0.309 C 
BRANCH  22  23
HETATM   23  C   UNK N   1      34.133  17.799   8.537  0.00  0.00     0.180 C 
BRANCH  23  24
HETATM   24  C   UNK N   1      32.773  17.627   7.899  0.00  0.00    -0.021 A 
HETATM   25  C   UNK N   1      31.605  17.792   8.685  0.00  0.00     0.011 A 
HETATM   26  C   UNK N   1      30.329  17.651   8.117  0.00  0.00     0.019 A 
HETATM   27  C   UNK N   1      30.250  17.351   6.763  0.00  0.00     0.048 A 
HETATM   28  C   UNK N   1      31.353  17.180   5.987  0.00  0.00    -0.011 A 
HETATM   29  C   UNK N   1      29.132  17.145   5.904  0.00  0.00     0.294 A 
HETATM   30  C   UNK N   1      32.638  17.302   6.520  0.00  0.00    -0.044 A 
HETATM   31  C   UNK N   1      30.941  16.855   4.571  0.00  0.00     0.219 A 
HETATM   32  C   UNK N   1      33.818  17.064   5.640  0.00  0.00     0.049 C 
HETATM   33  O   UNK N   1      29.546  16.866   4.653  0.00  0.00    -0.313 OA
HETATM   34  O   UNK N   1      27.958  17.197   6.237  0.00  0.00    -0.259 OA
ENDBRANCH  23  24
BRANCH  23  35
HETATM   35  O   UNK N   1      34.930  18.682   7.800  0.00  0.00    -0.389 OA
HETATM   36  H   UNK N   1      35.124  18.496   6.868  0.00  0.00     0.210 HD
ENDBRANCH  23  35
ENDBRANCH  22  23
ENDBRANCH   4  22
TORSDOF 8
ENDMDL
MODEL 8
REMARK VINA RESULT:      -7.7      8.207     14.674
REMARK  8 active torsions:
REMARK  status: ('A' for Active; 'I' for Inactive)
REMARK    1  A    between atoms: C_3  and  C_12 
REMARK    2  A    between atoms: C_12  and  C_13 
REMARK    3  A    between atoms: C_12  and  O_34 
REMARK    4  A    between atoms: C_13  and  N_14 
REMARK    5  A    between atoms: N_17  and  C_20 
REMARK    6  A    between atoms: C_20  and  C_21 
REMARK    7  A    between atoms: C_21  and  C_22 
REMARK    8  A    between atoms: C_21  and  O_33 
ROOT
HETATM    1  N   UNK N   1      23.944  15.100   5.940  0.00  0.00     0.094 N 
HETATM    2  C   UNK N   1      24.792  14.327   6.847  0.00  0.00     0.302 C 
HETATM    3  C   UNK N   1      26.039  15.136   7.222  0.00  0.00     0.302 C 
HETATM    4  N   UNK N   1      26.529  15.975   6.118  0.00  0.00     0.094 N 
HETATM    5  C   UNK N   1      26.168  15.392   4.827  0.00  0.00     0.302 C 
HETATM    6  C   UNK N   1      24.642  15.357   4.672  0.00  0.00     0.302 C 
ENDROOT
BRANCH   1   7
HETATM    7  C   UNK N   1      22.805  14.260   5.618  0.00  0.00     0.309 C 
BRANCH   7   8
HETATM    8  C   UNK N   1      21.505  14.907   6.074  0.00  0.00     0.180 C 
BRANCH   8   9
HETATM    9  C   UNK N   1      21.306  16.224   5.357  0.00  0.00    -0.021 A 
HETATM   10  C   UNK N   1      20.826  16.272   4.017  0.00  0.00    -0.044 A 
HETATM   11  C   UNK N   1      20.448  15.042   3.264  0.00  0.00     0.049 C 
HETATM   12  C   UNK N   1      20.687  17.518   3.405  0.00  0.00    -0.011 A 
HETATM   13  C   UNK N   1      20.984  18.667   4.068  0.00  0.00     0.048 A 
HETATM   14  C   UNK N   1      20.214  17.840   2.007  0.00  0.00     0.219 A 
HETATM   15  C   UNK N   1      21.439  18.674   5.381  0.00  0.00     0.019 A 
HETATM   16  C   UNK N   1      20.718  19.728   3.156  0.00  0.00     0.294 A 
HETATM   17  C   UNK N   1      21.601  17.438   6.026  0.00  0.00     0.011 A 
HETATM   18  O   UNK N   1      20.281  19.236   1.980  0.00  0.00    -0.313 OA
HETATM   19  O   UNK N   1      20.848  20.919   3.388  0.00  0.00    -0.259 OA
ENDBRANCH   8   9
BRANCH   8  20
HETATM   20  O   UNK N   1      21.572  15.090   7.457  0.00  0.00    -0.389 OA
HETATM   21  H   UNK N   1      21.636  14.322   8.046  0.00  0.00     0.210 HD
ENDBRANCH   8  20
ENDBRANCH   7   8
ENDBRANCH   1   7
BRANCH   4  22
HETATM   22  C   UNK N   1      27.979  15.951   6.195  0.00  0.00     0.309 C 
BRANCH  22  23
HETATM   23  C   UNK N   1      28.564  17.319   5.878  0.00  0.00     0.180 C 
BRANCH  23  24
HETATM   24  C   UNK N   1      29.950  17.436   6.472  0.00  0.00    -0.021 A 
HETATM   25  C   UNK N   1      30.099  17.678   7.861  0.00  0.00     0.011 A 
HETATM   26  C   UNK N   1      31.372  17.778   8.443  0.00  0.00     0.019 A 
HETATM   27  C   UNK N   1      32.477  17.629   7.615  0.00  0.00     0.048 A 
HETATM   28  C   UNK N   1      32.365  17.404   6.279  0.00  0.00    -0.011 A 
HETATM   29  C   UNK N   1      33.875  17.677   7.888  0.00  0.00     0.294 A 
HETATM   30  C   UNK N   1      31.115  17.309   5.665  0.00  0.00    -0.044 A 
HETATM   31  C   UNK N   1      33.737  17.297   5.658  0.00  0.00     0.219 A 
HETATM   32  C   UNK N   1      31.041  17.103   4.190  0.00  0.00     0.049 C 
HETATM   33  O   UNK N   1      34.581  17.481   6.757  0.00  0.00    -0.313 OA
HETATM   34  O   UNK N   1      34.382  17.877   8.980  0.00  0.00    -0.259 OA
ENDBRANCH  23  24
BRANCH  23  35
HETATM   35  O   UNK N   1      27.706  18.291   6.400  0.00  0.00    -0.389 OA
HETATM   36  H   UNK N   1      26.960  18.614   5.870  0.00  0.00     0.210 HD
ENDBRANCH  23  35
ENDBRANCH  22  23
ENDBRANCH   4  22
TORSDOF 8
ENDMDL
MODEL 9
REMARK VINA RESULT:      -7.6     19.820     23.616
REMARK  8 active torsions:
REMARK  status: ('A' for Active; 'I' for Inactive)
REMARK    1  A    between atoms: C_3  and  C_12 
REMARK    2  A    between atoms: C_12  and  C_13 
REMARK    3  A    between atoms: C_12  and  O_34 
REMARK    4  A    between atoms: C_13  and  N_14 
REMARK    5  A    between atoms: N_17  and  C_20 
REMARK    6  A    between atoms: C_20  and  C_21 
REMARK    7  A    between atoms: C_21  and  C_22 
REMARK    8  A    between atoms: C_21  and  O_33 
ROOT
HETATM    1  N   UNK N   1      26.761  23.880  -6.437  0.00  0.00     0.094 N 
HETATM    2  C   UNK N   1      28.057  24.323  -6.948  0.00  0.00     0.302 C 
HETATM    3  C   UNK N   1      29.169  23.395  -6.443  0.00  0.00     0.302 C 
HETATM    4  N   UNK N   1      28.923  22.899  -5.081  0.00  0.00     0.094 N 
HETATM    5  C   UNK N   1      28.105  23.847  -4.326  0.00  0.00     0.302 C 
HETATM    6  C   UNK N   1      26.720  23.980  -4.972  0.00  0.00     0.302 C 
ENDROOT
BRANCH   1   7
HETATM    7  C   UNK N   1      25.773  24.817  -6.940  0.00  0.00     0.309 C 
BRANCH   7   8
HETATM    8  C   UNK N   1      26.442  26.004  -7.618  0.00  0.00     0.180 C 
BRANCH   8   9
HETATM    9  C   UNK N   1      26.547  27.160  -6.648  0.00  0.00    -0.021 A 
HETATM   10  C   UNK N   1      27.566  28.145  -6.777  0.00  0.00    -0.044 A 
HETATM   11  C   UNK N   1      28.554  28.125  -7.894  0.00  0.00     0.049 C 
HETATM   12  C   UNK N   1      27.622  29.173  -5.835  0.00  0.00    -0.011 A 
HETATM   13  C   UNK N   1      26.719  29.250  -4.822  0.00  0.00     0.048 A 
HETATM   14  C   UNK N   1      28.598  30.322  -5.742  0.00  0.00     0.219 A 
HETATM   15  C   UNK N   1      25.695  28.324  -4.662  0.00  0.00     0.019 A 
HETATM   16  C   UNK N   1      27.066  30.411  -4.073  0.00  0.00     0.294 A 
HETATM   17  C   UNK N   1      25.614  27.270  -5.586  0.00  0.00     0.011 A 
HETATM   18  O   UNK N   1      28.146  31.010  -4.612  0.00  0.00    -0.313 OA
HETATM   19  O   UNK N   1      26.477  30.829  -3.089  0.00  0.00    -0.259 OA
ENDBRANCH   8   9
BRANCH   8  20
HETATM   20  O   UNK N   1      25.682  26.351  -8.737  0.00  0.00    -0.389 OA
HETATM   21  H   UNK N   1      25.954  27.094  -9.297  0.00  0.00     0.210 HD
ENDBRANCH   8  20
ENDBRANCH   7   8
ENDBRANCH   1   7
BRANCH   4  22
HETATM   22  C   UNK N   1      30.216  22.848  -4.423  0.00  0.00     0.309 C 
BRANCH  22  23
HETATM   23  C   UNK N   1      30.426  24.068  -3.538  0.00  0.00     0.180 C 
BRANCH  23  24
HETATM   24  C   UNK N   1      31.428  25.003  -4.180  0.00  0.00    -0.021 A 
HETATM   25  C   UNK N   1      32.651  24.485  -4.675  0.00  0.00     0.011 A 
HETATM   26  C   UNK N   1      33.594  25.327  -5.287  0.00  0.00     0.019 A 
HETATM   27  C   UNK N   1      33.286  26.677  -5.394  0.00  0.00     0.048 A 
HETATM   28  C   UNK N   1      32.124  27.202  -4.922  0.00  0.00    -0.011 A 
HETATM   29  C   UNK N   1      34.014  27.770  -5.947  0.00  0.00     0.294 A 
HETATM   30  C   UNK N   1      31.169  26.397  -4.298  0.00  0.00    -0.044 A 
HETATM   31  C   UNK N   1      32.089  28.689  -5.179  0.00  0.00     0.219 A 
HETATM   32  C   UNK N   1      29.928  27.024  -3.758  0.00  0.00     0.049 C 
HETATM   33  O   UNK N   1      33.312  28.913  -5.819  0.00  0.00    -0.313 OA
HETATM   34  O   UNK N   1      35.120  27.705  -6.458  0.00  0.00    -0.259 OA
ENDBRANCH  23  24
BRANCH  23  35
HETATM   35  O   UNK N   1      30.873  23.628  -2.289  0.00  0.00    -0.389 OA
HETATM   36  H   UNK N   1      30.357  22.973  -1.793  0.00  0.00     0.210 HD
ENDBRANCH  23  35
ENDBRANCH  22  23
ENDBRANCH   4  22
TORSDOF 8
ENDMDL
