MODEL 1
REMARK VINA RESULT:      -8.0      0.000      0.000
REMARK  8 active torsions:
REMARK  status: ('A' for Active; 'I' for Inactive)
REMARK    1  A    between atoms: C_11  and  C_5 
REMARK    2  A    between atoms: C_23  and  C_6 
REMARK    3  A    between atoms: N_34  and  C_11 
REMARK    4  A    between atoms: N_31  and  C_16 
REMARK    5  A    between atoms: N_32  and  C_21 
REMARK    6  A    between atoms: O_36  and  C_22 
REMARK    7  A    between atoms: O_35  and  C_23 
REMARK    8  A    between atoms: N_31  and  C_24 
ROOT
HETATM    1  C   UNK N   1      35.041  14.646  10.157  0.00  0.00     0.050 C 
HETATM    2  C   UNK N   1      36.023  13.744   7.712  0.00  0.00     0.069 C 
HETATM    3  C   UNK N   1      38.661  12.719  10.033  0.00  0.00     0.182 A 
HETATM    4  C   UNK N   1      36.323  14.125  10.073  0.00  0.00     0.037 A 
HETATM    5  C   UNK N   1      36.800  13.618   8.873  0.00  0.00     0.049 A 
HETATM    6  C   UNK N   1      34.189  14.629   9.066  0.00  0.00     0.068 C 
HETATM    7  C   UNK N   1      34.701  14.243   7.797  0.00  0.00     0.097 C 
HETATM    8  C   UNK N   1      37.044  13.960  11.241  0.00  0.00     0.119 A 
HETATM    9  N   UNK N   1      37.979  12.930   8.867  0.00  0.00    -0.351 N 
ATOM     10  HN  UNK N   1      38.353  12.570   7.988  1.00  0.00     0.166 HD
HETATM   11  N   UNK N   1      38.200  13.228  11.212  0.00  0.00    -0.338 N 
ATOM     12  HN  UNK N   1      38.717  13.063  12.074  1.00  0.00     0.168 HD
ENDROOT
BRANCH   6  13
HETATM   13  N   UNK N   1      32.814  14.407   9.378  0.00  0.00    -0.335 N 
HETATM   14  C   UNK N   1      31.942  15.347   9.554  0.00  0.00     0.140 C 
ATOM     15  HN  UNK N   1      32.495  13.442   9.467  1.00  0.00     0.168 HD
BRANCH  14  16
HETATM   16  C   UNK N   1      31.688  16.407   8.558  0.00  0.00     0.053 C 
HETATM   17  C   UNK N   1      30.981  16.106   7.463  0.00  0.00    -0.003 C 
BRANCH  17  18
HETATM   18  C   UNK N   1      30.518  17.179   6.515  0.00  0.00     0.144 C 
BRANCH  18  19
HETATM   19  N   UNK N   1      29.057  17.278   6.353  0.00  0.00    -0.409 N 
HETATM   20  C   UNK N   1      28.606  17.640   5.003  0.00  0.00     0.117 C 
HETATM   21  C   UNK N   1      28.389  19.143   4.845  0.00  0.00     0.019 C 
HETATM   22  C   UNK N   1      27.438  19.643   5.918  0.00  0.00     0.003 C 
HETATM   23  C   UNK N   1      28.043  19.363   7.282  0.00  0.00     0.019 C 
HETATM   24  C   UNK N   1      28.279  17.859   7.460  0.00  0.00     0.117 C 
ENDBRANCH  18  19
ENDBRANCH  17  18
ENDBRANCH  14  16
BRANCH  14  25
HETATM   25  O   UNK N   1      31.137  15.289  10.630  0.00  0.00    -0.346 OA
HETATM   26  H   UNK N   1      31.169  15.260  11.565  0.00  0.00     0.219 HD
ENDBRANCH  14  25
ENDBRANCH   6  13
BRANCH   7  27
HETATM   27  O   UNK N   1      33.941  14.232   6.675  0.00  0.00    -0.354 OA
HETATM   28  C   UNK N   1      34.042  15.175   5.677  0.00  0.00     0.210 C 
ENDBRANCH   7  27
BRANCH   8  29
HETATM   29  N   UNK N   1      36.478  14.461  12.437  0.00  0.00    -0.342 N 
HETATM   30  H   UNK N   1      36.344  15.435  12.478  0.00  0.00     0.167 HD
BRANCH  29  31
HETATM   31  C   UNK N   1      36.087  13.732  13.573  0.00  0.00     0.035 A 
HETATM   32  C   UNK N   1      36.599  14.140  14.806  0.00  0.00     0.032 A 
HETATM   33  C   UNK N   1      36.152  13.551  15.986  0.00  0.00     0.046 A 
HETATM   34  C   UNK N   1      35.195  12.539  15.935  0.00  0.00     0.138 A 
HETATM   35  C   UNK N   1      34.693  12.108  14.697  0.00  0.00     0.074 A 
HETATM   36  F   UNK N   1      34.758  11.980  17.089  0.00  0.00    -0.204 F 
HETATM   37  C   UNK N   1      35.125  12.718  13.516  0.00  0.00     0.056 A 
HETATM   38 Cl   UNK N   1      33.514  10.817  14.616  0.00  0.00    -0.081 Cl
ENDBRANCH  29  31
ENDBRANCH   8  29
TORSDOF 8
ENDMDL
MODEL 2
REMARK VINA RESULT:      -7.7     11.464     13.836
REMARK  8 active torsions:
REMARK  status: ('A' for Active; 'I' for Inactive)
REMARK    1  A    between atoms: C_11  and  C_5 
REMARK    2  A    between atoms: C_23  and  C_6 
REMARK    3  A    between atoms: N_34  and  C_11 
REMARK    4  A    between atoms: N_31  and  C_16 
REMARK    5  A    between atoms: N_32  and  C_21 
REMARK    6  A    between atoms: O_36  and  C_22 
REMARK    7  A    between atoms: O_35  and  C_23 
REMARK    8  A    between atoms: N_31  and  C_24 
ROOT
HETATM    1  C   UNK N   1      21.014  17.321   4.369  0.00  0.00     0.050 C 
HETATM    2  C   UNK N   1      22.326  19.575   3.394  0.00  0.00     0.069 C 
HETATM    3  C   UNK N   1      25.050  17.717   4.982  0.00  0.00     0.182 A 
HETATM    4  C   UNK N   1      22.344  17.544   4.691  0.00  0.00     0.037 A 
HETATM    5  C   UNK N   1      23.023  18.631   4.161  0.00  0.00     0.049 A 
HETATM    6  C   UNK N   1      20.346  18.143   3.478  0.00  0.00     0.068 C 
HETATM    7  C   UNK N   1      20.978  19.337   3.034  0.00  0.00     0.097 C 
HETATM    8  C   UNK N   1      23.021  16.569   5.399  0.00  0.00     0.119 A 
HETATM    9  N   UNK N   1      24.376  18.711   4.329  0.00  0.00    -0.351 N 
ATOM     10  HN  UNK N   1      24.886  19.517   3.964  1.00  0.00     0.166 HD
HETATM   11  N   UNK N   1      24.382  16.654   5.513  0.00  0.00    -0.338 N 
ATOM     12  HN  UNK N   1      24.897  15.919   5.996  1.00  0.00     0.168 HD
ENDROOT
BRANCH   6  13
HETATM   13  N   UNK N   1      19.402  17.481   2.636  0.00  0.00    -0.335 N 
HETATM   14  C   UNK N   1      19.684  16.968   1.482  0.00  0.00     0.140 C 
ATOM     15  HN  UNK N   1      18.440  17.406   2.966  1.00  0.00     0.168 HD
BRANCH  14  16
HETATM   16  C   UNK N   1      20.764  15.980   1.282  0.00  0.00     0.053 C 
HETATM   17  C   UNK N   1      20.595  14.738   1.747  0.00  0.00    -0.003 C 
BRANCH  17  18
HETATM   18  C   UNK N   1      21.563  13.638   1.402  0.00  0.00     0.144 C 
BRANCH  18  19
HETATM   19  N   UNK N   1      22.954  14.078   1.191  0.00  0.00    -0.409 N 
HETATM   20  C   UNK N   1      23.678  13.359   0.135  0.00  0.00     0.117 C 
HETATM   21  C   UNK N   1      24.485  12.182   0.678  0.00  0.00     0.019 C 
HETATM   22  C   UNK N   1      25.411  12.657   1.783  0.00  0.00     0.003 C 
HETATM   23  C   UNK N   1      24.578  13.255   2.903  0.00  0.00     0.019 C 
HETATM   24  C   UNK N   1      23.751  14.434   2.378  0.00  0.00     0.117 C 
ENDBRANCH  18  19
ENDBRANCH  17  18
ENDBRANCH  14  16
BRANCH  14  25
HETATM   25  O   UNK N   1      18.880  17.240   0.439  0.00  0.00    -0.346 OA
HETATM   26  H   UNK N   1      17.979  17.387   0.230  0.00  0.00     0.219 HD
ENDBRANCH  14  25
ENDBRANCH   6  13
BRANCH   7  27
HETATM   27  O   UNK N   1      20.379  20.210   2.189  0.00  0.00    -0.354 OA
HETATM   28  C   UNK N   1      20.910  20.579   0.973  0.00  0.00     0.210 C 
ENDBRANCH   7  27
BRANCH   8  29
HETATM   29  N   UNK N   1      22.275  15.464   5.872  0.00  0.00    -0.342 N 
HETATM   30  H   UNK N   1      21.686  15.026   5.216  0.00  0.00     0.167 HD
BRANCH  29  31
HETATM   31  C   UNK N   1      22.276  14.917   7.167  0.00  0.00     0.035 A 
HETATM   32  C   UNK N   1      21.229  15.276   8.017  0.00  0.00     0.032 A 
HETATM   33  C   UNK N   1      21.092  14.671   9.263  0.00  0.00     0.046 A 
HETATM   34  C   UNK N   1      22.015  13.710   9.671  0.00  0.00     0.138 A 
HETATM   35  C   UNK N   1      23.084  13.361   8.831  0.00  0.00     0.074 A 
HETATM   36  F   UNK N   1      21.868  13.119  10.881  0.00  0.00    -0.204 F 
HETATM   37  C   UNK N   1      23.204  13.951   7.569  0.00  0.00     0.056 A 
HETATM   38 Cl   UNK N   1      24.268  12.178   9.342  0.00  0.00    -0.081 Cl
ENDBRANCH  29  31
ENDBRANCH   8  29
TORSDOF 8
ENDMDL
MODEL 3
REMARK VINA RESULT:      -7.7      2.842      4.327
REMARK  8 active torsions:
REMARK  status: ('A' for Active; 'I' for Inactive)
REMARK    1  A    between atoms: C_11  and  C_5 
REMARK    2  A    between atoms: C_23  and  C_6 
REMARK    3  A    between atoms: N_34  and  C_11 
REMARK    4  A    between atoms: N_31  and  C_16 
REMARK    5  A    between atoms: N_32  and  C_21 
REMARK    6  A    between atoms: O_36  and  C_22 
REMARK    7  A    between atoms: O_35  and  C_23 
REMARK    8  A    between atoms: N_31  and  C_24 
ROOT
HETATM    1  C   UNK N   1      35.864  12.842  12.658  0.00  0.00     0.050 C 
HETATM    2  C   UNK N   1      37.197  11.773  10.459  0.00  0.00     0.069 C 
HETATM    3  C   UNK N   1      34.589   9.280  11.073  0.00  0.00     0.182 A 
HETATM    4  C   UNK N   1      35.542  11.574  12.200  0.00  0.00     0.037 A 
HETATM    5  C   UNK N   1      36.158  11.056  11.070  0.00  0.00     0.049 A 
HETATM    6  C   UNK N   1      36.765  13.642  11.976  0.00  0.00     0.068 C 
HETATM    7  C   UNK N   1      37.508  13.082  10.900  0.00  0.00     0.097 C 
HETATM    8  C   UNK N   1      34.476  10.915  12.783  0.00  0.00     0.119 A 
HETATM    9  N   UNK N   1      35.678   9.899  10.527  0.00  0.00    -0.351 N 
ATOM     10  HN  UNK N   1      36.135   9.495   9.708  1.00  0.00     0.166 HD
HETATM   11  N   UNK N   1      33.990   9.781  12.191  0.00  0.00    -0.338 N 
ATOM     12  HN  UNK N   1      33.178   9.310  12.587  1.00  0.00     0.168 HD
ENDROOT
BRANCH   6  13
HETATM   13  N   UNK N   1      36.460  15.037  11.982  0.00  0.00    -0.335 N 
HETATM   14  C   UNK N   1      35.854  15.658  11.021  0.00  0.00     0.140 C 
ATOM     15  HN  UNK N   1      36.736  15.581  12.799  1.00  0.00     0.168 HD
BRANCH  14  16
HETATM   16  C   UNK N   1      34.545  15.232  10.486  0.00  0.00     0.053 C 
HETATM   17  C   UNK N   1      34.006  15.924   9.476  0.00  0.00    -0.003 C 
BRANCH  17  18
HETATM   18  C   UNK N   1      32.782  15.426   8.757  0.00  0.00     0.144 C 
BRANCH  18  19
HETATM   19  N   UNK N   1      32.925  15.306   7.296  0.00  0.00    -0.409 N 
HETATM   20  C   UNK N   1      34.047  16.057   6.719  0.00  0.00     0.117 C 
HETATM   21  C   UNK N   1      33.632  17.443   6.230  0.00  0.00     0.019 C 
HETATM   22  C   UNK N   1      32.469  17.321   5.260  0.00  0.00     0.003 C 
HETATM   23  C   UNK N   1      31.299  16.667   5.974  0.00  0.00     0.019 C 
HETATM   24  C   UNK N   1      31.696  15.277   6.483  0.00  0.00     0.117 C 
ENDBRANCH  18  19
ENDBRANCH  17  18
ENDBRANCH  14  16
BRANCH  14  25
HETATM   25  O   UNK N   1      36.370  16.817  10.575  0.00  0.00    -0.346 OA
HETATM   26  H   UNK N   1      36.138  17.712  10.431  0.00  0.00     0.219 HD
ENDBRANCH  14  25
ENDBRANCH   6  13
BRANCH   7  27
HETATM   27  O   UNK N   1      38.431  13.788  10.205  0.00  0.00    -0.354 OA
HETATM   28  C   UNK N   1      38.462  13.854   8.829  0.00  0.00     0.210 C 
ENDBRANCH   7  27
BRANCH   8  29
HETATM   29  N   UNK N   1      33.865  11.521  13.906  0.00  0.00    -0.342 N 
HETATM   30  H   UNK N   1      33.034  12.019  13.732  0.00  0.00     0.167 HD
BRANCH  29  31
HETATM   31  C   UNK N   1      34.305  11.497  15.241  0.00  0.00     0.035 A 
HETATM   32  C   UNK N   1      34.651  10.258  15.782  0.00  0.00     0.032 A 
HETATM   33  C   UNK N   1      35.220  10.174  17.049  0.00  0.00     0.046 A 
HETATM   34  C   UNK N   1      35.434  11.335  17.789  0.00  0.00     0.138 A 
HETATM   35  C   UNK N   1      35.068  12.583  17.261  0.00  0.00     0.074 A 
HETATM   36  F   UNK N   1      35.999  11.245  19.017  0.00  0.00    -0.204 F 
HETATM   37  C   UNK N   1      34.520  12.667  15.978  0.00  0.00     0.056 A 
HETATM   38 Cl   UNK N   1      35.303  14.047  18.192  0.00  0.00    -0.081 Cl
ENDBRANCH  29  31
ENDBRANCH   8  29
TORSDOF 8
ENDMDL
MODEL 4
REMARK VINA RESULT:      -7.6      6.931      9.980
REMARK  8 active torsions:
REMARK  status: ('A' for Active; 'I' for Inactive)
REMARK    1  A    between atoms: C_11  and  C_5 
REMARK    2  A    between atoms: C_23  and  C_6 
REMARK    3  A    between atoms: N_34  and  C_11 
REMARK    4  A    between atoms: N_31  and  C_16 
REMARK    5  A    between atoms: N_32  and  C_21 
REMARK    6  A    between atoms: O_36  and  C_22 
REMARK    7  A    between atoms: O_35  and  C_23 
REMARK    8  A    between atoms: N_31  and  C_24 
ROOT
HETATM    1  C   UNK N   1      30.425  17.329   5.983  0.00  0.00     0.050 C 
HETATM    2  C   UNK N   1      31.693  17.691   8.435  0.00  0.00     0.069 C 
HETATM    3  C   UNK N   1      28.165  17.569   9.398  0.00  0.00     0.182 A 
HETATM    4  C   UNK N   1      29.675  17.558   7.126  0.00  0.00     0.037 A 
HETATM    5  C   UNK N   1      30.294  17.680   8.362  0.00  0.00     0.049 A 
HETATM    6  C   UNK N   1      31.798  17.166   6.049  0.00  0.00     0.068 C 
HETATM    7  C   UNK N   1      32.465  17.424   7.278  0.00  0.00     0.097 C 
HETATM    8  C   UNK N   1      28.297  17.485   7.034  0.00  0.00     0.119 A 
HETATM    9  N   UNK N   1      29.523  17.699   9.488  0.00  0.00    -0.351 N 
ATOM     10  HN  UNK N   1      29.962  17.810  10.403  1.00  0.00     0.166 HD
HETATM   11  N   UNK N   1      27.554  17.462   8.183  0.00  0.00    -0.338 N 
ATOM     12  HN  UNK N   1      26.541  17.365   8.130  1.00  0.00     0.168 HD
ENDROOT
BRANCH   6  13
HETATM   13  N   UNK N   1      32.339  16.217   5.130  0.00  0.00    -0.335 N 
HETATM   14  C   UNK N   1      32.263  14.933   5.275  0.00  0.00     0.140 C 
ATOM     15  HN  UNK N   1      32.816  16.574   4.302  1.00  0.00     0.168 HD
BRANCH  14  16
HETATM   16  C   UNK N   1      30.986  14.219   5.476  0.00  0.00     0.053 C 
HETATM   17  C   UNK N   1      30.123  14.142   4.457  0.00  0.00    -0.003 C 
BRANCH  17  18
HETATM   18  C   UNK N   1      28.904  13.263   4.533  0.00  0.00     0.144 C 
BRANCH  18  19
HETATM   19  N   UNK N   1      28.041  13.293   3.339  0.00  0.00    -0.409 N 
HETATM   20  C   UNK N   1      28.424  14.280   2.322  0.00  0.00     0.117 C 
HETATM   21  C   UNK N   1      27.679  15.603   2.483  0.00  0.00     0.019 C 
HETATM   22  C   UNK N   1      26.180  15.352   2.500  0.00  0.00     0.003 C 
HETATM   23  C   UNK N   1      25.846  14.440   3.668  0.00  0.00     0.019 C 
HETATM   24  C   UNK N   1      26.593  13.108   3.532  0.00  0.00     0.117 C 
ENDBRANCH  18  19
ENDBRANCH  17  18
ENDBRANCH  14  16
BRANCH  14  25
HETATM   25  O   UNK N   1      33.376  14.197   5.105  0.00  0.00    -0.346 OA
HETATM   26  H   UNK N   1      33.932  13.598   5.562  0.00  0.00     0.219 HD
ENDBRANCH  14  25
ENDBRANCH   6  13
BRANCH   7  27
HETATM   27  O   UNK N   1      33.809  17.319   7.417  0.00  0.00    -0.354 OA
HETATM   28  C   UNK N   1      34.568  18.195   8.161  0.00  0.00     0.210 C 
ENDBRANCH   7  27
BRANCH   8  29
HETATM   29  N   UNK N   1      27.734  17.315   5.747  0.00  0.00    -0.342 N 
HETATM   30  H   UNK N   1      27.901  16.449   5.311  0.00  0.00     0.167 HD
BRANCH  29  31
HETATM   31  C   UNK N   1      26.964  18.238   5.019  0.00  0.00     0.035 A 
HETATM   32  C   UNK N   1      27.643  19.267   4.364  0.00  0.00     0.032 A 
HETATM   33  C   UNK N   1      26.962  20.136   3.517  0.00  0.00     0.046 A 
HETATM   34  C   UNK N   1      25.589  19.987   3.331  0.00  0.00     0.138 A 
HETATM   35  C   UNK N   1      24.895  18.969   4.004  0.00  0.00     0.074 A 
HETATM   36  F   UNK N   1      24.936  20.831   2.496  0.00  0.00    -0.204 F 
HETATM   37  C   UNK N   1      25.586  18.082   4.834  0.00  0.00     0.056 A 
HETATM   38 Cl   UNK N   1      23.166  18.789   3.804  0.00  0.00    -0.081 Cl
ENDBRANCH  29  31
ENDBRANCH   8  29
TORSDOF 8
ENDMDL
MODEL 5
REMARK VINA RESULT:      -7.5      9.157     10.612
REMARK  8 active torsions:
REMARK  status: ('A' for Active; 'I' for Inactive)
REMARK    1  A    between atoms: C_11  and  C_5 
REMARK    2  A    between atoms: C_23  and  C_6 
REMARK    3  A    between atoms: N_34  and  C_11 
REMARK    4  A    between atoms: N_31  and  C_16 
REMARK    5  A    between atoms: N_32  and  C_21 
REMARK    6  A    between atoms: O_36  and  C_22 
REMARK    7  A    between atoms: O_35  and  C_23 
REMARK    8  A    between atoms: N_31  and  C_24 
ROOT
HETATM    1  C   UNK N   1      25.917  15.048   6.881  0.00  0.00     0.050 C 
HETATM    2  C   UNK N   1      27.457  14.056   4.784  0.00  0.00     0.069 C 
HETATM    3  C   UNK N   1      25.140  11.295   5.419  0.00  0.00     0.182 A 
HETATM    4  C   UNK N   1      25.767  13.732   6.472  0.00  0.00     0.037 A 
HETATM    5  C   UNK N   1      26.486  13.245   5.389  0.00  0.00     0.049 A 
HETATM    6  C   UNK N   1      26.744  15.921   6.195  0.00  0.00     0.068 C 
HETATM    7  C   UNK N   1      27.591  15.410   5.174  0.00  0.00     0.097 C 
HETATM    8  C   UNK N   1      24.764  12.975   7.047  0.00  0.00     0.119 A 
HETATM    9  N   UNK N   1      26.169  12.017   4.884  0.00  0.00    -0.351 N 
ATOM     10  HN  UNK N   1      26.704  11.637   4.102  1.00  0.00     0.166 HD
HETATM   11  N   UNK N   1      24.440  11.767   6.491  0.00  0.00    -0.338 N 
ATOM     12  HN  UNK N   1      23.674  11.219   6.879  1.00  0.00     0.168 HD
ENDROOT
BRANCH   6  13
HETATM   13  N   UNK N   1      26.276  17.268   6.126  0.00  0.00    -0.335 N 
HETATM   14  C   UNK N   1      25.815  17.828   5.053  0.00  0.00     0.140 C 
ATOM     15  HN  UNK N   1      26.305  17.827   6.978  1.00  0.00     0.168 HD
BRANCH  14  16
HETATM   16  C   UNK N   1      24.711  17.256   4.257  0.00  0.00     0.053 C 
HETATM   17  C   UNK N   1      23.520  17.082   4.839  0.00  0.00    -0.003 C 
BRANCH  17  18
HETATM   18  C   UNK N   1      22.308  16.697   4.034  0.00  0.00     0.144 C 
BRANCH  18  19
HETATM   19  N   UNK N   1      21.093  17.477   4.327  0.00  0.00    -0.409 N 
HETATM   20  C   UNK N   1      19.918  17.120   3.522  0.00  0.00     0.117 C 
HETATM   21  C   UNK N   1      19.776  17.993   2.278  0.00  0.00     0.019 C 
HETATM   22  C   UNK N   1      19.771  19.460   2.675  0.00  0.00     0.003 C 
HETATM   23  C   UNK N   1      21.080  19.786   3.372  0.00  0.00     0.019 C 
HETATM   24  C   UNK N   1      21.249  18.912   4.620  0.00  0.00     0.117 C 
ENDBRANCH  18  19
ENDBRANCH  17  18
ENDBRANCH  14  16
BRANCH  14  25
HETATM   25  O   UNK N   1      26.268  19.049   4.717  0.00  0.00    -0.346 OA
HETATM   26  H   UNK N   1      26.111  19.744   4.110  0.00  0.00     0.219 HD
ENDBRANCH  14  25
ENDBRANCH   6  13
BRANCH   7  27
HETATM   27  O   UNK N   1      28.453  16.192   4.480  0.00  0.00    -0.354 OA
HETATM   28  C   UNK N   1      28.632  16.103   3.117  0.00  0.00     0.210 C 
ENDBRANCH   7  27
BRANCH   8  29
HETATM   29  N   UNK N   1      24.040  13.550   8.118  0.00  0.00    -0.342 N 
HETATM   30  H   UNK N   1      23.758  14.485   7.998  0.00  0.00     0.167 HD
BRANCH  29  31
HETATM   31  C   UNK N   1      23.676  12.942   9.332  0.00  0.00     0.035 A 
HETATM   32  C   UNK N   1      24.706  12.538  10.183  0.00  0.00     0.032 A 
HETATM   33  C   UNK N   1      24.421  12.053  11.456  0.00  0.00     0.046 A 
HETATM   34  C   UNK N   1      23.096  11.959  11.880  0.00  0.00     0.138 A 
HETATM   35  C   UNK N   1      22.054  12.342  11.021  0.00  0.00     0.074 A 
HETATM   36  F   UNK N   1      22.829  11.496  13.125  0.00  0.00    -0.204 F 
HETATM   37  C   UNK N   1      22.344  12.853   9.753  0.00  0.00     0.056 A 
HETATM   38 Cl   UNK N   1      20.385  12.200  11.529  0.00  0.00    -0.081 Cl
ENDBRANCH  29  31
ENDBRANCH   8  29
TORSDOF 8
ENDMDL
MODEL 6
REMARK VINA RESULT:      -7.4      1.305      2.078
REMARK  8 active torsions:
REMARK  status: ('A' for Active; 'I' for Inactive)
REMARK    1  A    between atoms: C_11  and  C_5 
REMARK    2  A    between atoms: C_23  and  C_6 
REMARK    3  A    between atoms: N_34  and  C_11 
REMARK    4  A    between atoms: N_31  and  C_16 
REMARK    5  A    between atoms: N_32  and  C_21 
REMARK    6  A    between atoms: O_36  and  C_22 
REMARK    7  A    between atoms: O_35  and  C_23 
REMARK    8  A    between atoms: N_31  and  C_24 
ROOT
HETATM    1  C   UNK N   1      35.182  14.523  10.077  0.00  0.00     0.050 C 
HETATM    2  C   UNK N   1      36.175  13.503   7.684  0.00  0.00     0.069 C 
HETATM    3  C   UNK N   1      38.758  12.514  10.080  0.00  0.00     0.182 A 
HETATM    4  C   UNK N   1      36.453  13.971  10.031  0.00  0.00     0.037 A 
HETATM    5  C   UNK N   1      36.934  13.406   8.859  0.00  0.00     0.049 A 
HETATM    6  C   UNK N   1      34.344  14.482   8.976  0.00  0.00     0.068 C 
HETATM    7  C   UNK N   1      34.864  14.034   7.730  0.00  0.00     0.097 C 
HETATM    8  C   UNK N   1      37.154  13.837  11.215  0.00  0.00     0.119 A 
HETATM    9  N   UNK N   1      38.097  12.692   8.897  0.00  0.00    -0.351 N 
ATOM     10  HN  UNK N   1      38.474  12.289   8.038  1.00  0.00     0.166 HD
HETATM   11  N   UNK N   1      38.293  13.079  11.231  0.00  0.00    -0.338 N 
ATOM     12  HN  UNK N   1      38.796  12.937  12.106  1.00  0.00     0.168 HD
ENDROOT
BRANCH   6  13
HETATM   13  N   UNK N   1      32.960  14.303   9.277  0.00  0.00    -0.335 N 
HETATM   14  C   UNK N   1      32.125  15.270   9.483  0.00  0.00     0.140 C 
ATOM     15  HN  UNK N   1      32.604  13.348   9.333  1.00  0.00     0.168 HD
BRANCH  14  16
HETATM   16  C   UNK N   1      31.916  16.372   8.523  0.00  0.00     0.053 C 
HETATM   17  C   UNK N   1      30.918  16.275   7.638  0.00  0.00    -0.003 C 
BRANCH  17  18
HETATM   18  C   UNK N   1      30.527  17.442   6.772  0.00  0.00     0.144 C 
BRANCH  18  19
HETATM   19  N   UNK N   1      30.447  17.148   5.331  0.00  0.00    -0.409 N 
HETATM   20  C   UNK N   1      29.800  15.874   4.993  0.00  0.00     0.117 C 
HETATM   21  C   UNK N   1      30.804  14.735   4.829  0.00  0.00     0.019 C 
HETATM   22  C   UNK N   1      31.864  15.124   3.813  0.00  0.00     0.003 C 
HETATM   23  C   UNK N   1      32.587  16.366   4.305  0.00  0.00     0.019 C 
HETATM   24  C   UNK N   1      31.595  17.521   4.487  0.00  0.00     0.117 C 
ENDBRANCH  18  19
ENDBRANCH  17  18
ENDBRANCH  14  16
BRANCH  14  25
HETATM   25  O   UNK N   1      31.314  15.206  10.555  0.00  0.00    -0.346 OA
HETATM   26  H   UNK N   1      30.898  14.586  11.119  0.00  0.00     0.219 HD
ENDBRANCH  14  25
ENDBRANCH   6  13
BRANCH   7  27
HETATM   27  O   UNK N   1      34.118  13.995   6.599  0.00  0.00    -0.354 OA
HETATM   28  C   UNK N   1      33.792  12.829   5.943  0.00  0.00     0.210 C 
ENDBRANCH   7  27
BRANCH   8  29
HETATM   29  N   UNK N   1      36.585  14.398  12.382  0.00  0.00    -0.342 N 
HETATM   30  H   UNK N   1      36.470  15.375  12.382  0.00  0.00     0.167 HD
BRANCH  29  31
HETATM   31  C   UNK N   1      36.165  13.724  13.542  0.00  0.00     0.035 A 
HETATM   32  C   UNK N   1      36.663  14.177  14.765  0.00  0.00     0.032 A 
HETATM   33  C   UNK N   1      36.189  13.647  15.961  0.00  0.00     0.046 A 
HETATM   34  C   UNK N   1      35.219  12.646  15.938  0.00  0.00     0.138 A 
HETATM   35  C   UNK N   1      34.730  12.169  14.712  0.00  0.00     0.074 A 
HETATM   36  F   UNK N   1      34.756  12.143  17.107  0.00  0.00    -0.204 F 
HETATM   37  C   UNK N   1      35.189  12.722  13.512  0.00  0.00     0.056 A 
HETATM   38 Cl   UNK N   1      33.535  10.892  14.667  0.00  0.00    -0.081 Cl
ENDBRANCH  29  31
ENDBRANCH   8  29
TORSDOF 8
ENDMDL
MODEL 7
REMARK VINA RESULT:      -7.4      6.137     10.471
REMARK  8 active torsions:
REMARK  status: ('A' for Active; 'I' for Inactive)
REMARK    1  A    between atoms: C_11  and  C_5 
REMARK    2  A    between atoms: C_23  and  C_6 
REMARK    3  A    between atoms: N_34  and  C_11 
REMARK    4  A    between atoms: N_31  and  C_16 
REMARK    5  A    between atoms: N_32  and  C_21 
REMARK    6  A    between atoms: O_36  and  C_22 
REMARK    7  A    between atoms: O_35  and  C_23 
REMARK    8  A    between atoms: N_31  and  C_24 
ROOT
HETATM    1  C   UNK N   1      25.578  15.088   6.372  0.00  0.00     0.050 C 
HETATM    2  C   UNK N   1      25.731  14.289   3.709  0.00  0.00     0.069 C 
HETATM    3  C   UNK N   1      22.864  12.371   4.930  0.00  0.00     0.182 A 
HETATM    4  C   UNK N   1      24.765  14.066   5.905  0.00  0.00     0.037 A 
HETATM    5  C   UNK N   1      24.791  13.701   4.567  0.00  0.00     0.049 A 
HETATM    6  C   UNK N   1      26.394  15.802   5.512  0.00  0.00     0.068 C 
HETATM    7  C   UNK N   1      26.540  15.356   4.170  0.00  0.00     0.097 C 
HETATM    8  C   UNK N   1      23.809  13.545   6.757  0.00  0.00     0.119 A 
HETATM    9  N   UNK N   1      23.842  12.840   4.098  0.00  0.00    -0.351 N 
ATOM     10  HN  UNK N   1      23.862  12.545   3.121  1.00  0.00     0.166 HD
HETATM   11  N   UNK N   1      22.845  12.719   6.249  0.00  0.00    -0.338 N 
ATOM     12  HN  UNK N   1      22.109  12.363   6.857  1.00  0.00     0.168 HD
ENDROOT
BRANCH   6  13
HETATM   13  N   UNK N   1      26.532  17.189   5.822  0.00  0.00    -0.335 N 
HETATM   14  C   UNK N   1      27.547  17.704   6.439  0.00  0.00     0.140 C 
ATOM     15  HN  UNK N   1      25.780  17.817   5.538  1.00  0.00     0.168 HD
BRANCH  14  16
HETATM   16  C   UNK N   1      28.941  17.525   5.984  0.00  0.00     0.053 C 
HETATM   17  C   UNK N   1      29.643  16.488   6.454  0.00  0.00    -0.003 C 
BRANCH  17  18
HETATM   18  C   UNK N   1      30.990  16.137   5.881  0.00  0.00     0.144 C 
BRANCH  18  19
HETATM   19  N   UNK N   1      32.063  15.968   6.875  0.00  0.00    -0.409 N 
HETATM   20  C   UNK N   1      31.765  16.507   8.208  0.00  0.00     0.117 C 
HETATM   21  C   UNK N   1      32.279  17.934   8.388  0.00  0.00     0.019 C 
HETATM   22  C   UNK N   1      33.763  17.992   8.068  0.00  0.00     0.003 C 
HETATM   23  C   UNK N   1      33.974  17.558   6.628  0.00  0.00     0.019 C 
HETATM   24  C   UNK N   1      33.455  16.130   6.421  0.00  0.00     0.117 C 
ENDBRANCH  18  19
ENDBRANCH  17  18
ENDBRANCH  14  16
BRANCH  14  25
HETATM   25  O   UNK N   1      27.321  18.548   7.461  0.00  0.00    -0.346 OA
HETATM   26  H   UNK N   1      27.264  18.564   8.396  0.00  0.00     0.219 HD
ENDBRANCH  14  25
ENDBRANCH   6  13
BRANCH   7  27
HETATM   27  O   UNK N   1      27.345  15.979   3.276  0.00  0.00    -0.354 OA
HETATM   28  C   UNK N   1      28.512  15.432   2.791  0.00  0.00     0.210 C 
ENDBRANCH   7  27
BRANCH   8  29
HETATM   29  N   UNK N   1      23.811  13.995   8.099  0.00  0.00    -0.342 N 
HETATM   30  H   UNK N   1      24.026  14.945   8.237  0.00  0.00     0.167 HD
BRANCH  29  31
HETATM   31  C   UNK N   1      23.540  13.244   9.256  0.00  0.00     0.035 A 
HETATM   32  C   UNK N   1      24.633  12.764   9.981  0.00  0.00     0.032 A 
HETATM   33  C   UNK N   1      24.444  12.130  11.205  0.00  0.00     0.046 A 
HETATM   34  C   UNK N   1      23.154  11.961  11.706  0.00  0.00     0.138 A 
HETATM   35  C   UNK N   1      22.050  12.421  10.972  0.00  0.00     0.074 A 
HETATM   36  F   UNK N   1      22.981  11.353  12.903  0.00  0.00    -0.204 F 
HETATM   37  C   UNK N   1      22.243  13.080   9.754  0.00  0.00     0.056 A 
HETATM   38 Cl   UNK N   1      20.423  12.188  11.573  0.00  0.00    -0.081 Cl
ENDBRANCH  29  31
ENDBRANCH   8  29
TORSDOF 8
ENDMDL
MODEL 8
REMARK VINA RESULT:      -7.3      7.344     11.335
REMARK  8 active torsions:
REMARK  status: ('A' for Active; 'I' for Inactive)
REMARK    1  A    between atoms: C_11  and  C_5 
REMARK    2  A    between atoms: C_23  and  C_6 
REMARK    3  A    between atoms: N_34  and  C_11 
REMARK    4  A    between atoms: N_31  and  C_16 
REMARK    5  A    between atoms: N_32  and  C_21 
REMARK    6  A    between atoms: O_36  and  C_22 
REMARK    7  A    between atoms: O_35  and  C_23 
REMARK    8  A    between atoms: N_31  and  C_24 
ROOT
HETATM    1  C   UNK N   1      25.263  17.037   4.893  0.00  0.00     0.050 C 
HETATM    2  C   UNK N   1      23.686  19.100   3.887  0.00  0.00     0.069 C 
HETATM    3  C   UNK N   1      27.067  20.445   3.495  0.00  0.00     0.182 A 
HETATM    4  C   UNK N   1      25.841  18.250   4.553  0.00  0.00     0.037 A 
HETATM    5  C   UNK N   1      25.075  19.263   3.995  0.00  0.00     0.049 A 
HETATM    6  C   UNK N   1      23.925  16.786   4.642  0.00  0.00     0.068 C 
HETATM    7  C   UNK N   1      23.094  17.852   4.201  0.00  0.00     0.097 C 
HETATM    8  C   UNK N   1      27.217  18.363   4.614  0.00  0.00     0.119 A 
HETATM    9  N   UNK N   1      25.703  20.362   3.483  0.00  0.00    -0.351 N 
ATOM     10  HN  UNK N   1      25.151  21.125   3.089  1.00  0.00     0.166 HD
HETATM   11  N   UNK N   1      27.821  19.456   4.054  0.00  0.00    -0.338 N 
ATOM     12  HN  UNK N   1      28.837  19.530   4.055  1.00  0.00     0.168 HD
ENDROOT
BRANCH   6  13
HETATM   13  N   UNK N   1      23.624  15.443   4.261  0.00  0.00    -0.335 N 
HETATM   14  C   UNK N   1      23.901  14.400   4.977  0.00  0.00     0.140 C 
ATOM     15  HN  UNK N   1      23.158  15.294   3.366  1.00  0.00     0.168 HD
BRANCH  14  16
HETATM   16  C   UNK N   1      23.466  14.247   6.380  0.00  0.00     0.053 C 
HETATM   17  C   UNK N   1      24.067  13.329   7.144  0.00  0.00    -0.003 C 
BRANCH  17  18
HETATM   18  C   UNK N   1      23.813  13.262   8.626  0.00  0.00     0.144 C 
BRANCH  18  19
HETATM   19  N   UNK N   1      22.825  12.252   9.042  0.00  0.00    -0.409 N 
HETATM   20  C   UNK N   1      21.422  12.654   8.884  0.00  0.00     0.117 C 
HETATM   21  C   UNK N   1      20.842  13.262  10.159  0.00  0.00     0.019 C 
HETATM   22  C   UNK N   1      21.032  12.302  11.321  0.00  0.00     0.003 C 
HETATM   23  C   UNK N   1      22.518  12.050  11.514  0.00  0.00     0.019 C 
HETATM   24  C   UNK N   1      23.124  11.449  10.240  0.00  0.00     0.117 C 
ENDBRANCH  18  19
ENDBRANCH  17  18
ENDBRANCH  14  16
BRANCH  14  25
HETATM   25  O   UNK N   1      24.497  13.350   4.384  0.00  0.00    -0.346 OA
HETATM   26  H   UNK N   1      25.044  12.615   4.579  0.00  0.00     0.219 HD
ENDBRANCH  14  25
ENDBRANCH   6  13
BRANCH   7  27
HETATM   27  O   UNK N   1      21.769  17.697   3.964  0.00  0.00    -0.354 OA
HETATM   28  C   UNK N   1      21.080  18.400   3.001  0.00  0.00     0.210 C 
ENDBRANCH   7  27
BRANCH   8  29
HETATM   29  N   UNK N   1      27.942  17.274   5.154  0.00  0.00    -0.342 N 
HETATM   30  H   UNK N   1      27.708  16.383   4.807  0.00  0.00     0.167 HD
BRANCH  29  31
HETATM   31  C   UNK N   1      28.955  17.314   6.127  0.00  0.00     0.035 A 
HETATM   32  C   UNK N   1      30.236  16.919   5.738  0.00  0.00     0.032 A 
HETATM   33  C   UNK N   1      31.313  17.059   6.609  0.00  0.00     0.046 A 
HETATM   34  C   UNK N   1      31.109  17.586   7.883  0.00  0.00     0.138 A 
HETATM   35  C   UNK N   1      29.820  17.965   8.289  0.00  0.00     0.074 A 
HETATM   36  F   UNK N   1      32.165  17.730   8.719  0.00  0.00    -0.204 F 
HETATM   37  C   UNK N   1      28.744  17.846   7.404  0.00  0.00     0.056 A 
HETATM   38 Cl   UNK N   1      29.543  18.599   9.896  0.00  0.00    -0.081 Cl
ENDBRANCH  29  31
ENDBRANCH   8  29
TORSDOF 8
ENDMDL
MODEL 9
REMARK VINA RESULT:      -7.3      4.071      8.856
REMARK  8 active torsions:
REMARK  status: ('A' for Active; 'I' for Inactive)
REMARK    1  A    between atoms: C_11  and  C_5 
REMARK    2  A    between atoms: C_23  and  C_6 
REMARK    3  A    between atoms: N_34  and  C_11 
REMARK    4  A    between atoms: N_31  and  C_16 
REMARK    5  A    between atoms: N_32  and  C_21 
REMARK    6  A    between atoms: O_36  and  C_22 
REMARK    7  A    between atoms: O_35  and  C_23 
REMARK    8  A    between atoms: N_31  and  C_24 
ROOT
HETATM    1  C   UNK N   1      34.272  12.587   9.796  0.00  0.00     0.050 C 
HETATM    2  C   UNK N   1      36.889  12.691  10.743  0.00  0.00     0.069 C 
HETATM    3  C   UNK N   1      35.692  16.086  11.397  0.00  0.00     0.182 A 
HETATM    4  C   UNK N   1      34.815  13.795  10.205  0.00  0.00     0.037 A 
HETATM    5  C   UNK N   1      36.097  13.848  10.734  0.00  0.00     0.049 A 
HETATM    6  C   UNK N   1      34.969  11.400   9.949  0.00  0.00     0.068 C 
HETATM    7  C   UNK N   1      36.330  11.448  10.358  0.00  0.00     0.097 C 
HETATM    8  C   UNK N   1      33.995  14.906  10.240  0.00  0.00     0.119 A 
HETATM    9  N   UNK N   1      36.526  15.007  11.314  0.00  0.00    -0.351 N 
ATOM     10  HN  UNK N   1      37.474  15.067  11.688  1.00  0.00     0.166 HD
HETATM   11  N   UNK N   1      34.436  16.040  10.867  0.00  0.00    -0.338 N 
ATOM     12  HN  UNK N   1      33.824  16.852  10.937  1.00  0.00     0.168 HD
ENDROOT
BRANCH   6  13
HETATM   13  N   UNK N   1      34.166  10.266  10.275  0.00  0.00    -0.335 N 
HETATM   14  C   UNK N   1      34.122   9.712  11.444  0.00  0.00     0.140 C 
ATOM     15  HN  UNK N   1      33.586   9.865   9.538  1.00  0.00     0.168 HD
BRANCH  14  16
HETATM   16  C   UNK N   1      33.812  10.460  12.679  0.00  0.00     0.053 C 
HETATM   17  C   UNK N   1      34.353  10.053  13.832  0.00  0.00    -0.003 C 
BRANCH  17  18
HETATM   18  C   UNK N   1      34.241  10.883  15.082  0.00  0.00     0.144 C 
BRANCH  18  19
HETATM   19  N   UNK N   1      35.525  11.335  15.645  0.00  0.00    -0.409 N 
HETATM   20  C   UNK N   1      35.441  11.919  16.990  0.00  0.00     0.117 C 
HETATM   21  C   UNK N   1      35.301  13.439  16.959  0.00  0.00     0.019 C 
HETATM   22  C   UNK N   1      36.431  14.044  16.144  0.00  0.00     0.003 C 
HETATM   23  C   UNK N   1      36.362  13.503  14.727  0.00  0.00     0.019 C 
HETATM   24  C   UNK N   1      36.490  11.975  14.735  0.00  0.00     0.117 C 
ENDBRANCH  18  19
ENDBRANCH  17  18
ENDBRANCH  14  16
BRANCH  14  25
HETATM   25  O   UNK N   1      34.233   8.374  11.530  0.00  0.00    -0.346 OA
HETATM   26  H   UNK N   1      34.391   7.693  12.152  0.00  0.00     0.219 HD
ENDBRANCH  14  25
ENDBRANCH   6  13
BRANCH   7  27
HETATM   27  O   UNK N   1      37.090  10.335  10.500  0.00  0.00    -0.354 OA
HETATM   28  C   UNK N   1      37.735   9.997  11.669  0.00  0.00     0.210 C 
ENDBRANCH   7  27
BRANCH   8  29
HETATM   29  N   UNK N   1      32.684  14.771   9.725  0.00  0.00    -0.342 N 
HETATM   30  H   UNK N   1      32.145  14.038  10.099  0.00  0.00     0.167 HD
BRANCH  29  31
HETATM   31  C   UNK N   1      32.062  15.560   8.742  0.00  0.00     0.035 A 
HETATM   32  C   UNK N   1      32.284  15.217   7.407  0.00  0.00     0.032 A 
HETATM   33  C   UNK N   1      31.596  15.868   6.387  0.00  0.00     0.046 A 
HETATM   34  C   UNK N   1      30.688  16.878   6.700  0.00  0.00     0.138 A 
HETATM   35  C   UNK N   1      30.477  17.244   8.038  0.00  0.00     0.074 A 
HETATM   36  F   UNK N   1      30.016  17.499   5.701  0.00  0.00    -0.204 F 
HETATM   37  C   UNK N   1      31.150  16.571   9.062  0.00  0.00     0.056 A 
HETATM   38 Cl   UNK N   1      29.363  18.532   8.444  0.00  0.00    -0.081 Cl
ENDBRANCH  29  31
ENDBRANCH   8  29
TORSDOF 8
ENDMDL
