REMARK  31 active torsions:
REMARK  status: ('A' for Active; 'I' for Inactive)
REMARK    1  A    between atoms: C_4  and  C_3 
REMARK    2  A    between atoms: C_7  and  C_3 
REMARK    3  A    between atoms: C_12  and  C_4 
REMARK    4  A    between atoms: C_6  and  C_5 
REMARK    5  A    between atoms: C_13  and  C_5 
REMARK    6  A    between atoms: C_19  and  C_6 
REMARK    7  A    between atoms: C_20  and  C_7 
REMARK    8  A    between atoms: N_31  and  C_12 
REMARK    9  A    between atoms: N_36  and  C_13 
REMARK   10  A    between atoms: C_17  and  C_14 
REMARK   11  A    between atoms: C_22  and  C_14 
REMARK   12  A    between atoms: C_21  and  C_15 
REMARK   13  A    between atoms: C_23  and  C_15 
REMARK   14  A    between atoms: C_24  and  C_16 
REMARK   15  A    between atoms: O_45  and  C_18 
REMARK   16  A    between atoms: C_25  and  C_19 
REMARK   17  A    between atoms: C_19  and  N_32 
REMARK   18  A    between atoms: C_26  and  C_20 
REMARK   19  A    between atoms: C_20  and  N_37 
REMARK   20  A    between atoms: C_27  and  C_21 
REMARK   21  A    between atoms: C_21  and  N_39 
REMARK   22  A    between atoms: C_29  and  C_22 
REMARK   23  A    between atoms: C_22  and  N_41 
REMARK   24  A    between atoms: O_47  and  C_23 
REMARK   25  A    between atoms: C_28  and  C_24 
REMARK   26  A    between atoms: C_24  and  N_43 
REMARK   27  A    between atoms: C_25  and  O_48 
REMARK   28  A    between atoms: C_26  and  O_49 
REMARK   29  A    between atoms: C_27  and  O_50 
REMARK   30  A    between atoms: C_28  and  O_51 
REMARK   31  A    between atoms: O_53  and  C_29 
REMARK       I    between atoms: N_35  and  C_30 
REMARK       I    between atoms: N_36  and  C_30 
ROOT
HETATM    1  C   UNK N   1      -4.765   1.215   0.801  0.00  0.00     0.167 C 
ENDROOT
BRANCH   1   2
HETATM    2  C   UNK N   1      -4.546   0.092  -0.215  0.00  0.00     0.143 C 
BRANCH   2   3
HETATM    3  C   UNK N   1      -3.111   0.095  -0.691  0.00  0.00     0.141 C 
HETATM    4  O   UNK N   1      -2.670   1.038  -1.330  0.00  0.00    -0.650 OA
BRANCH   3   5
HETATM    5  O   UNK N   1      -2.292  -0.919  -0.354  0.00  0.00    -0.776 OA
HETATM    6  H   UNK N   1      -2.618  -1.765  -0.119  0.00  0.00     0.167 HD
ENDBRANCH   3   5
ENDBRANCH   2   3
ENDBRANCH   1   2
BRANCH   1   7
HETATM    7  C   UNK N   1      -4.692   2.589   0.250  0.00  0.00     0.136 C 
HETATM    8  N   UNK N   1      -4.186   3.492   1.014  0.00  0.00    -0.360 N 
ATOM      9  HN  UNK N   1      -3.713   3.172   1.859  1.00  0.00     0.162 HD
BRANCH   8  10
HETATM   10  C   UNK N   1      -4.225   4.912   0.787  0.00  0.00     0.161 C 
BRANCH  10  11
HETATM   11  C   UNK N   1      -3.270   5.396  -0.327  0.00  0.00     0.008 C 
HETATM   12  C   UNK N   1      -3.611   4.942  -1.732  0.00  0.00     0.012 C 
HETATM   13  C   UNK N   1      -1.831   5.024  -0.006  0.00  0.00     0.012 C 
ENDBRANCH  10  11
BRANCH  10  14
HETATM   14  C   UNK N   1      -5.659   5.373   0.714  0.00  0.00     0.135 C 
HETATM   15  N   UNK N   1      -6.088   6.044  -0.302  0.00  0.00    -0.358 N 
ATOM     16  HN  UNK N   1      -5.498   6.097  -1.133  1.00  0.00     0.162 HD
BRANCH  15  17
HETATM   17  C   UNK N   1      -7.373   6.730  -0.321  0.00  0.00     0.185 C 
BRANCH  17  18
HETATM   18  C   UNK N   1      -7.347   7.841   0.759  0.00  0.00     0.074 C 
BRANCH  18  19
HETATM   19  C   UNK N   1      -6.052   8.591   0.632  0.00  0.00    -0.056 A 
HETATM   20  C   UNK N   1      -5.001   8.302   1.514  0.00  0.00     0.010 A 
HETATM   21  C   UNK N   1      -3.721   8.806   1.268  0.00  0.00     0.037 A 
HETATM   22  C   UNK N   1      -3.488   9.595   0.138  0.00  0.00     0.065 A 
HETATM   23  C   UNK N   1      -4.540   9.903  -0.730  0.00  0.00     0.037 A 
HETATM   24  C   UNK N   1      -5.816   9.390  -0.492  0.00  0.00     0.010 A 
BRANCH  22  25
HETATM   25  O   UNK N   1      -2.253  10.052  -0.119  0.00  0.00    -0.361 OA
HETATM   26  H   UNK N   1      -1.545   9.465  -0.298  0.00  0.00     0.217 HD
ENDBRANCH  22  25
ENDBRANCH  18  19
ENDBRANCH  17  18
BRANCH  17  27
HETATM   27  C   UNK N   1      -8.530   5.772  -0.186  0.00  0.00     0.163 C 
HETATM   28  O   UNK N   1      -9.318   5.865   0.743  0.00  0.00    -0.648 OA
BRANCH  27  29
HETATM   29  O   UNK N   1      -8.707   4.815  -1.114  0.00  0.00    -0.775 OA
HETATM   30  H   UNK N   1      -9.345   4.588  -1.761  0.00  0.00     0.167 HD
ENDBRANCH  27  29
ENDBRANCH  17  27
ENDBRANCH  15  17
BRANCH  14  31
HETATM   31  O   UNK N   1      -6.463   5.144   1.776  0.00  0.00    -0.348 OA
HETATM   32  H   UNK N   1      -6.879   5.547   2.512  0.00  0.00     0.219 HD
ENDBRANCH  14  31
ENDBRANCH  10  14
ENDBRANCH   8  10
BRANCH   7  33
HETATM   33  O   UNK N   1      -5.337   2.905  -0.894  0.00  0.00    -0.348 OA
HETATM   34  H   UNK N   1      -5.370   3.402  -1.687  0.00  0.00     0.219 HD
ENDBRANCH   7  33
ENDBRANCH   1   7
BRANCH   1  35
HETATM   35  N   UNK N   1      -5.933   1.153   1.664  0.00  0.00    -0.360 N 
HETATM   36  C   UNK N   1      -7.200   1.080   1.403  0.00  0.00     0.135 C 
ATOM     37  HN  UNK N   1      -5.715   1.170   2.660  1.00  0.00     0.162 HD
BRANCH  36  38
HETATM   38  C   UNK N   1      -7.782   0.817   0.037  0.00  0.00     0.158 C 
BRANCH  38  39
HETATM   39  C   UNK N   1      -8.822   1.877  -0.398  0.00  0.00     0.033 C 
BRANCH  39  40
HETATM   40  C   UNK N   1     -10.019   2.023   0.540  0.00  0.00     0.004 C 
BRANCH  40  41
HETATM   41  C   UNK N   1     -11.118   2.824  -0.135  0.00  0.00     0.019 C 
BRANCH  41  42
HETATM   42  C   UNK N   1     -12.465   2.389   0.410  0.00  0.00     0.111 C 
BRANCH  42  43
HETATM   43  N   UNK N   1     -13.525   3.129  -0.252  0.00  0.00    -0.430 N 
HETATM   44  H   UNK N   1     -13.448   4.033  -0.717  0.00  0.00     0.149 HD
HETATM   45  H   UNK N   1     -14.449   2.696  -0.252  0.00  0.00     0.149 HD
ENDBRANCH  42  43
ENDBRANCH  41  42
ENDBRANCH  40  41
ENDBRANCH  39  40
ENDBRANCH  38  39
BRANCH  38  46
HETATM   46  N   UNK N   1      -8.297  -0.529   0.183  0.00  0.00    -0.361 N 
HETATM   47  C   UNK N   1      -9.397  -1.079  -0.193  0.00  0.00     0.134 C 
ATOM     48  HN  UNK N   1      -7.667  -1.161   0.678  1.00  0.00     0.162 HD
BRANCH  47  49
HETATM   49  C   UNK N   1      -9.634  -2.502   0.235  0.00  0.00     0.149 C 
BRANCH  49  50
HETATM   50  C   UNK N   1      -8.439  -3.417  -0.085  0.00  0.00     0.034 C 
BRANCH  50  51
HETATM   51  C   UNK N   1      -7.943  -3.352  -1.528  0.00  0.00     0.023 C 
BRANCH  51  52
HETATM   52  C   UNK N   1      -6.890  -2.260  -1.694  0.00  0.00     0.138 C 
BRANCH  52  53
HETATM   53  N   UNK N   1      -5.548  -2.807  -1.702  0.00  0.00    -0.227 N 
HETATM   54  C   UNK N   1      -4.861  -3.146  -0.511  0.00  0.00     0.665 C 
HETATM   55  N   UNK N   1      -3.637  -3.563  -0.595  0.00  0.00    -0.235 N 
HETATM   56  N   UNK N   1      -5.451  -2.992   0.753  0.00  0.00    -0.235 N 
HETATM   57  H   UNK N   1      -3.447  -4.527  -0.659  0.00  0.00     0.174 HD
ATOM     58  HN  UNK N   1      -2.869  -2.892  -0.595  1.00  0.00     0.174 HD
HETATM   59  H   UNK N   1      -5.565  -2.580   1.640  0.00  0.00     0.174 HD
HETATM   60  H   UNK N   1      -6.142  -3.693   0.753  0.00  0.00     0.174 HD
HETATM   61  H   UNK N   1      -5.099  -2.949  -2.567  0.00  0.00     0.177 HD
ENDBRANCH  52  53
ENDBRANCH  51  52
ENDBRANCH  50  51
ENDBRANCH  49  50
BRANCH  49  62
HETATM   62  N   UNK N   1     -10.855  -3.034  -0.345  0.00  0.00    -0.419 N 
HETATM   63  H   UNK N   1     -11.608  -2.478  -0.751  0.00  0.00     0.150 HD
HETATM   64  H   UNK N   1     -10.970  -4.048  -0.345  0.00  0.00     0.150 HD
ENDBRANCH  49  62
ENDBRANCH  47  49
BRANCH  47  65
HETATM   65  O   UNK N   1     -10.305  -0.421  -0.945  0.00  0.00    -0.348 OA
HETATM   66  H   UNK N   1     -10.225   0.353  -1.467  0.00  0.00     0.219 HD
ENDBRANCH  47  65
ENDBRANCH  38  46
ENDBRANCH  36  38
BRANCH  36  67
HETATM   67  O   UNK N   1      -8.054   1.114   2.444  0.00  0.00    -0.348 OA
HETATM   68  H   UNK N   1      -8.330   1.640   3.169  0.00  0.00     0.219 HD
ENDBRANCH  36  67
ENDBRANCH   1  35
TORSDOF 31
