MODEL 1
REMARK VINA RESULT:      -7.5      0.000      0.000
REMARK WARNING: 32 MAX_TORS EXCEEDED!!!
REMARK  45 active torsions:
REMARK  status: ('A' for Active; 'I' for Inactive)
REMARK    1  A    between atoms: C_2  and  C_3 
REMARK    2  A    between atoms: C_2  and  N_46 
REMARK       I    between atoms: C_3  and  N_5 
REMARK    3  A    between atoms: C_6  and  N_5 
REMARK    4  A    between atoms: C_6  and  C_7 
REMARK    5  A    between atoms: C_6  and  C_11 
REMARK    6  A    between atoms: C_7  and  C_8 
REMARK    7  A    between atoms: C_8  and  O_10 
REMARK       I    between atoms: C_11  and  N_13 
REMARK    8  A    between atoms: C_14  and  N_13 
REMARK    9  A    between atoms: C_14  and  C_15 
REMARK   10  A    between atoms: C_14  and  C_19 
REMARK   11  A    between atoms: C_15  and  C_16 
REMARK   12  A    between atoms: C_16  and  O_18 
REMARK       I    between atoms: C_19  and  N_21 
REMARK   13  A    between atoms: N_21  and  C_22 
REMARK   14  A    between atoms: C_22  and  C_24 
REMARK       I    between atoms: C_24  and  N_26 
REMARK   15  A    between atoms: N_26  and  C_27 
REMARK   16  A    between atoms: C_27  and  C_28 
REMARK       I    between atoms: C_28  and  N_30 
REMARK   17  A    between atoms: C_31  and  N_30 
REMARK   18  A    between atoms: C_31  and  C_32 
REMARK   19  A    between atoms: C_31  and  C_36 
REMARK   20  A    between atoms: C_32  and  C_33 
REMARK       I    between atoms: C_36  and  N_38 
REMARK   21  A    between atoms: C_39  and  N_38 
REMARK   22  A    between atoms: C_39  and  C_40 
REMARK   23  A    between atoms: C_39  and  C_43 
REMARK   24  A    between atoms: C_43  and  O_45 
REMARK       I    between atoms: N_46  and  C_47 
REMARK   25  A    between atoms: C_49  and  C_47 
REMARK       I    between atoms: N_53  and  C_54 
REMARK   26  A    between atoms: C_54  and  C_56 
REMARK   27  A    between atoms: C_56  and  C_57 
REMARK   28  A    between atoms: C_56  and  N_62 
REMARK   29  A    between atoms: C_57  and  C_58 
REMARK   30  A    between atoms: C_58  and  C_59 
REMARK   31  A    between atoms: C_59  and  C_60 
REMARK   32  A    between atoms: C_60  and  N_61 
REMARK       I    between atoms: N_62  and  C_63 
REMARK   33  A    between atoms: C_63  and  C_65 
REMARK   34  A    between atoms: C_65  and  N_66 
REMARK       I    between atoms: N_66  and  C_67 
REMARK   35  A    between atoms: C_69  and  C_67 
REMARK       I    between atoms: N_73  and  C_74 
REMARK   36  A    between atoms: C_76  and  C_74 
REMARK       I    between atoms: N_80  and  C_81 
REMARK   37  A    between atoms: C_83  and  C_81 
REMARK       I    between atoms: N_87  and  C_88 
REMARK   38  A    between atoms: C_88  and  C_90 
REMARK   39  A    between atoms: C_90  and  C_91 
REMARK   40  A    between atoms: C_90  and  N_96 
REMARK   41  A    between atoms: C_91  and  C_92 
REMARK   42  A    between atoms: C_92  and  C_93 
REMARK   43  A    between atoms: C_93  and  O_95 
REMARK       I    between atoms: N_96  and  C_97 
REMARK   44  A    between atoms: C_97  and  C_99 
REMARK   45  A    between atoms: C_99  and  N_100 
ROOT
HETATM    1  C   UNK N   1      31.192  17.030   5.556  0.00  0.00     0.179 C 
HETATM    2  C   UNK N   1      32.705  17.066   5.536  0.00  0.00     0.037 C 
HETATM    3  C   UNK N   1      33.074  17.433   4.099  0.00  0.00     0.022 C 
HETATM    4  C   UNK N   1      31.882  17.028   3.240  0.00  0.00     0.127 C 
HETATM    5  N   UNK N   1      30.808  16.894   4.173  0.00  0.00    -0.337 N 
HETATM    6  C   UNK N   1      29.518  16.749   3.788  0.00  0.00     0.243 C 
HETATM    7  O   UNK N   1      29.240  16.509   2.616  0.00  0.00    -0.271 OA
ENDROOT
BRANCH   1   8
HETATM    8  C   UNK N   1      30.648  15.933   6.461  0.00  0.00     0.241 C 
HETATM    9  N   UNK N   1      30.764  14.596   6.207  0.00  0.00    -0.346 N 
HETATM   10  H   UNK N   1      30.252  14.004   6.804  0.00  0.00     0.163 HD
HETATM   11  O   UNK N   1      29.988  16.277   7.429  0.00  0.00    -0.271 OA
BRANCH   9  12
HETATM   12  C   UNK N   1      31.537  13.933   5.178  0.00  0.00     0.172 C 
HETATM   13  C   UNK N   1      30.622  13.353   4.114  0.00  0.00     0.042 C 
BRANCH  12  14
HETATM   14  C   UNK N   1      32.429  12.871   5.750  0.00  0.00     0.240 C 
HETATM   15  O   UNK N   1      32.141  11.713   5.536  0.00  0.00    -0.271 OA
HETATM   16  N   UNK N   1      33.503  13.095   6.534  0.00  0.00    -0.346 N 
HETATM   17  H   UNK N   1      34.113  12.325   6.589  0.00  0.00     0.163 HD
BRANCH  16  18
HETATM   18  C   UNK N   1      33.946  14.235   7.313  0.00  0.00     0.186 C 
BRANCH  18  19
HETATM   19  C   UNK N   1      33.469  13.929   8.738  0.00  0.00     0.144 C 
BRANCH  19  20
HETATM   20  C   UNK N   1      33.148  15.171   9.560  0.00  0.00     0.141 C 
HETATM   21  O   UNK N   1      32.918  16.237   9.011  0.00  0.00    -0.650 OA
BRANCH  20  22
HETATM   22  O   UNK N   1      33.195  15.112  10.904  0.00  0.00    -0.776 OA
HETATM   23  H   UNK N   1      33.861  14.877  11.521  0.00  0.00     0.167 HD
ENDBRANCH  20  22
ENDBRANCH  19  20
ENDBRANCH  18  19
BRANCH  18  24
HETATM   24  C   UNK N   1      35.400  14.712   7.137  0.00  0.00     0.241 C 
HETATM   25  O   UNK N   1      35.597  15.818   6.694  0.00  0.00    -0.271 OA
HETATM   26  N   UNK N   1      36.493  14.052   7.590  0.00  0.00    -0.345 N 
HETATM   27  H   UNK N   1      37.365  14.433   7.336  0.00  0.00     0.163 HD
BRANCH  26  28
HETATM   28  C   UNK N   1      36.534  12.866   8.393  0.00  0.00     0.186 C 
BRANCH  28  29
HETATM   29  C   UNK N   1      36.568  13.260   9.865  0.00  0.00     0.144 C 
BRANCH  29  30
HETATM   30  C   UNK N   1      37.160  14.629  10.030  0.00  0.00     0.141 C 
HETATM   31  O   UNK N   1      36.438  15.575  10.302  0.00  0.00    -0.650 OA
BRANCH  30  32
HETATM   32  O   UNK N   1      38.484  14.819   9.881  0.00  0.00    -0.776 OA
HETATM   33  H   UNK N   1      38.927  15.458  10.404  0.00  0.00     0.167 HD
ENDBRANCH  30  32
ENDBRANCH  29  30
ENDBRANCH  28  29
BRANCH  28  34
HETATM   34  C   UNK N   1      37.681  11.971   8.013  0.00  0.00     0.241 C 
HETATM   35  O   UNK N   1      38.781  12.129   8.518  0.00  0.00    -0.271 OA
HETATM   36  N   UNK N   1      37.500  11.005   7.076  0.00  0.00    -0.346 N 
HETATM   37  H   UNK N   1      38.276  10.494   6.750  0.00  0.00     0.163 HD
BRANCH  36  38
HETATM   38  C   UNK N   1      36.182  10.712   6.546  0.00  0.00     0.172 C 
HETATM   39  C   UNK N   1      35.978  11.257   5.147  0.00  0.00     0.042 C 
BRANCH  38  40
HETATM   40  C   UNK N   1      35.822   9.243   6.668  0.00  0.00     0.240 C 
HETATM   41  O   UNK N   1      35.948   8.534   5.683  0.00  0.00    -0.271 OA
HETATM   42  N   UNK N   1      35.293   8.704   7.807  0.00  0.00    -0.351 N 
HETATM   43  H   UNK N   1      34.940   7.785   7.763  0.00  0.00     0.163 HD
BRANCH  42  44
HETATM   44  C   UNK N   1      35.218   9.403   9.077  0.00  0.00     0.225 C 
BRANCH  44  45
HETATM   45  C   UNK N   1      35.357   8.366  10.128  0.00  0.00     0.236 C 
HETATM   46  O   UNK N   1      34.473   7.541  10.287  0.00  0.00    -0.272 OA
HETATM   47  N   UNK N   1      36.259   8.594  11.093  0.00  0.00    -0.346 N 
HETATM   48  H   UNK N   1      37.218   8.520  10.883  0.00  0.00     0.163 HD
BRANCH  47  49
HETATM   49  C   UNK N   1      35.856   8.943  12.431  0.00  0.00     0.177 C 
BRANCH  49  50
HETATM   50  C   UNK N   1      36.630   8.137  13.487  0.00  0.00     0.038 C 
BRANCH  50  51
HETATM   51  C   UNK N   1      35.955   8.046  14.845  0.00  0.00    -0.020 C 
HETATM   52  C   UNK N   1      35.859   6.588  15.260  0.00  0.00     0.009 C 
HETATM   53  C   UNK N   1      36.804   8.776  15.860  0.00  0.00     0.009 C 
ENDBRANCH  50  51
ENDBRANCH  49  50
BRANCH  49  54
HETATM   54  C   UNK N   1      36.202  10.405  12.519  0.00  0.00     0.241 C 
HETATM   55  O   UNK N   1      37.370  10.752  12.415  0.00  0.00    -0.271 OA
HETATM   56  N   UNK N   1      35.275  11.240  13.030  0.00  0.00    -0.345 N 
HETATM   57  H   UNK N   1      34.350  11.157  12.703  0.00  0.00     0.163 HD
BRANCH  56  58
HETATM   58  C   UNK N   1      35.551  12.248  14.027  0.00  0.00     0.185 C 
BRANCH  58  59
HETATM   59  C   UNK N   1      34.497  12.107  15.134  0.00  0.00     0.010 C 
HETATM   60  C   UNK N   1      35.161  11.952  16.486  0.00  0.00     0.012 C 
HETATM   61  C   UNK N   1      33.626  10.873  14.908  0.00  0.00     0.012 C 
ENDBRANCH  58  59
BRANCH  58  62
HETATM   62  C   UNK N   1      35.737  13.651  13.499  0.00  0.00     0.163 C 
HETATM   63  O   UNK N   1      34.894  14.149  12.771  0.00  0.00    -0.648 OA
BRANCH  62  64
HETATM   64  O   UNK N   1      36.879  14.323  13.739  0.00  0.00    -0.775 OA
HETATM   65  H   UNK N   1      37.172  15.033  13.201  0.00  0.00     0.167 HD
ENDBRANCH  62  64
ENDBRANCH  58  62
ENDBRANCH  56  58
ENDBRANCH  49  54
ENDBRANCH  47  49
ENDBRANCH  44  45
ENDBRANCH  42  44
ENDBRANCH  38  40
ENDBRANCH  36  38
ENDBRANCH  28  34
ENDBRANCH  26  28
ENDBRANCH  18  24
ENDBRANCH  16  18
ENDBRANCH  12  14
ENDBRANCH   9  12
ENDBRANCH   1   8
BRANCH   6  66
HETATM   66  C   UNK N   1      28.438  17.000   4.784  0.00  0.00     0.176 C 
BRANCH  66  67
HETATM   67  C   UNK N   1      28.231  18.529   4.798  0.00  0.00     0.035 C 
BRANCH  67  68
HETATM   68  C   UNK N   1      27.481  18.978   6.060  0.00  0.00     0.004 C 
BRANCH  68  69
HETATM   69  C   UNK N   1      28.415  19.337   7.202  0.00  0.00     0.019 C 
BRANCH  69  70
HETATM   70  C   UNK N   1      27.951  18.697   8.498  0.00  0.00     0.111 C 
BRANCH  70  71
HETATM   71  N   UNK N   1      27.445  17.362   8.228  0.00  0.00    -0.430 N 
HETATM   72  H   UNK N   1      27.935  16.537   8.572  0.00  0.00     0.149 HD
HETATM   73  H   UNK N   1      26.588  17.249   7.687  0.00  0.00     0.149 HD
ENDBRANCH  70  71
ENDBRANCH  69  70
ENDBRANCH  68  69
ENDBRANCH  67  68
ENDBRANCH  66  67
BRANCH  66  74
HETATM   74  N   UNK N   1      27.209  16.360   4.431  0.00  0.00    -0.346 N 
HETATM   75  C   UNK N   1      26.871  15.176   4.972  0.00  0.00     0.236 C 
HETATM   76  O   UNK N   1      27.661  14.545   5.664  0.00  0.00    -0.272 OA
HETATM   77  H   UNK N   1      26.603  16.792   3.787  0.00  0.00     0.163 HD
BRANCH  75  78
HETATM   78  C   UNK N   1      25.462  14.778   4.919  0.00  0.00     0.225 C 
BRANCH  78  79
HETATM   79  N   UNK N   1      25.357  13.872   3.809  0.00  0.00    -0.351 N 
HETATM   80  C   UNK N   1      25.038  14.247   2.540  0.00  0.00     0.241 C 
HETATM   81  O   UNK N   1      24.897  15.430   2.263  0.00  0.00    -0.271 OA
HETATM   82  H   UNK N   1      25.527  12.917   3.975  0.00  0.00     0.163 HD
BRANCH  80  83
HETATM   83  C   UNK N   1      24.945  13.175   1.461  0.00  0.00     0.179 C 
HETATM   84  C   UNK N   1      26.066  12.154   1.586  0.00  0.00     0.037 C 
HETATM   85  C   UNK N   1      25.474  10.985   2.374  0.00  0.00     0.022 C 
HETATM   86  C   UNK N   1      23.959  11.154   2.340  0.00  0.00     0.127 C 
HETATM   87  N   UNK N   1      23.748  12.434   1.722  0.00  0.00    -0.337 N 
HETATM   88  C   UNK N   1      22.519  12.994   1.531  0.00  0.00     0.243 C 
HETATM   89  O   UNK N   1      22.434  14.044   0.894  0.00  0.00    -0.271 OA
BRANCH  88  90
HETATM   90  C   UNK N   1      21.278  12.440   2.178  0.00  0.00     0.179 C 
HETATM   91  C   UNK N   1      20.243  12.119   1.117  0.00  0.00     0.037 C 
HETATM   92  C   UNK N   1      18.995  12.922   1.472  0.00  0.00     0.022 C 
HETATM   93  C   UNK N   1      19.369  13.860   2.609  0.00  0.00     0.127 C 
HETATM   94  N   UNK N   1      20.671  13.440   3.030  0.00  0.00    -0.337 N 
HETATM   95  C   UNK N   1      21.306  13.962   4.137  0.00  0.00     0.243 C 
HETATM   96  O   UNK N   1      22.388  13.516   4.483  0.00  0.00    -0.271 OA
BRANCH  95  97
HETATM   97  C   UNK N   1      20.688  15.102   4.932  0.00  0.00     0.179 C 
HETATM   98  C   UNK N   1      20.629  14.713   6.401  0.00  0.00     0.037 C 
HETATM   99  C   UNK N   1      21.096  15.924   7.193  0.00  0.00     0.022 C 
HETATM  100  C   UNK N   1      21.833  16.811   6.212  0.00  0.00     0.127 C 
HETATM  101  N   UNK N   1      21.438  16.348   4.912  0.00  0.00    -0.337 N 
HETATM  102  C   UNK N   1      21.662  17.101   3.786  0.00  0.00     0.243 C 
HETATM  103  O   UNK N   1      21.286  16.699   2.694  0.00  0.00    -0.271 OA
BRANCH 102 104
HETATM  104  C   UNK N   1      22.347  18.462   3.895  0.00  0.00     0.177 C 
BRANCH 104 105
HETATM  105  C   UNK N   1      23.878  18.387   3.837  0.00  0.00     0.045 C 
BRANCH 105 106
HETATM  106  C   UNK N   1      24.487  19.746   4.166  0.00  0.00     0.112 C 
BRANCH 106 107
HETATM  107  C   UNK N   1      25.019  20.426   2.948  0.00  0.00     0.139 C 
HETATM  108  O   UNK N   1      24.251  20.804   2.078  0.00  0.00    -0.650 OA
BRANCH 107 109
HETATM  109  O   UNK N   1      26.340  20.650   2.817  0.00  0.00    -0.776 OA
HETATM  110  H   UNK N   1      26.945  20.626   3.532  0.00  0.00     0.167 HD
ENDBRANCH 107 109
ENDBRANCH 106 107
ENDBRANCH 105 106
ENDBRANCH 104 105
BRANCH 104 111
HETATM  111  N   UNK N   1      21.854  19.304   2.822  0.00  0.00    -0.346 N 
HETATM  112  C   UNK N   1      20.901  20.255   2.976  0.00  0.00     0.235 C 
HETATM  113  O   UNK N   1      20.420  20.487   4.076  0.00  0.00    -0.272 OA
HETATM  114  H   UNK N   1      22.235  19.176   1.923  0.00  0.00     0.163 HD
BRANCH 112 115
HETATM  115  C   UNK N   1      20.422  20.998   1.763  0.00  0.00     0.214 C 
BRANCH 115 116
HETATM  116  N   UNK N   1      21.227  20.689   0.592  0.00  0.00    -0.422 N 
HETATM  117  H   UNK N   1      22.240  20.578   0.538  0.00  0.00     0.150 HD
HETATM  118  H   UNK N   1      20.717  20.567  -0.283  0.00  0.00     0.150 HD
ENDBRANCH 115 116
ENDBRANCH 112 115
ENDBRANCH 104 111
ENDBRANCH 102 104
ENDBRANCH  95  97
ENDBRANCH  88  90
ENDBRANCH  80  83
ENDBRANCH  78  79
ENDBRANCH  75  78
ENDBRANCH  66  74
ENDBRANCH   6  66
TORSDOF 45
ENDMDL
MODEL 2
REMARK VINA RESULT:      -7.2      2.424      4.964
REMARK WARNING: 32 MAX_TORS EXCEEDED!!!
REMARK  45 active torsions:
REMARK  status: ('A' for Active; 'I' for Inactive)
REMARK    1  A    between atoms: C_2  and  C_3 
REMARK    2  A    between atoms: C_2  and  N_46 
REMARK       I    between atoms: C_3  and  N_5 
REMARK    3  A    between atoms: C_6  and  N_5 
REMARK    4  A    between atoms: C_6  and  C_7 
REMARK    5  A    between atoms: C_6  and  C_11 
REMARK    6  A    between atoms: C_7  and  C_8 
REMARK    7  A    between atoms: C_8  and  O_10 
REMARK       I    between atoms: C_11  and  N_13 
REMARK    8  A    between atoms: C_14  and  N_13 
REMARK    9  A    between atoms: C_14  and  C_15 
REMARK   10  A    between atoms: C_14  and  C_19 
REMARK   11  A    between atoms: C_15  and  C_16 
REMARK   12  A    between atoms: C_16  and  O_18 
REMARK       I    between atoms: C_19  and  N_21 
REMARK   13  A    between atoms: N_21  and  C_22 
REMARK   14  A    between atoms: C_22  and  C_24 
REMARK       I    between atoms: C_24  and  N_26 
REMARK   15  A    between atoms: N_26  and  C_27 
REMARK   16  A    between atoms: C_27  and  C_28 
REMARK       I    between atoms: C_28  and  N_30 
REMARK   17  A    between atoms: C_31  and  N_30 
REMARK   18  A    between atoms: C_31  and  C_32 
REMARK   19  A    between atoms: C_31  and  C_36 
REMARK   20  A    between atoms: C_32  and  C_33 
REMARK       I    between atoms: C_36  and  N_38 
REMARK   21  A    between atoms: C_39  and  N_38 
REMARK   22  A    between atoms: C_39  and  C_40 
REMARK   23  A    between atoms: C_39  and  C_43 
REMARK   24  A    between atoms: C_43  and  O_45 
REMARK       I    between atoms: N_46  and  C_47 
REMARK   25  A    between atoms: C_49  and  C_47 
REMARK       I    between atoms: N_53  and  C_54 
REMARK   26  A    between atoms: C_54  and  C_56 
REMARK   27  A    between atoms: C_56  and  C_57 
REMARK   28  A    between atoms: C_56  and  N_62 
REMARK   29  A    between atoms: C_57  and  C_58 
REMARK   30  A    between atoms: C_58  and  C_59 
REMARK   31  A    between atoms: C_59  and  C_60 
REMARK   32  A    between atoms: C_60  and  N_61 
REMARK       I    between atoms: N_62  and  C_63 
REMARK   33  A    between atoms: C_63  and  C_65 
REMARK   34  A    between atoms: C_65  and  N_66 
REMARK       I    between atoms: N_66  and  C_67 
REMARK   35  A    between atoms: C_69  and  C_67 
REMARK       I    between atoms: N_73  and  C_74 
REMARK   36  A    between atoms: C_76  and  C_74 
REMARK       I    between atoms: N_80  and  C_81 
REMARK   37  A    between atoms: C_83  and  C_81 
REMARK       I    between atoms: N_87  and  C_88 
REMARK   38  A    between atoms: C_88  and  C_90 
REMARK   39  A    between atoms: C_90  and  C_91 
REMARK   40  A    between atoms: C_90  and  N_96 
REMARK   41  A    between atoms: C_91  and  C_92 
REMARK   42  A    between atoms: C_92  and  C_93 
REMARK   43  A    between atoms: C_93  and  O_95 
REMARK       I    between atoms: N_96  and  C_97 
REMARK   44  A    between atoms: C_97  and  C_99 
REMARK   45  A    between atoms: C_99  and  N_100 
ROOT
HETATM    1  C   UNK N   1      30.349  17.181   4.610  0.00  0.00     0.179 C 
HETATM    2  C   UNK N   1      31.820  17.232   4.261  0.00  0.00     0.037 C 
HETATM    3  C   UNK N   1      31.872  17.103   2.739  0.00  0.00     0.022 C 
HETATM    4  C   UNK N   1      30.576  16.415   2.329  0.00  0.00     0.127 C 
HETATM    5  N   UNK N   1      29.718  16.584   3.459  0.00  0.00    -0.337 N 
HETATM    6  C   UNK N   1      28.394  16.297   3.423  0.00  0.00     0.243 C 
HETATM    7  O   UNK N   1      27.917  15.674   2.478  0.00  0.00    -0.271 OA
ENDROOT
BRANCH   1   8
HETATM    8  C   UNK N   1      30.085  16.443   5.915  0.00  0.00     0.241 C 
HETATM    9  N   UNK N   1      30.270  15.101   6.091  0.00  0.00    -0.346 N 
HETATM   10  H   UNK N   1      29.935  14.733   6.941  0.00  0.00     0.163 HD
HETATM   11  O   UNK N   1      29.591  17.079   6.833  0.00  0.00    -0.271 OA
BRANCH   9  12
HETATM   12  C   UNK N   1      30.891  14.146   5.198  0.00  0.00     0.172 C 
HETATM   13  C   UNK N   1      29.847  13.225   4.592  0.00  0.00     0.042 C 
BRANCH  12  14
HETATM   14  C   UNK N   1      31.963  13.355   5.887  0.00  0.00     0.240 C 
HETATM   15  O   UNK N   1      31.858  12.147   5.898  0.00  0.00    -0.271 OA
HETATM   16  N   UNK N   1      33.015  13.879   6.548  0.00  0.00    -0.346 N 
HETATM   17  H   UNK N   1      33.743  13.234   6.697  0.00  0.00     0.163 HD
BRANCH  16  18
HETATM   18  C   UNK N   1      33.296  15.196   7.086  0.00  0.00     0.186 C 
BRANCH  18  19
HETATM   19  C   UNK N   1      32.673  15.174   8.488  0.00  0.00     0.144 C 
BRANCH  19  20
HETATM   20  C   UNK N   1      32.075  16.508   8.916  0.00  0.00     0.141 C 
HETATM   21  O   UNK N   1      32.711  17.543   8.793  0.00  0.00    -0.650 OA
BRANCH  20  22
HETATM   22  O   UNK N   1      30.867  16.537   9.510  0.00  0.00    -0.776 OA
HETATM   23  H   UNK N   1      30.042  16.924   9.286  0.00  0.00     0.167 HD
ENDBRANCH  20  22
ENDBRANCH  19  20
ENDBRANCH  18  19
BRANCH  18  24
HETATM   24  C   UNK N   1      34.731  15.741   6.954  0.00  0.00     0.241 C 
HETATM   25  O   UNK N   1      34.925  16.690   6.232  0.00  0.00    -0.271 OA
HETATM   26  N   UNK N   1      35.784  15.346   7.709  0.00  0.00    -0.345 N 
HETATM   27  H   UNK N   1      36.659  15.721   7.461  0.00  0.00     0.163 HD
BRANCH  26  28
HETATM   28  C   UNK N   1      35.778  14.446   8.824  0.00  0.00     0.186 C 
BRANCH  28  29
HETATM   29  C   UNK N   1      36.490  15.104  10.000  0.00  0.00     0.144 C 
BRANCH  29  30
HETATM   30  C   UNK N   1      35.622  16.160  10.618  0.00  0.00     0.141 C 
HETATM   31  O   UNK N   1      35.677  17.308  10.208  0.00  0.00    -0.650 OA
BRANCH  30  32
HETATM   32  O   UNK N   1      34.781  15.848  11.621  0.00  0.00    -0.776 OA
HETATM   33  H   UNK N   1      34.776  16.362  12.404  0.00  0.00     0.167 HD
ENDBRANCH  30  32
ENDBRANCH  29  30
ENDBRANCH  28  29
BRANCH  28  34
HETATM   34  C   UNK N   1      36.368  13.110   8.470  0.00  0.00     0.241 C 
HETATM   35  O   UNK N   1      37.426  13.043   7.865  0.00  0.00    -0.271 OA
HETATM   36  N   UNK N   1      35.702  11.971   8.792  0.00  0.00    -0.346 N 
HETATM   37  H   UNK N   1      36.035  11.105   8.464  0.00  0.00     0.163 HD
BRANCH  36  38
HETATM   38  C   UNK N   1      34.506  12.009   9.614  0.00  0.00     0.172 C 
HETATM   39  C   UNK N   1      33.445  11.032   9.150  0.00  0.00     0.042 C 
BRANCH  38  40
HETATM   40  C   UNK N   1      34.818  11.889  11.094  0.00  0.00     0.240 C 
HETATM   41  O   UNK N   1      34.553  12.835  11.818  0.00  0.00    -0.271 OA
HETATM   42  N   UNK N   1      35.450  10.803  11.630  0.00  0.00    -0.351 N 
HETATM   43  H   UNK N   1      35.758  10.861  12.564  0.00  0.00     0.163 HD
BRANCH  42  44
HETATM   44  C   UNK N   1      35.695   9.568  10.907  0.00  0.00     0.225 C 
BRANCH  44  45
HETATM   45  C   UNK N   1      36.475   8.701  11.824  0.00  0.00     0.236 C 
HETATM   46  O   UNK N   1      36.066   7.585  12.100  0.00  0.00    -0.272 OA
HETATM   47  N   UNK N   1      37.394   9.300  12.593  0.00  0.00    -0.346 N 
HETATM   48  H   UNK N   1      38.226   9.629  12.183  0.00  0.00     0.163 HD
BRANCH  47  49
HETATM   49  C   UNK N   1      37.190   9.473  14.009  0.00  0.00     0.177 C 
BRANCH  49  50
HETATM   50  C   UNK N   1      38.092   8.537  14.832  0.00  0.00     0.038 C 
BRANCH  50  51
HETATM   51  C   UNK N   1      37.530   8.132  16.183  0.00  0.00    -0.020 C 
HETATM   52  C   UNK N   1      36.017   8.260  16.155  0.00  0.00     0.009 C 
HETATM   53  C   UNK N   1      37.881   6.685  16.442  0.00  0.00     0.009 C 
ENDBRANCH  50  51
ENDBRANCH  49  50
BRANCH  49  54
HETATM   54  C   UNK N   1      37.571  10.912  14.234  0.00  0.00     0.241 C 
HETATM   55  O   UNK N   1      38.705  11.181  14.606  0.00  0.00    -0.271 OA
HETATM   56  N   UNK N   1      36.576  11.816  14.336  0.00  0.00    -0.345 N 
HETATM   57  H   UNK N   1      35.855  11.784  13.667  0.00  0.00     0.163 HD
BRANCH  56  58
HETATM   58  C   UNK N   1      36.500  12.827  15.364  0.00  0.00     0.185 C 
BRANCH  58  59
HETATM   59  C   UNK N   1      35.141  12.679  16.061  0.00  0.00     0.010 C 
HETATM   60  C   UNK N   1      35.301  11.984  17.397  0.00  0.00     0.012 C 
HETATM   61  C   UNK N   1      34.182  11.839  15.220  0.00  0.00     0.012 C 
ENDBRANCH  58  59
BRANCH  58  62
HETATM   62  C   UNK N   1      36.840  14.231  14.921  0.00  0.00     0.163 C 
HETATM   63  O   UNK N   1      36.470  14.637  13.832  0.00  0.00    -0.648 OA
BRANCH  62  64
HETATM   64  O   UNK N   1      37.639  15.009  15.676  0.00  0.00    -0.775 OA
HETATM   65  H   UNK N   1      37.346  15.811  16.062  0.00  0.00     0.167 HD
ENDBRANCH  62  64
ENDBRANCH  58  62
ENDBRANCH  56  58
ENDBRANCH  49  54
ENDBRANCH  47  49
ENDBRANCH  44  45
ENDBRANCH  42  44
ENDBRANCH  38  40
ENDBRANCH  36  38
ENDBRANCH  28  34
ENDBRANCH  26  28
ENDBRANCH  18  24
ENDBRANCH  16  18
ENDBRANCH  12  14
ENDBRANCH   9  12
ENDBRANCH   1   8
BRANCH   6  66
HETATM   66  C   UNK N   1      27.510  16.850   4.488  0.00  0.00     0.176 C 
BRANCH  66  67
HETATM   67  C   UNK N   1      26.798  18.062   3.850  0.00  0.00     0.035 C 
BRANCH  67  68
HETATM   68  C   UNK N   1      26.496  19.144   4.897  0.00  0.00     0.004 C 
BRANCH  68  69
HETATM   69  C   UNK N   1      27.753  19.781   5.463  0.00  0.00     0.019 C 
BRANCH  69  70
HETATM   70  C   UNK N   1      27.524  20.243   6.891  0.00  0.00     0.111 C 
BRANCH  70  71
HETATM   71  N   UNK N   1      27.693  19.121   7.799  0.00  0.00    -0.430 N 
HETATM   72  H   UNK N   1      28.510  19.057   8.405  0.00  0.00     0.149 HD
HETATM   73  H   UNK N   1      26.983  18.389   7.831  0.00  0.00     0.149 HD
ENDBRANCH  70  71
ENDBRANCH  69  70
ENDBRANCH  68  69
ENDBRANCH  67  68
ENDBRANCH  66  67
BRANCH  66  74
HETATM   74  N   UNK N   1      26.532  15.906   4.930  0.00  0.00    -0.346 N 
HETATM   75  C   UNK N   1      26.195  15.822   6.230  0.00  0.00     0.236 C 
HETATM   76  O   UNK N   1      26.814  16.444   7.087  0.00  0.00    -0.272 OA
HETATM   77  H   UNK N   1      26.098  15.311   4.276  0.00  0.00     0.163 HD
BRANCH  75  78
HETATM   78  C   UNK N   1      24.927  15.172   6.567  0.00  0.00     0.225 C 
BRANCH  78  79
HETATM   79  N   UNK N   1      23.901  16.019   6.027  0.00  0.00    -0.351 N 
HETATM   80  C   UNK N   1      22.571  15.865   6.272  0.00  0.00     0.241 C 
HETATM   81  O   UNK N   1      22.183  15.012   7.056  0.00  0.00    -0.271 OA
HETATM   82  H   UNK N   1      24.177  16.761   5.442  0.00  0.00     0.163 HD
BRANCH  80  83
HETATM   83  C   UNK N   1      21.590  16.831   5.618  0.00  0.00     0.179 C 
HETATM   84  C   UNK N   1      21.994  18.280   5.842  0.00  0.00     0.037 C 
HETATM   85  C   UNK N   1      22.767  18.691   4.588  0.00  0.00     0.022 C 
HETATM   86  C   UNK N   1      22.459  17.649   3.518  0.00  0.00     0.127 C 
HETATM   87  N   UNK N   1      21.705  16.636   4.204  0.00  0.00    -0.337 N 
HETATM   88  C   UNK N   1      21.257  15.490   3.614  0.00  0.00     0.243 C 
HETATM   89  O   UNK N   1      20.526  14.735   4.255  0.00  0.00    -0.271 OA
BRANCH  88  90
HETATM   90  C   UNK N   1      21.727  15.056   2.251  0.00  0.00     0.179 C 
HETATM   91  C   UNK N   1      20.533  14.745   1.369  0.00  0.00     0.037 C 
HETATM   92  C   UNK N   1      20.699  13.299   0.908  0.00  0.00     0.022 C 
HETATM   93  C   UNK N   1      21.868  12.710   1.683  0.00  0.00     0.127 C 
HETATM   94  N   UNK N   1      22.473  13.820   2.352  0.00  0.00    -0.337 N 
HETATM   95  C   UNK N   1      23.655  13.717   3.057  0.00  0.00     0.243 C 
HETATM   96  O   UNK N   1      24.155  14.714   3.551  0.00  0.00    -0.271 OA
BRANCH  95  97
HETATM   97  C   UNK N   1      24.342  12.373   3.246  0.00  0.00     0.179 C 
HETATM   98  C   UNK N   1      25.733  12.434   2.635  0.00  0.00     0.037 C 
HETATM   99  C   UNK N   1      26.676  11.774   3.630  0.00  0.00     0.022 C 
HETATM  100  C   UNK N   1      25.943  11.752   4.954  0.00  0.00     0.127 C 
HETATM  101  N   UNK N   1      24.563  11.981   4.629  0.00  0.00    -0.337 N 
HETATM  102  C   UNK N   1      23.562  11.726   5.534  0.00  0.00     0.243 C 
HETATM  103  O   UNK N   1      22.393  11.898   5.219  0.00  0.00    -0.271 OA
BRANCH 102 104
HETATM  104  C   UNK N   1      23.900  11.190   6.923  0.00  0.00     0.177 C 
BRANCH 104 105
HETATM  105  C   UNK N   1      23.452  12.112   8.064  0.00  0.00     0.045 C 
BRANCH 105 106
HETATM  106  C   UNK N   1      23.865  11.526   9.410  0.00  0.00     0.112 C 
BRANCH 106 107
HETATM  107  C   UNK N   1      24.743  12.460  10.177  0.00  0.00     0.139 C 
HETATM  108  O   UNK N   1      25.124  13.497   9.660  0.00  0.00    -0.650 OA
BRANCH 107 109
HETATM  109  O   UNK N   1      25.091  12.177  11.446  0.00  0.00    -0.776 OA
HETATM  110  H   UNK N   1      25.352  12.825  12.071  0.00  0.00     0.167 HD
ENDBRANCH 107 109
ENDBRANCH 106 107
ENDBRANCH 105 106
ENDBRANCH 104 105
BRANCH 104 111
HETATM  111  N   UNK N   1      23.279   9.888   7.069  0.00  0.00    -0.346 N 
HETATM  112  C   UNK N   1      23.878   8.717   6.743  0.00  0.00     0.235 C 
HETATM  113  O   UNK N   1      25.030   8.696   6.332  0.00  0.00    -0.272 OA
HETATM  114  H   UNK N   1      22.363   9.852   7.426  0.00  0.00     0.163 HD
BRANCH 112 115
HETATM  115  C   UNK N   1      23.090   7.445   6.865  0.00  0.00     0.214 C 
BRANCH 115 116
HETATM  116  N   UNK N   1      22.984   6.757   5.588  0.00  0.00    -0.422 N 
HETATM  117  H   UNK N   1      23.354   5.841   5.336  0.00  0.00     0.150 HD
HETATM  118  H   UNK N   1      22.476   7.252   4.854  0.00  0.00     0.150 HD
ENDBRANCH 115 116
ENDBRANCH 112 115
ENDBRANCH 104 111
ENDBRANCH 102 104
ENDBRANCH  95  97
ENDBRANCH  88  90
ENDBRANCH  80  83
ENDBRANCH  78  79
ENDBRANCH  75  78
ENDBRANCH  66  74
ENDBRANCH   6  66
TORSDOF 45
ENDMDL
MODEL 3
REMARK VINA RESULT:      -7.0      2.830     13.230
REMARK WARNING: 32 MAX_TORS EXCEEDED!!!
REMARK  45 active torsions:
REMARK  status: ('A' for Active; 'I' for Inactive)
REMARK    1  A    between atoms: C_2  and  C_3 
REMARK    2  A    between atoms: C_2  and  N_46 
REMARK       I    between atoms: C_3  and  N_5 
REMARK    3  A    between atoms: C_6  and  N_5 
REMARK    4  A    between atoms: C_6  and  C_7 
REMARK    5  A    between atoms: C_6  and  C_11 
REMARK    6  A    between atoms: C_7  and  C_8 
REMARK    7  A    between atoms: C_8  and  O_10 
REMARK       I    between atoms: C_11  and  N_13 
REMARK    8  A    between atoms: C_14  and  N_13 
REMARK    9  A    between atoms: C_14  and  C_15 
REMARK   10  A    between atoms: C_14  and  C_19 
REMARK   11  A    between atoms: C_15  and  C_16 
REMARK   12  A    between atoms: C_16  and  O_18 
REMARK       I    between atoms: C_19  and  N_21 
REMARK   13  A    between atoms: N_21  and  C_22 
REMARK   14  A    between atoms: C_22  and  C_24 
REMARK       I    between atoms: C_24  and  N_26 
REMARK   15  A    between atoms: N_26  and  C_27 
REMARK   16  A    between atoms: C_27  and  C_28 
REMARK       I    between atoms: C_28  and  N_30 
REMARK   17  A    between atoms: C_31  and  N_30 
REMARK   18  A    between atoms: C_31  and  C_32 
REMARK   19  A    between atoms: C_31  and  C_36 
REMARK   20  A    between atoms: C_32  and  C_33 
REMARK       I    between atoms: C_36  and  N_38 
REMARK   21  A    between atoms: C_39  and  N_38 
REMARK   22  A    between atoms: C_39  and  C_40 
REMARK   23  A    between atoms: C_39  and  C_43 
REMARK   24  A    between atoms: C_43  and  O_45 
REMARK       I    between atoms: N_46  and  C_47 
REMARK   25  A    between atoms: C_49  and  C_47 
REMARK       I    between atoms: N_53  and  C_54 
REMARK   26  A    between atoms: C_54  and  C_56 
REMARK   27  A    between atoms: C_56  and  C_57 
REMARK   28  A    between atoms: C_56  and  N_62 
REMARK   29  A    between atoms: C_57  and  C_58 
REMARK   30  A    between atoms: C_58  and  C_59 
REMARK   31  A    between atoms: C_59  and  C_60 
REMARK   32  A    between atoms: C_60  and  N_61 
REMARK       I    between atoms: N_62  and  C_63 
REMARK   33  A    between atoms: C_63  and  C_65 
REMARK   34  A    between atoms: C_65  and  N_66 
REMARK       I    between atoms: N_66  and  C_67 
REMARK   35  A    between atoms: C_69  and  C_67 
REMARK       I    between atoms: N_73  and  C_74 
REMARK   36  A    between atoms: C_76  and  C_74 
REMARK       I    between atoms: N_80  and  C_81 
REMARK   37  A    between atoms: C_83  and  C_81 
REMARK       I    between atoms: N_87  and  C_88 
REMARK   38  A    between atoms: C_88  and  C_90 
REMARK   39  A    between atoms: C_90  and  C_91 
REMARK   40  A    between atoms: C_90  and  N_96 
REMARK   41  A    between atoms: C_91  and  C_92 
REMARK   42  A    between atoms: C_92  and  C_93 
REMARK   43  A    between atoms: C_93  and  O_95 
REMARK       I    between atoms: N_96  and  C_97 
REMARK   44  A    between atoms: C_97  and  C_99 
REMARK   45  A    between atoms: C_99  and  N_100 
ROOT
HETATM    1  C   UNK N   1      27.842  18.439   4.106  0.00  0.00     0.179 C 
HETATM    2  C   UNK N   1      26.756  19.454   3.823  0.00  0.00     0.037 C 
HETATM    3  C   UNK N   1      26.830  20.446   4.984  0.00  0.00     0.022 C 
HETATM    4  C   UNK N   1      27.489  19.700   6.137  0.00  0.00     0.127 C 
HETATM    5  N   UNK N   1      28.125  18.583   5.513  0.00  0.00    -0.337 N 
HETATM    6  C   UNK N   1      29.000  17.780   6.164  0.00  0.00     0.243 C 
HETATM    7  O   UNK N   1      29.121  17.850   7.384  0.00  0.00    -0.271 OA
ENDROOT
BRANCH   1   8
HETATM    8  C   UNK N   1      27.440  17.028   3.696  0.00  0.00     0.241 C 
HETATM    9  N   UNK N   1      26.417  16.323   4.263  0.00  0.00    -0.346 N 
HETATM   10  H   UNK N   1      26.353  15.378   3.996  0.00  0.00     0.163 HD
HETATM   11  O   UNK N   1      28.138  16.461   2.869  0.00  0.00    -0.271 OA
BRANCH   9  12
HETATM   12  C   UNK N   1      25.416  16.777   5.204  0.00  0.00     0.172 C 
HETATM   13  C   UNK N   1      25.120  15.697   6.231  0.00  0.00     0.042 C 
BRANCH  12  14
HETATM   14  C   UNK N   1      24.159  17.214   4.513  0.00  0.00     0.240 C 
HETATM   15  O   UNK N   1      23.721  18.314   4.774  0.00  0.00    -0.271 OA
HETATM   16  N   UNK N   1      23.437  16.459   3.659  0.00  0.00    -0.346 N 
HETATM   17  H   UNK N   1      22.815  16.984   3.105  0.00  0.00     0.163 HD
BRANCH  16  18
HETATM   18  C   UNK N   1      23.385  15.036   3.389  0.00  0.00     0.186 C 
BRANCH  18  19
HETATM   19  C   UNK N   1      21.902  14.756   3.112  0.00  0.00     0.144 C 
BRANCH  19  20
HETATM   20  C   UNK N   1      21.267  15.727   2.126  0.00  0.00     0.141 C 
HETATM   21  O   UNK N   1      20.685  16.725   2.523  0.00  0.00    -0.650 OA
BRANCH  20  22
HETATM   22  O   UNK N   1      21.276  15.444   0.809  0.00  0.00    -0.776 OA
HETATM   23  H   UNK N   1      21.354  14.650   0.316  0.00  0.00     0.167 HD
ENDBRANCH  20  22
ENDBRANCH  19  20
ENDBRANCH  18  19
BRANCH  18  24
HETATM   24  C   UNK N   1      24.415  14.448   2.406  0.00  0.00     0.241 C 
HETATM   25  O   UNK N   1      25.040  15.204   1.701  0.00  0.00    -0.271 OA
HETATM   26  N   UNK N   1      24.802  13.150   2.372  0.00  0.00    -0.345 N 
HETATM   27  H   UNK N   1      25.408  12.898   1.638  0.00  0.00     0.163 HD
BRANCH  26  28
HETATM   28  C   UNK N   1      24.436  12.099   3.275  0.00  0.00     0.186 C 
BRANCH  28  29
HETATM   29  C   UNK N   1      25.554  11.901   4.292  0.00  0.00     0.144 C 
BRANCH  29  30
HETATM   30  C   UNK N   1      26.841  12.475   3.777  0.00  0.00     0.141 C 
HETATM   31  O   UNK N   1      27.475  11.877   2.923  0.00  0.00    -0.650 OA
BRANCH  30  32
HETATM   32  O   UNK N   1      27.299  13.649   4.251  0.00  0.00    -0.776 OA
HETATM   33  H   UNK N   1      27.582  14.315   3.656  0.00  0.00     0.167 HD
ENDBRANCH  30  32
ENDBRANCH  29  30
ENDBRANCH  28  29
BRANCH  28  34
HETATM   34  C   UNK N   1      24.091  10.829   2.547  0.00  0.00     0.241 C 
HETATM   35  O   UNK N   1      24.947  10.224   1.922  0.00  0.00    -0.271 OA
HETATM   36  N   UNK N   1      22.812  10.374   2.555  0.00  0.00    -0.346 N 
HETATM   37  H   UNK N   1      22.567   9.606   1.989  0.00  0.00     0.163 HD
BRANCH  36  38
HETATM   38  C   UNK N   1      21.798  11.000   3.383  0.00  0.00     0.172 C 
HETATM   39  C   UNK N   1      20.583  11.440   2.590  0.00  0.00     0.042 C 
BRANCH  38  40
HETATM   40  C   UNK N   1      21.443  10.161   4.596  0.00  0.00     0.240 C 
HETATM   41  O   UNK N   1      21.614   8.954   4.533  0.00  0.00    -0.271 OA
HETATM   42  N   UNK N   1      20.872  10.690   5.719  0.00  0.00    -0.351 N 
HETATM   43  H   UNK N   1      20.527  10.068   6.400  0.00  0.00     0.163 HD
BRANCH  42  44
HETATM   44  C   UNK N   1      20.742  12.114   5.969  0.00  0.00     0.225 C 
BRANCH  44  45
HETATM   45  C   UNK N   1      21.813  12.464   6.933  0.00  0.00     0.236 C 
HETATM   46  O   UNK N   1      22.692  11.656   7.184  0.00  0.00    -0.272 OA
HETATM   47  N   UNK N   1      21.577  13.493   7.758  0.00  0.00    -0.346 N 
HETATM   48  H   UNK N   1      21.589  14.410   7.401  0.00  0.00     0.163 HD
BRANCH  47  49
HETATM   49  C   UNK N   1      21.307  13.286   9.159  0.00  0.00     0.177 C 
BRANCH  49  50
HETATM   50  C   UNK N   1      22.575  13.455  10.013  0.00  0.00     0.038 C 
BRANCH  50  51
HETATM   51  C   UNK N   1      23.161  12.160  10.550  0.00  0.00    -0.020 C 
HETATM   52  C   UNK N   1      24.676  12.268  10.573  0.00  0.00     0.009 C 
HETATM   53  C   UNK N   1      22.676  11.958  11.967  0.00  0.00     0.009 C 
ENDBRANCH  50  51
ENDBRANCH  49  50
BRANCH  49  54
HETATM   54  C   UNK N   1      20.306  14.365   9.475  0.00  0.00     0.241 C 
HETATM   55  O   UNK N   1      19.206  14.054   9.911  0.00  0.00    -0.271 OA
HETATM   56  N   UNK N   1      20.528  15.594   8.967  0.00  0.00    -0.345 N 
HETATM   57  H   UNK N   1      21.433  15.972   9.054  0.00  0.00     0.163 HD
BRANCH  56  58
HETATM   58  C   UNK N   1      19.523  16.392   8.304  0.00  0.00     0.185 C 
BRANCH  58  59
HETATM   59  C   UNK N   1      20.031  16.695   6.888  0.00  0.00     0.010 C 
HETATM   60  C   UNK N   1      19.483  15.687   5.899  0.00  0.00     0.012 C 
HETATM   61  C   UNK N   1      21.555  16.618   6.823  0.00  0.00     0.012 C 
ENDBRANCH  58  59
BRANCH  58  62
HETATM   62  C   UNK N   1      19.034  17.595   9.077  0.00  0.00     0.163 C 
HETATM   63  O   UNK N   1      17.924  17.588   9.583  0.00  0.00    -0.648 OA
BRANCH  62  64
HETATM   64  O   UNK N   1      19.773  18.719   9.127  0.00  0.00    -0.775 OA
HETATM   65  H   UNK N   1      19.593  19.417   9.726  0.00  0.00     0.167 HD
ENDBRANCH  62  64
ENDBRANCH  58  62
ENDBRANCH  56  58
ENDBRANCH  49  54
ENDBRANCH  47  49
ENDBRANCH  44  45
ENDBRANCH  42  44
ENDBRANCH  38  40
ENDBRANCH  36  38
ENDBRANCH  28  34
ENDBRANCH  26  28
ENDBRANCH  18  24
ENDBRANCH  16  18
ENDBRANCH  12  14
ENDBRANCH   9  12
ENDBRANCH   1   8
BRANCH   6  66
HETATM   66  C   UNK N   1      29.896  16.896   5.365  0.00  0.00     0.176 C 
BRANCH  66  67
HETATM   67  C   UNK N   1      30.910  17.839   4.682  0.00  0.00     0.035 C 
BRANCH  67  68
HETATM   68  C   UNK N   1      31.563  17.165   3.466  0.00  0.00     0.004 C 
BRANCH  68  69
HETATM   69  C   UNK N   1      33.034  16.857   3.684  0.00  0.00     0.019 C 
BRANCH  69  70
HETATM   70  C   UNK N   1      33.422  15.567   2.985  0.00  0.00     0.111 C 
BRANCH  70  71
HETATM   71  N   UNK N   1      32.225  14.815   2.651  0.00  0.00    -0.430 N 
HETATM   72  H   UNK N   1      32.116  14.386   1.733  0.00  0.00     0.149 HD
HETATM   73  H   UNK N   1      31.485  14.713   3.346  0.00  0.00     0.149 HD
ENDBRANCH  70  71
ENDBRANCH  69  70
ENDBRANCH  68  69
ENDBRANCH  67  68
ENDBRANCH  66  67
BRANCH  66  74
HETATM   74  N   UNK N   1      30.600  15.953   6.178  0.00  0.00    -0.346 N 
HETATM   75  C   UNK N   1      30.724  14.671   5.793  0.00  0.00     0.236 C 
HETATM   76  O   UNK N   1      30.121  14.241   4.816  0.00  0.00    -0.272 OA
HETATM   77  H   UNK N   1      30.999  16.247   7.028  0.00  0.00     0.163 HD
BRANCH  75  78
HETATM   78  C   UNK N   1      31.781  13.870   6.414  0.00  0.00     0.225 C 
BRANCH  78  79
HETATM   79  N   UNK N   1      32.731  14.815   6.930  0.00  0.00    -0.351 N 
HETATM   80  C   UNK N   1      34.058  14.813   6.627  0.00  0.00     0.241 C 
HETATM   81  O   UNK N   1      34.502  14.021   5.807  0.00  0.00    -0.271 OA
HETATM   82  H   UNK N   1      32.402  15.511   7.543  0.00  0.00     0.163 HD
BRANCH  80  83
HETATM   83  C   UNK N   1      34.956  15.868   7.261  0.00  0.00     0.179 C 
HETATM   84  C   UNK N   1      34.312  17.247   7.228  0.00  0.00     0.037 C 
HETATM   85  C   UNK N   1      33.649  17.424   8.595  0.00  0.00     0.022 C 
HETATM   86  C   UNK N   1      34.242  16.362   9.514  0.00  0.00     0.127 C 
HETATM   87  N   UNK N   1      35.049  15.543   8.652  0.00  0.00    -0.337 N 
HETATM   88  C   UNK N   1      35.735  14.442   9.073  0.00  0.00     0.243 C 
HETATM   89  O   UNK N   1      36.486  13.869   8.282  0.00  0.00    -0.271 OA
BRANCH  88  90
HETATM   90  C   UNK N   1      35.510  13.828  10.429  0.00  0.00     0.179 C 
HETATM   91  C   UNK N   1      36.772  13.943  11.262  0.00  0.00     0.037 C 
HETATM   92  C   UNK N   1      37.155  12.522  11.667  0.00  0.00     0.022 C 
HETATM   93  C   UNK N   1      36.245  11.574  10.902  0.00  0.00     0.127 C 
HETATM   94  N   UNK N   1      35.253  12.410  10.297  0.00  0.00    -0.337 N 
HETATM   95  C   UNK N   1      34.159  11.909   9.624  0.00  0.00     0.243 C 
HETATM   96  O   UNK N   1      33.315  12.672   9.186  0.00  0.00    -0.271 OA
BRANCH  95  97
HETATM   97  C   UNK N   1      33.993  10.414   9.398  0.00  0.00     0.179 C 
HETATM   98  C   UNK N   1      33.009   9.862  10.417  0.00  0.00     0.037 C 
HETATM   99  C   UNK N   1      32.076   8.927   9.662  0.00  0.00     0.022 C 
HETATM  100  C   UNK N   1      32.220   9.281   8.197  0.00  0.00     0.127 C 
HETATM  101  N   UNK N   1      33.435  10.040   8.108  0.00  0.00    -0.337 N 
HETATM  102  C   UNK N   1      34.048  10.271   6.901  0.00  0.00     0.243 C 
HETATM  103  O   UNK N   1      35.100  10.892   6.856  0.00  0.00    -0.271 OA
BRANCH 102 104
HETATM  104  C   UNK N   1      33.440   9.720   5.613  0.00  0.00     0.177 C 
BRANCH 104 105
HETATM  105  C   UNK N   1      32.808  10.796   4.721  0.00  0.00     0.045 C 
BRANCH 105 106
HETATM  106  C   UNK N   1      31.300  10.591   4.634  0.00  0.00     0.112 C 
BRANCH 106 107
HETATM  107  C   UNK N   1      30.770  10.930   3.279  0.00  0.00     0.139 C 
HETATM  108  O   UNK N   1      30.548  10.040   2.474  0.00  0.00    -0.650 OA
BRANCH 107 109
HETATM  109  O   UNK N   1      30.508  12.209   2.952  0.00  0.00    -0.776 OA
HETATM  110  H   UNK N   1      29.744  12.480   2.482  0.00  0.00     0.167 HD
ENDBRANCH 107 109
ENDBRANCH 106 107
ENDBRANCH 105 106
ENDBRANCH 104 105
BRANCH 104 111
HETATM  111  N   UNK N   1      34.483   9.025   4.883  0.00  0.00    -0.346 N 
HETATM  112  C   UNK N   1      34.313   7.834   4.260  0.00  0.00     0.235 C 
HETATM  113  O   UNK N   1      33.221   7.283   4.249  0.00  0.00    -0.272 OA
HETATM  114  H   UNK N   1      35.372   9.445   4.837  0.00  0.00     0.163 HD
BRANCH 112 115
HETATM  115  C   UNK N   1      35.500   7.183   3.611  0.00  0.00     0.214 C 
BRANCH 115 116
HETATM  116  N   UNK N   1      36.748   7.785   4.052  0.00  0.00    -0.422 N 
HETATM  117  H   UNK N   1      36.883   8.687   4.510  0.00  0.00     0.150 HD
HETATM  118  H   UNK N   1      37.593   7.238   3.884  0.00  0.00     0.150 HD
ENDBRANCH 115 116
ENDBRANCH 112 115
ENDBRANCH 104 111
ENDBRANCH 102 104
ENDBRANCH  95  97
ENDBRANCH  88  90
ENDBRANCH  80  83
ENDBRANCH  78  79
ENDBRANCH  75  78
ENDBRANCH  66  74
ENDBRANCH   6  66
TORSDOF 45
ENDMDL
MODEL 4
REMARK VINA RESULT:      -7.0      2.428      4.935
REMARK WARNING: 32 MAX_TORS EXCEEDED!!!
REMARK  45 active torsions:
REMARK  status: ('A' for Active; 'I' for Inactive)
REMARK    1  A    between atoms: C_2  and  C_3 
REMARK    2  A    between atoms: C_2  and  N_46 
REMARK       I    between atoms: C_3  and  N_5 
REMARK    3  A    between atoms: C_6  and  N_5 
REMARK    4  A    between atoms: C_6  and  C_7 
REMARK    5  A    between atoms: C_6  and  C_11 
REMARK    6  A    between atoms: C_7  and  C_8 
REMARK    7  A    between atoms: C_8  and  O_10 
REMARK       I    between atoms: C_11  and  N_13 
REMARK    8  A    between atoms: C_14  and  N_13 
REMARK    9  A    between atoms: C_14  and  C_15 
REMARK   10  A    between atoms: C_14  and  C_19 
REMARK   11  A    between atoms: C_15  and  C_16 
REMARK   12  A    between atoms: C_16  and  O_18 
REMARK       I    between atoms: C_19  and  N_21 
REMARK   13  A    between atoms: N_21  and  C_22 
REMARK   14  A    between atoms: C_22  and  C_24 
REMARK       I    between atoms: C_24  and  N_26 
REMARK   15  A    between atoms: N_26  and  C_27 
REMARK   16  A    between atoms: C_27  and  C_28 
REMARK       I    between atoms: C_28  and  N_30 
REMARK   17  A    between atoms: C_31  and  N_30 
REMARK   18  A    between atoms: C_31  and  C_32 
REMARK   19  A    between atoms: C_31  and  C_36 
REMARK   20  A    between atoms: C_32  and  C_33 
REMARK       I    between atoms: C_36  and  N_38 
REMARK   21  A    between atoms: C_39  and  N_38 
REMARK   22  A    between atoms: C_39  and  C_40 
REMARK   23  A    between atoms: C_39  and  C_43 
REMARK   24  A    between atoms: C_43  and  O_45 
REMARK       I    between atoms: N_46  and  C_47 
REMARK   25  A    between atoms: C_49  and  C_47 
REMARK       I    between atoms: N_53  and  C_54 
REMARK   26  A    between atoms: C_54  and  C_56 
REMARK   27  A    between atoms: C_56  and  C_57 
REMARK   28  A    between atoms: C_56  and  N_62 
REMARK   29  A    between atoms: C_57  and  C_58 
REMARK   30  A    between atoms: C_58  and  C_59 
REMARK   31  A    between atoms: C_59  and  C_60 
REMARK   32  A    between atoms: C_60  and  N_61 
REMARK       I    between atoms: N_62  and  C_63 
REMARK   33  A    between atoms: C_63  and  C_65 
REMARK   34  A    between atoms: C_65  and  N_66 
REMARK       I    between atoms: N_66  and  C_67 
REMARK   35  A    between atoms: C_69  and  C_67 
REMARK       I    between atoms: N_73  and  C_74 
REMARK   36  A    between atoms: C_76  and  C_74 
REMARK       I    between atoms: N_80  and  C_81 
REMARK   37  A    between atoms: C_83  and  C_81 
REMARK       I    between atoms: N_87  and  C_88 
REMARK   38  A    between atoms: C_88  and  C_90 
REMARK   39  A    between atoms: C_90  and  C_91 
REMARK   40  A    between atoms: C_90  and  N_96 
REMARK   41  A    between atoms: C_91  and  C_92 
REMARK   42  A    between atoms: C_92  and  C_93 
REMARK   43  A    between atoms: C_93  and  O_95 
REMARK       I    between atoms: N_96  and  C_97 
REMARK   44  A    between atoms: C_97  and  C_99 
REMARK   45  A    between atoms: C_99  and  N_100 
ROOT
HETATM    1  C   UNK N   1      30.941  16.945   5.064  0.00  0.00     0.179 C 
HETATM    2  C   UNK N   1      32.413  16.925   4.718  0.00  0.00     0.037 C 
HETATM    3  C   UNK N   1      32.464  17.040   3.195  0.00  0.00     0.022 C 
HETATM    4  C   UNK N   1      31.116  16.542   2.688  0.00  0.00     0.127 C 
HETATM    5  N   UNK N   1      30.268  16.599   3.837  0.00  0.00    -0.337 N 
HETATM    6  C   UNK N   1      28.925  16.437   3.765  0.00  0.00     0.243 C 
HETATM    7  O   UNK N   1      28.402  16.019   2.735  0.00  0.00    -0.271 OA
ENDROOT
BRANCH   1   8
HETATM    8  C   UNK N   1      30.606  16.030   6.235  0.00  0.00     0.241 C 
HETATM    9  N   UNK N   1      30.716  14.669   6.204  0.00  0.00    -0.346 N 
HETATM   10  H   UNK N   1      30.341  14.195   6.981  0.00  0.00     0.163 HD
HETATM   11  O   UNK N   1      30.122  16.544   7.231  0.00  0.00    -0.271 OA
BRANCH   9  12
HETATM   12  C   UNK N   1      31.309  13.830   5.185  0.00  0.00     0.172 C 
HETATM   13  C   UNK N   1      30.232  13.102   4.399  0.00  0.00     0.042 C 
BRANCH  12  14
HETATM   14  C   UNK N   1      32.293  12.859   5.766  0.00  0.00     0.240 C 
HETATM   15  O   UNK N   1      32.127  11.680   5.540  0.00  0.00    -0.271 OA
HETATM   16  N   UNK N   1      33.325  13.184   6.571  0.00  0.00    -0.346 N 
HETATM   17  H   UNK N   1      34.009  12.478   6.633  0.00  0.00     0.163 HD
BRANCH  16  18
HETATM   18  C   UNK N   1      33.637  14.356   7.365  0.00  0.00     0.186 C 
BRANCH  18  19
HETATM   19  C   UNK N   1      33.130  14.008   8.771  0.00  0.00     0.144 C 
BRANCH  19  20
HETATM   20  C   UNK N   1      32.912  15.222   9.664  0.00  0.00     0.141 C 
HETATM   21  O   UNK N   1      32.635  16.309   9.180  0.00  0.00    -0.650 OA
BRANCH  20  22
HETATM   22  O   UNK N   1      33.103  15.116  10.993  0.00  0.00    -0.776 OA
HETATM   23  H   UNK N   1      32.836  14.492  11.640  0.00  0.00     0.167 HD
ENDBRANCH  20  22
ENDBRANCH  19  20
ENDBRANCH  18  19
BRANCH  18  24
HETATM   24  C   UNK N   1      35.051  14.955   7.248  0.00  0.00     0.241 C 
HETATM   25  O   UNK N   1      35.163  16.133   7.008  0.00  0.00    -0.271 OA
HETATM   26  N   UNK N   1      36.199  14.302   7.552  0.00  0.00    -0.345 N 
HETATM   27  H   UNK N   1      37.035  14.781   7.353  0.00  0.00     0.163 HD
BRANCH  26  28
HETATM   28  C   UNK N   1      36.342  12.997   8.128  0.00  0.00     0.186 C 
BRANCH  28  29
HETATM   29  C   UNK N   1      36.425  13.127   9.644  0.00  0.00     0.144 C 
BRANCH  29  30
HETATM   30  C   UNK N   1      36.932  14.485  10.030  0.00  0.00     0.141 C 
HETATM   31  O   UNK N   1      36.172  15.299  10.529  0.00  0.00    -0.650 OA
BRANCH  30  32
HETATM   32  O   UNK N   1      38.223  14.811   9.829  0.00  0.00    -0.776 OA
HETATM   33  H   UNK N   1      38.686  14.458   9.095  0.00  0.00     0.167 HD
ENDBRANCH  30  32
ENDBRANCH  29  30
ENDBRANCH  28  29
BRANCH  28  34
HETATM   34  C   UNK N   1      37.515  12.255   7.550  0.00  0.00     0.241 C 
HETATM   35  O   UNK N   1      38.580  12.225   8.145  0.00  0.00    -0.271 OA
HETATM   36  N   UNK N   1      37.398  11.646   6.342  0.00  0.00    -0.346 N 
HETATM   37  H   UNK N   1      38.196  11.256   5.917  0.00  0.00     0.163 HD
BRANCH  36  38
HETATM   38  C   UNK N   1      36.117  11.560   5.666  0.00  0.00     0.172 C 
HETATM   39  C   UNK N   1      36.036  12.457   4.447  0.00  0.00     0.042 C 
BRANCH  38  40
HETATM   40  C   UNK N   1      35.712  10.127   5.376  0.00  0.00     0.240 C 
HETATM   41  O   UNK N   1      36.082   9.623   4.329  0.00  0.00    -0.271 OA
HETATM   42  N   UNK N   1      34.888   9.411   6.199  0.00  0.00    -0.351 N 
HETATM   43  H   UNK N   1      34.543   8.549   5.871  0.00  0.00     0.163 HD
BRANCH  42  44
HETATM   44  C   UNK N   1      34.491   9.845   7.526  0.00  0.00     0.225 C 
BRANCH  44  45
HETATM   45  C   UNK N   1      34.638   8.661   8.408  0.00  0.00     0.236 C 
HETATM   46  O   UNK N   1      34.123   7.601   8.094  0.00  0.00    -0.272 OA
HETATM   47  N   UNK N   1      35.010   8.889   9.675  0.00  0.00    -0.346 N 
HETATM   48  H   UNK N   1      35.938   9.156   9.865  0.00  0.00     0.163 HD
BRANCH  47  49
HETATM   49  C   UNK N   1      34.079   8.752  10.767  0.00  0.00     0.177 C 
BRANCH  49  50
HETATM   50  C   UNK N   1      34.545   7.694  11.782  0.00  0.00     0.038 C 
BRANCH  50  51
HETATM   51  C   UNK N   1      34.596   6.273  11.246  0.00  0.00    -0.020 C 
HETATM   52  C   UNK N   1      35.287   5.380  12.261  0.00  0.00     0.009 C 
HETATM   53  C   UNK N   1      33.182   5.775  11.055  0.00  0.00     0.009 C 
ENDBRANCH  50  51
ENDBRANCH  49  50
BRANCH  49  54
HETATM   54  C   UNK N   1      34.082  10.123  11.390  0.00  0.00     0.241 C 
HETATM   55  O   UNK N   1      34.060  11.110  10.667  0.00  0.00    -0.271 OA
HETATM   56  N   UNK N   1      34.435  10.221  12.687  0.00  0.00    -0.345 N 
HETATM   57  H   UNK N   1      34.031   9.589  13.324  0.00  0.00     0.163 HD
BRANCH  56  58
HETATM   58  C   UNK N   1      35.369  11.195  13.202  0.00  0.00     0.185 C 
BRANCH  58  59
HETATM   59  C   UNK N   1      36.146  10.531  14.348  0.00  0.00     0.010 C 
HETATM   60  C   UNK N   1      37.418   9.894  13.831  0.00  0.00     0.012 C 
HETATM   61  C   UNK N   1      35.317   9.430  15.007  0.00  0.00     0.012 C 
ENDBRANCH  58  59
BRANCH  58  62
HETATM   62  C   UNK N   1      34.784  12.549  13.528  0.00  0.00     0.163 C 
HETATM   63  O   UNK N   1      34.439  12.810  14.669  0.00  0.00    -0.648 OA
BRANCH  62  64
HETATM   64  O   UNK N   1      34.542  13.440  12.547  0.00  0.00    -0.775 OA
HETATM   65  H   UNK N   1      34.974  13.407  11.716  0.00  0.00     0.167 HD
ENDBRANCH  62  64
ENDBRANCH  58  62
ENDBRANCH  56  58
ENDBRANCH  49  54
ENDBRANCH  47  49
ENDBRANCH  44  45
ENDBRANCH  42  44
ENDBRANCH  38  40
ENDBRANCH  36  38
ENDBRANCH  28  34
ENDBRANCH  26  28
ENDBRANCH  18  24
ENDBRANCH  16  18
ENDBRANCH  12  14
ENDBRANCH   9  12
ENDBRANCH   1   8
BRANCH   6  66
HETATM   66  C   UNK N   1      28.085  16.884   4.912  0.00  0.00     0.176 C 
BRANCH  66  67
HETATM   67  C   UNK N   1      27.364  18.160   4.427  0.00  0.00     0.035 C 
BRANCH  67  68
HETATM   68  C   UNK N   1      28.142  19.423   4.827  0.00  0.00     0.004 C 
BRANCH  68  69
HETATM   69  C   UNK N   1      27.233  20.598   5.142  0.00  0.00     0.019 C 
BRANCH  69  70
HETATM   70  C   UNK N   1      27.307  20.956   6.616  0.00  0.00     0.111 C 
BRANCH  70  71
HETATM   71  N   UNK N   1      27.192  19.749   7.416  0.00  0.00    -0.430 N 
HETATM   72  H   UNK N   1      26.374  19.146   7.338  0.00  0.00     0.149 HD
HETATM   73  H   UNK N   1      27.940  19.501   8.063  0.00  0.00     0.149 HD
ENDBRANCH  70  71
ENDBRANCH  69  70
ENDBRANCH  68  69
ENDBRANCH  67  68
ENDBRANCH  66  67
BRANCH  66  74
HETATM   74  N   UNK N   1      27.111  15.907   5.290  0.00  0.00    -0.346 N 
HETATM   75  C   UNK N   1      26.606  15.887   6.535  0.00  0.00     0.236 C 
HETATM   76  O   UNK N   1      27.064  16.603   7.418  0.00  0.00    -0.272 OA
HETATM   77  H   UNK N   1      26.807  15.243   4.630  0.00  0.00     0.163 HD
BRANCH  75  78
HETATM   78  C   UNK N   1      25.344  15.175   6.749  0.00  0.00     0.225 C 
BRANCH  78  79
HETATM   79  N   UNK N   1      24.331  15.987   6.133  0.00  0.00    -0.351 N 
HETATM   80  C   UNK N   1      22.994  15.777   6.264  0.00  0.00     0.241 C 
HETATM   81  O   UNK N   1      22.577  14.898   7.006  0.00  0.00    -0.271 OA
HETATM   82  H   UNK N   1      24.624  16.747   5.580  0.00  0.00     0.163 HD
BRANCH  80  83
HETATM   83  C   UNK N   1      22.031  16.710   5.540  0.00  0.00     0.179 C 
HETATM   84  C   UNK N   1      22.381  18.172   5.776  0.00  0.00     0.037 C 
HETATM   85  C   UNK N   1      23.222  18.595   4.572  0.00  0.00     0.022 C 
HETATM   86  C   UNK N   1      23.012  17.537   3.494  0.00  0.00     0.127 C 
HETATM   87  N   UNK N   1      22.243  16.508   4.138  0.00  0.00    -0.337 N 
HETATM   88  C   UNK N   1      21.865  15.346   3.531  0.00  0.00     0.243 C 
HETATM   89  O   UNK N   1      21.115  14.576   4.130  0.00  0.00    -0.271 OA
BRANCH  88  90
HETATM   90  C   UNK N   1      22.434  14.915   2.205  0.00  0.00     0.179 C 
HETATM   91  C   UNK N   1      21.313  14.708   1.206  0.00  0.00     0.037 C 
HETATM   92  C   UNK N   1      21.427  13.267   0.717  0.00  0.00     0.022 C 
HETATM   93  C   UNK N   1      22.475  12.580   1.579  0.00  0.00     0.127 C 
HETATM   94  N   UNK N   1      23.085  13.630   2.337  0.00  0.00    -0.337 N 
HETATM   95  C   UNK N   1      24.184  13.429   3.146  0.00  0.00     0.243 C 
HETATM   96  O   UNK N   1      24.698  14.376   3.717  0.00  0.00    -0.271 OA
BRANCH  95  97
HETATM   97  C   UNK N   1      24.760  12.036   3.356  0.00  0.00     0.179 C 
HETATM   98  C   UNK N   1      26.205  12.017   2.882  0.00  0.00     0.037 C 
HETATM   99  C   UNK N   1      27.002  11.270   3.940  0.00  0.00     0.022 C 
HETATM  100  C   UNK N   1      26.146  11.265   5.188  0.00  0.00     0.127 C 
HETATM  101  N   UNK N   1      24.822  11.595   4.741  0.00  0.00    -0.337 N 
HETATM  102  C   UNK N   1      23.724  11.387   5.539  0.00  0.00     0.243 C 
HETATM  103  O   UNK N   1      22.604  11.645   5.122  0.00  0.00    -0.271 OA
BRANCH 102 104
HETATM  104  C   UNK N   1      23.891  10.794   6.937  0.00  0.00     0.177 C 
BRANCH 104 105
HETATM  105  C   UNK N   1      23.348  11.693   8.055  0.00  0.00     0.045 C 
BRANCH 105 106
HETATM  106  C   UNK N   1      24.499  12.301   8.850  0.00  0.00     0.112 C 
BRANCH 106 107
HETATM  107  C   UNK N   1      24.294  12.159  10.322  0.00  0.00     0.139 C 
HETATM  108  O   UNK N   1      23.272  11.644  10.746  0.00  0.00    -0.650 OA
BRANCH 107 109
HETATM  109  O   UNK N   1      25.243  12.569  11.184  0.00  0.00    -0.776 OA
HETATM  110  H   UNK N   1      26.155  12.609  10.972  0.00  0.00     0.167 HD
ENDBRANCH 107 109
ENDBRANCH 106 107
ENDBRANCH 105 106
ENDBRANCH 104 105
BRANCH 104 111
HETATM  111  N   UNK N   1      23.219   9.509   6.966  0.00  0.00    -0.346 N 
HETATM  112  C   UNK N   1      23.826   8.325   6.711  0.00  0.00     0.235 C 
HETATM  113  O   UNK N   1      25.024   8.275   6.471  0.00  0.00    -0.272 OA
HETATM  114  H   UNK N   1      22.259   9.496   7.186  0.00  0.00     0.163 HD
BRANCH 112 115
HETATM  115  C   UNK N   1      22.993   7.077   6.693  0.00  0.00     0.214 C 
BRANCH 115 116
HETATM  116  N   UNK N   1      21.712   7.298   6.041  0.00  0.00    -0.422 N 
HETATM  117  H   UNK N   1      21.302   6.775   5.267  0.00  0.00     0.150 HD
HETATM  118  H   UNK N   1      21.153   8.071   6.404  0.00  0.00     0.150 HD
ENDBRANCH 115 116
ENDBRANCH 112 115
ENDBRANCH 104 111
ENDBRANCH 102 104
ENDBRANCH  95  97
ENDBRANCH  88  90
ENDBRANCH  80  83
ENDBRANCH  78  79
ENDBRANCH  75  78
ENDBRANCH  66  74
ENDBRANCH   6  66
TORSDOF 45
ENDMDL
MODEL 5
REMARK VINA RESULT:      -7.0      2.410      5.140
REMARK WARNING: 32 MAX_TORS EXCEEDED!!!
REMARK  45 active torsions:
REMARK  status: ('A' for Active; 'I' for Inactive)
REMARK    1  A    between atoms: C_2  and  C_3 
REMARK    2  A    between atoms: C_2  and  N_46 
REMARK       I    between atoms: C_3  and  N_5 
REMARK    3  A    between atoms: C_6  and  N_5 
REMARK    4  A    between atoms: C_6  and  C_7 
REMARK    5  A    between atoms: C_6  and  C_11 
REMARK    6  A    between atoms: C_7  and  C_8 
REMARK    7  A    between atoms: C_8  and  O_10 
REMARK       I    between atoms: C_11  and  N_13 
REMARK    8  A    between atoms: C_14  and  N_13 
REMARK    9  A    between atoms: C_14  and  C_15 
REMARK   10  A    between atoms: C_14  and  C_19 
REMARK   11  A    between atoms: C_15  and  C_16 
REMARK   12  A    between atoms: C_16  and  O_18 
REMARK       I    between atoms: C_19  and  N_21 
REMARK   13  A    between atoms: N_21  and  C_22 
REMARK   14  A    between atoms: C_22  and  C_24 
REMARK       I    between atoms: C_24  and  N_26 
REMARK   15  A    between atoms: N_26  and  C_27 
REMARK   16  A    between atoms: C_27  and  C_28 
REMARK       I    between atoms: C_28  and  N_30 
REMARK   17  A    between atoms: C_31  and  N_30 
REMARK   18  A    between atoms: C_31  and  C_32 
REMARK   19  A    between atoms: C_31  and  C_36 
REMARK   20  A    between atoms: C_32  and  C_33 
REMARK       I    between atoms: C_36  and  N_38 
REMARK   21  A    between atoms: C_39  and  N_38 
REMARK   22  A    between atoms: C_39  and  C_40 
REMARK   23  A    between atoms: C_39  and  C_43 
REMARK   24  A    between atoms: C_43  and  O_45 
REMARK       I    between atoms: N_46  and  C_47 
REMARK   25  A    between atoms: C_49  and  C_47 
REMARK       I    between atoms: N_53  and  C_54 
REMARK   26  A    between atoms: C_54  and  C_56 
REMARK   27  A    between atoms: C_56  and  C_57 
REMARK   28  A    between atoms: C_56  and  N_62 
REMARK   29  A    between atoms: C_57  and  C_58 
REMARK   30  A    between atoms: C_58  and  C_59 
REMARK   31  A    between atoms: C_59  and  C_60 
REMARK   32  A    between atoms: C_60  and  N_61 
REMARK       I    between atoms: N_62  and  C_63 
REMARK   33  A    between atoms: C_63  and  C_65 
REMARK   34  A    between atoms: C_65  and  N_66 
REMARK       I    between atoms: N_66  and  C_67 
REMARK   35  A    between atoms: C_69  and  C_67 
REMARK       I    between atoms: N_73  and  C_74 
REMARK   36  A    between atoms: C_76  and  C_74 
REMARK       I    between atoms: N_80  and  C_81 
REMARK   37  A    between atoms: C_83  and  C_81 
REMARK       I    between atoms: N_87  and  C_88 
REMARK   38  A    between atoms: C_88  and  C_90 
REMARK   39  A    between atoms: C_90  and  C_91 
REMARK   40  A    between atoms: C_90  and  N_96 
REMARK   41  A    between atoms: C_91  and  C_92 
REMARK   42  A    between atoms: C_92  and  C_93 
REMARK   43  A    between atoms: C_93  and  O_95 
REMARK       I    between atoms: N_96  and  C_97 
REMARK   44  A    between atoms: C_97  and  C_99 
REMARK   45  A    between atoms: C_99  and  N_100 
ROOT
HETATM    1  C   UNK N   1      30.616  17.127   4.701  0.00  0.00     0.179 C 
HETATM    2  C   UNK N   1      32.046  17.249   4.223  0.00  0.00     0.037 C 
HETATM    3  C   UNK N   1      31.961  17.182   2.698  0.00  0.00     0.022 C 
HETATM    4  C   UNK N   1      30.657  16.461   2.379  0.00  0.00     0.127 C 
HETATM    5  N   UNK N   1      29.902  16.551   3.588  0.00  0.00    -0.337 N 
HETATM    6  C   UNK N   1      28.592  16.215   3.661  0.00  0.00     0.243 C 
HETATM    7  O   UNK N   1      28.051  15.613   2.737  0.00  0.00    -0.271 OA
ENDROOT
BRANCH   1   8
HETATM    8  C   UNK N   1      30.501  16.327   5.992  0.00  0.00     0.241 C 
HETATM    9  N   UNK N   1      30.868  15.018   6.122  0.00  0.00    -0.346 N 
HETATM   10  H   UNK N   1      30.616  14.589   6.972  0.00  0.00     0.163 HD
HETATM   11  O   UNK N   1      29.960  16.869   6.944  0.00  0.00    -0.271 OA
BRANCH   9  12
HETATM   12  C   UNK N   1      31.577  14.177   5.182  0.00  0.00     0.172 C 
HETATM   13  C   UNK N   1      30.599  13.397   4.321  0.00  0.00     0.042 C 
BRANCH  12  14
HETATM   14  C   UNK N   1      32.534  13.253   5.873  0.00  0.00     0.240 C 
HETATM   15  O   UNK N   1      32.071  12.360   6.550  0.00  0.00    -0.271 OA
HETATM   16  N   UNK N   1      33.878  13.364   5.851  0.00  0.00    -0.346 N 
HETATM   17  H   UNK N   1      34.342  12.539   6.121  0.00  0.00     0.163 HD
BRANCH  16  18
HETATM   18  C   UNK N   1      34.781  14.446   5.512  0.00  0.00     0.186 C 
BRANCH  18  19
HETATM   19  C   UNK N   1      34.416  14.807   4.067  0.00  0.00     0.144 C 
BRANCH  19  20
HETATM   20  C   UNK N   1      34.876  13.779   3.041  0.00  0.00     0.141 C 
HETATM   21  O   UNK N   1      34.693  13.966   1.848  0.00  0.00    -0.650 OA
BRANCH  20  22
HETATM   22  O   UNK N   1      35.416  12.617   3.456  0.00  0.00    -0.776 OA
HETATM   23  H   UNK N   1      36.115  12.399   4.041  0.00  0.00     0.167 HD
ENDBRANCH  20  22
ENDBRANCH  19  20
ENDBRANCH  18  19
BRANCH  18  24
HETATM   24  C   UNK N   1      34.932  15.604   6.517  0.00  0.00     0.241 C 
HETATM   25  O   UNK N   1      34.552  16.704   6.195  0.00  0.00    -0.271 OA
HETATM   26  N   UNK N   1      35.316  15.465   7.809  0.00  0.00    -0.345 N 
HETATM   27  H   UNK N   1      35.447  16.300   8.314  0.00  0.00     0.163 HD
BRANCH  26  28
HETATM   28  C   UNK N   1      35.553  14.250   8.531  0.00  0.00     0.186 C 
BRANCH  28  29
HETATM   29  C   UNK N   1      34.282  13.851   9.271  0.00  0.00     0.144 C 
BRANCH  29  30
HETATM   30  C   UNK N   1      33.426  15.055   9.532  0.00  0.00     0.141 C 
HETATM   31  O   UNK N   1      32.385  15.208   8.913  0.00  0.00    -0.650 OA
BRANCH  30  32
HETATM   32  O   UNK N   1      33.799  15.970  10.447  0.00  0.00    -0.776 OA
HETATM   33  H   UNK N   1      34.531  15.801  11.006  0.00  0.00     0.167 HD
ENDBRANCH  30  32
ENDBRANCH  29  30
ENDBRANCH  28  29
BRANCH  28  34
HETATM   34  C   UNK N   1      36.739  14.365   9.447  0.00  0.00     0.241 C 
HETATM   35  O   UNK N   1      36.698  15.099  10.421  0.00  0.00    -0.271 OA
HETATM   36  N   UNK N   1      37.876  13.674   9.169  0.00  0.00    -0.346 N 
HETATM   37  H   UNK N   1      38.684  13.836   9.708  0.00  0.00     0.163 HD
BRANCH  36  38
HETATM   38  C   UNK N   1      37.918  12.703   8.092  0.00  0.00     0.172 C 
HETATM   39  C   UNK N   1      38.609  13.234   6.852  0.00  0.00     0.042 C 
BRANCH  38  40
HETATM   40  C   UNK N   1      38.461  11.360   8.546  0.00  0.00     0.240 C 
HETATM   41  O   UNK N   1      39.661  11.258   8.735  0.00  0.00    -0.271 OA
HETATM   42  N   UNK N   1      37.674  10.251   8.672  0.00  0.00    -0.351 N 
HETATM   43  H   UNK N   1      38.117   9.383   8.817  0.00  0.00     0.163 HD
BRANCH  42  44
HETATM   44  C   UNK N   1      36.224  10.272   8.605  0.00  0.00     0.225 C 
BRANCH  44  45
HETATM   45  C   UNK N   1      35.755   9.135   9.434  0.00  0.00     0.236 C 
HETATM   46  O   UNK N   1      34.594   8.768   9.362  0.00  0.00    -0.272 OA
HETATM   47  N   UNK N   1      36.514   8.795  10.486  0.00  0.00    -0.346 N 
HETATM   48  H   UNK N   1      37.373   8.340  10.333  0.00  0.00     0.163 HD
BRANCH  47  49
HETATM   49  C   UNK N   1      36.098   9.080  11.835  0.00  0.00     0.177 C 
BRANCH  49  50
HETATM   50  C   UNK N   1      36.849   8.210  12.858  0.00  0.00     0.038 C 
BRANCH  50  51
HETATM   51  C   UNK N   1      36.389   8.374  14.296  0.00  0.00    -0.020 C 
HETATM   52  C   UNK N   1      35.921   7.031  14.828  0.00  0.00     0.009 C 
HETATM   53  C   UNK N   1      37.561   8.835  15.132  0.00  0.00     0.009 C 
ENDBRANCH  50  51
ENDBRANCH  49  50
BRANCH  49  54
HETATM   54  C   UNK N   1      36.462  10.531  12.003  0.00  0.00     0.241 C 
HETATM   55  O   UNK N   1      37.627  10.877  11.863  0.00  0.00    -0.271 OA
HETATM   56  N   UNK N   1      35.569  11.335  12.614  0.00  0.00    -0.345 N 
HETATM   57  H   UNK N   1      34.628  11.280  12.328  0.00  0.00     0.163 HD
BRANCH  56  58
HETATM   58  C   UNK N   1      35.903  12.273  13.660  0.00  0.00     0.185 C 
BRANCH  58  59
HETATM   59  C   UNK N   1      35.207  11.802  14.944  0.00  0.00     0.010 C 
HETATM   60  C   UNK N   1      33.860  11.188  14.627  0.00  0.00     0.012 C 
HETATM   61  C   UNK N   1      34.964  12.972  15.896  0.00  0.00     0.012 C 
ENDBRANCH  58  59
BRANCH  58  62
HETATM   62  C   UNK N   1      35.695  13.730  13.318  0.00  0.00     0.163 C 
HETATM   63  O   UNK N   1      34.682  14.085  12.739  0.00  0.00    -0.648 OA
BRANCH  62  64
HETATM   64  O   UNK N   1      36.668  14.631  13.556  0.00  0.00    -0.775 OA
HETATM   65  H   UNK N   1      37.324  14.505  14.213  0.00  0.00     0.167 HD
ENDBRANCH  62  64
ENDBRANCH  58  62
ENDBRANCH  56  58
ENDBRANCH  49  54
ENDBRANCH  47  49
ENDBRANCH  44  45
ENDBRANCH  42  44
ENDBRANCH  38  40
ENDBRANCH  36  38
ENDBRANCH  28  34
ENDBRANCH  26  28
ENDBRANCH  18  24
ENDBRANCH  16  18
ENDBRANCH  12  14
ENDBRANCH   9  12
ENDBRANCH   1   8
BRANCH   6  66
HETATM   66  C   UNK N   1      27.791  16.691   4.825  0.00  0.00     0.176 C 
BRANCH  66  67
HETATM   67  C   UNK N   1      27.110  17.995   4.357  0.00  0.00     0.035 C 
BRANCH  67  68
HETATM   68  C   UNK N   1      27.817  19.230   4.935  0.00  0.00     0.004 C 
BRANCH  68  69
HETATM   69  C   UNK N   1      26.882  20.124   5.730  0.00  0.00     0.019 C 
BRANCH  69  70
HETATM   70  C   UNK N   1      27.394  20.313   7.146  0.00  0.00     0.111 C 
BRANCH  70  71
HETATM   71  N   UNK N   1      27.781  19.026   7.699  0.00  0.00    -0.430 N 
HETATM   72  H   UNK N   1      28.604  18.939   8.296  0.00  0.00     0.149 HD
HETATM   73  H   UNK N   1      27.222  18.199   7.490  0.00  0.00     0.149 HD
ENDBRANCH  70  71
ENDBRANCH  69  70
ENDBRANCH  68  69
ENDBRANCH  67  68
ENDBRANCH  66  67
BRANCH  66  74
HETATM   74  N   UNK N   1      26.790  15.750   5.220  0.00  0.00    -0.346 N 
HETATM   75  C   UNK N   1      26.359  15.699   6.493  0.00  0.00     0.236 C 
HETATM   76  O   UNK N   1      26.909  16.348   7.376  0.00  0.00    -0.272 OA
HETATM   77  H   UNK N   1      26.410  15.134   4.553  0.00  0.00     0.163 HD
BRANCH  75  78
HETATM   78  C   UNK N   1      25.075  15.045   6.755  0.00  0.00     0.225 C 
BRANCH  78  79
HETATM   79  N   UNK N   1      24.079  15.904   6.175  0.00  0.00    -0.351 N 
HETATM   80  C   UNK N   1      22.738  15.690   6.261  0.00  0.00     0.241 C 
HETATM   81  O   UNK N   1      22.302  14.763   6.930  0.00  0.00    -0.271 OA
HETATM   82  H   UNK N   1      24.386  16.699   5.683  0.00  0.00     0.163 HD
BRANCH  80  83
HETATM   83  C   UNK N   1      21.795  16.676   5.583  0.00  0.00     0.179 C 
HETATM   84  C   UNK N   1      22.175  18.117   5.887  0.00  0.00     0.037 C 
HETATM   85  C   UNK N   1      23.024  18.579   4.702  0.00  0.00     0.022 C 
HETATM   86  C   UNK N   1      22.790  17.577   3.576  0.00  0.00     0.127 C 
HETATM   87  N   UNK N   1      22.001  16.535   4.173  0.00  0.00    -0.337 N 
HETATM   88  C   UNK N   1      21.598  15.412   3.513  0.00  0.00     0.243 C 
HETATM   89  O   UNK N   1      20.832  14.630   4.077  0.00  0.00    -0.271 OA
BRANCH  88  90
HETATM   90  C   UNK N   1      22.156  15.031   2.167  0.00  0.00     0.179 C 
HETATM   91  C   UNK N   1      21.024  14.714   1.210  0.00  0.00     0.037 C 
HETATM   92  C   UNK N   1      21.257  13.288   0.719  0.00  0.00     0.022 C 
HETATM   93  C   UNK N   1      22.397  12.707   1.542  0.00  0.00     0.127 C 
HETATM   94  N   UNK N   1      22.931  13.814   2.276  0.00  0.00    -0.337 N 
HETATM   95  C   UNK N   1      24.074  13.722   3.044  0.00  0.00     0.243 C 
HETATM   96  O   UNK N   1      24.516  14.717   3.594  0.00  0.00    -0.271 OA
BRANCH  95  97
HETATM   97  C   UNK N   1      24.788  12.393   3.234  0.00  0.00     0.179 C 
HETATM   98  C   UNK N   1      26.208  12.509   2.703  0.00  0.00     0.037 C 
HETATM   99  C   UNK N   1      27.114  11.846   3.730  0.00  0.00     0.022 C 
HETATM  100  C   UNK N   1      26.311  11.766   5.011  0.00  0.00     0.127 C 
HETATM  101  N   UNK N   1      24.945  11.966   4.616  0.00  0.00    -0.337 N 
HETATM  102  C   UNK N   1      23.904  11.659   5.456  0.00  0.00     0.243 C 
HETATM  103  O   UNK N   1      22.749  11.808   5.083  0.00  0.00    -0.271 OA
BRANCH 102 104
HETATM  104  C   UNK N   1      24.181  11.092   6.847  0.00  0.00     0.177 C 
BRANCH 104 105
HETATM  105  C   UNK N   1      23.807  12.049   7.987  0.00  0.00     0.045 C 
BRANCH 105 106
HETATM  106  C   UNK N   1      23.505  11.263   9.258  0.00  0.00     0.112 C 
BRANCH 106 107
HETATM  107  C   UNK N   1      23.760  12.074  10.487  0.00  0.00     0.139 C 
HETATM  108  O   UNK N   1      24.865  12.060  11.004  0.00  0.00    -0.650 OA
BRANCH 107 109
HETATM  109  O   UNK N   1      22.785  12.841  11.010  0.00  0.00    -0.776 OA
HETATM  110  H   UNK N   1      21.891  12.807  10.732  0.00  0.00     0.167 HD
ENDBRANCH 107 109
ENDBRANCH 106 107
ENDBRANCH 105 106
ENDBRANCH 104 105
BRANCH 104 111
HETATM  111  N   UNK N   1      23.444   9.850   6.985  0.00  0.00    -0.346 N 
HETATM  112  C   UNK N   1      23.921   8.637   6.617  0.00  0.00     0.235 C 
HETATM  113  O   UNK N   1      25.054   8.518   6.170  0.00  0.00    -0.272 OA
HETATM  114  H   UNK N   1      22.539   9.892   7.370  0.00  0.00     0.163 HD
BRANCH 112 115
HETATM  115  C   UNK N   1      23.021   7.442   6.735  0.00  0.00     0.214 C 
BRANCH 115 116
HETATM  116  N   UNK N   1      22.250   7.230   5.521  0.00  0.00    -0.422 N 
HETATM  117  H   UNK N   1      22.593   6.978   4.594  0.00  0.00     0.150 HD
HETATM  118  H   UNK N   1      21.239   7.347   5.606  0.00  0.00     0.150 HD
ENDBRANCH 115 116
ENDBRANCH 112 115
ENDBRANCH 104 111
ENDBRANCH 102 104
ENDBRANCH  95  97
ENDBRANCH  88  90
ENDBRANCH  80  83
ENDBRANCH  78  79
ENDBRANCH  75  78
ENDBRANCH  66  74
ENDBRANCH   6  66
TORSDOF 45
ENDMDL
MODEL 6
REMARK VINA RESULT:      -6.9      2.834     13.666
REMARK WARNING: 32 MAX_TORS EXCEEDED!!!
REMARK  45 active torsions:
REMARK  status: ('A' for Active; 'I' for Inactive)
REMARK    1  A    between atoms: C_2  and  C_3 
REMARK    2  A    between atoms: C_2  and  N_46 
REMARK       I    between atoms: C_3  and  N_5 
REMARK    3  A    between atoms: C_6  and  N_5 
REMARK    4  A    between atoms: C_6  and  C_7 
REMARK    5  A    between atoms: C_6  and  C_11 
REMARK    6  A    between atoms: C_7  and  C_8 
REMARK    7  A    between atoms: C_8  and  O_10 
REMARK       I    between atoms: C_11  and  N_13 
REMARK    8  A    between atoms: C_14  and  N_13 
REMARK    9  A    between atoms: C_14  and  C_15 
REMARK   10  A    between atoms: C_14  and  C_19 
REMARK   11  A    between atoms: C_15  and  C_16 
REMARK   12  A    between atoms: C_16  and  O_18 
REMARK       I    between atoms: C_19  and  N_21 
REMARK   13  A    between atoms: N_21  and  C_22 
REMARK   14  A    between atoms: C_22  and  C_24 
REMARK       I    between atoms: C_24  and  N_26 
REMARK   15  A    between atoms: N_26  and  C_27 
REMARK   16  A    between atoms: C_27  and  C_28 
REMARK       I    between atoms: C_28  and  N_30 
REMARK   17  A    between atoms: C_31  and  N_30 
REMARK   18  A    between atoms: C_31  and  C_32 
REMARK   19  A    between atoms: C_31  and  C_36 
REMARK   20  A    between atoms: C_32  and  C_33 
REMARK       I    between atoms: C_36  and  N_38 
REMARK   21  A    between atoms: C_39  and  N_38 
REMARK   22  A    between atoms: C_39  and  C_40 
REMARK   23  A    between atoms: C_39  and  C_43 
REMARK   24  A    between atoms: C_43  and  O_45 
REMARK       I    between atoms: N_46  and  C_47 
REMARK   25  A    between atoms: C_49  and  C_47 
REMARK       I    between atoms: N_53  and  C_54 
REMARK   26  A    between atoms: C_54  and  C_56 
REMARK   27  A    between atoms: C_56  and  C_57 
REMARK   28  A    between atoms: C_56  and  N_62 
REMARK   29  A    between atoms: C_57  and  C_58 
REMARK   30  A    between atoms: C_58  and  C_59 
REMARK   31  A    between atoms: C_59  and  C_60 
REMARK   32  A    between atoms: C_60  and  N_61 
REMARK       I    between atoms: N_62  and  C_63 
REMARK   33  A    between atoms: C_63  and  C_65 
REMARK   34  A    between atoms: C_65  and  N_66 
REMARK       I    between atoms: N_66  and  C_67 
REMARK   35  A    between atoms: C_69  and  C_67 
REMARK       I    between atoms: N_73  and  C_74 
REMARK   36  A    between atoms: C_76  and  C_74 
REMARK       I    between atoms: N_80  and  C_81 
REMARK   37  A    between atoms: C_83  and  C_81 
REMARK       I    between atoms: N_87  and  C_88 
REMARK   38  A    between atoms: C_88  and  C_90 
REMARK   39  A    between atoms: C_90  and  C_91 
REMARK   40  A    between atoms: C_90  and  N_96 
REMARK   41  A    between atoms: C_91  and  C_92 
REMARK   42  A    between atoms: C_92  and  C_93 
REMARK   43  A    between atoms: C_93  and  O_95 
REMARK       I    between atoms: N_96  and  C_97 
REMARK   44  A    between atoms: C_97  and  C_99 
REMARK   45  A    between atoms: C_99  and  N_100 
ROOT
HETATM    1  C   UNK N   1      27.046  17.856   4.921  0.00  0.00     0.179 C 
HETATM    2  C   UNK N   1      25.844  18.775   4.934  0.00  0.00     0.037 C 
HETATM    3  C   UNK N   1      26.315  20.032   5.666  0.00  0.00     0.022 C 
HETATM    4  C   UNK N   1      27.493  19.602   6.531  0.00  0.00     0.127 C 
HETATM    5  N   UNK N   1      27.904  18.355   5.967  0.00  0.00    -0.337 N 
HETATM    6  C   UNK N   1      29.058  17.739   6.316  0.00  0.00     0.243 C 
HETATM    7  O   UNK N   1      29.698  18.120   7.293  0.00  0.00    -0.271 OA
ENDROOT
BRANCH   1   8
HETATM    8  C   UNK N   1      26.660  16.391   5.082  0.00  0.00     0.241 C 
HETATM    9  N   UNK N   1      26.650  15.481   4.064  0.00  0.00    -0.346 N 
HETATM   10  H   UNK N   1      26.253  14.606   4.279  0.00  0.00     0.163 HD
HETATM   11  O   UNK N   1      26.247  16.034   6.174  0.00  0.00    -0.271 OA
BRANCH   9  12
HETATM   12  C   UNK N   1      27.143  15.628   2.711  0.00  0.00     0.172 C 
HETATM   13  C   UNK N   1      26.007  15.495   1.712  0.00  0.00     0.042 C 
BRANCH  12  14
HETATM   14  C   UNK N   1      28.238  14.649   2.407  0.00  0.00     0.240 C 
HETATM   15  O   UNK N   1      29.293  15.087   2.002  0.00  0.00    -0.271 OA
HETATM   16  N   UNK N   1      28.130  13.308   2.495  0.00  0.00    -0.346 N 
HETATM   17  H   UNK N   1      28.999  12.848   2.524  0.00  0.00     0.163 HD
BRANCH  16  18
HETATM   18  C   UNK N   1      26.999  12.403   2.554  0.00  0.00     0.186 C 
BRANCH  18  19
HETATM   19  C   UNK N   1      27.113  11.569   1.271  0.00  0.00     0.144 C 
BRANCH  19  20
HETATM   20  C   UNK N   1      28.528  11.093   0.971  0.00  0.00     0.141 C 
HETATM   21  O   UNK N   1      28.982  10.104   1.524  0.00  0.00    -0.650 OA
BRANCH  20  22
HETATM   22  O   UNK N   1      29.314  11.813   0.148  0.00  0.00    -0.776 OA
HETATM   23  H   UNK N   1      29.145  12.386  -0.575  0.00  0.00     0.167 HD
ENDBRANCH  20  22
ENDBRANCH  19  20
ENDBRANCH  18  19
BRANCH  18  24
HETATM   24  C   UNK N   1      26.744  11.648   3.872  0.00  0.00     0.241 C 
HETATM   25  O   UNK N   1      27.627  11.604   4.694  0.00  0.00    -0.271 OA
HETATM   26  N   UNK N   1      25.544  11.155   4.265  0.00  0.00    -0.345 N 
HETATM   27  H   UNK N   1      25.545  10.624   5.094  0.00  0.00     0.163 HD
BRANCH  26  28
HETATM   28  C   UNK N   1      24.275  11.311   3.619  0.00  0.00     0.186 C 
BRANCH  28  29
HETATM   29  C   UNK N   1      23.344  12.100   4.532  0.00  0.00     0.144 C 
BRANCH  29  30
HETATM   30  C   UNK N   1      23.950  13.426   4.884  0.00  0.00     0.141 C 
HETATM   31  O   UNK N   1      23.743  14.397   4.174  0.00  0.00    -0.650 OA
BRANCH  30  32
HETATM   32  O   UNK N   1      24.722  13.552   5.980  0.00  0.00    -0.776 OA
HETATM   33  H   UNK N   1      25.477  14.106   5.959  0.00  0.00     0.167 HD
ENDBRANCH  30  32
ENDBRANCH  29  30
ENDBRANCH  28  29
BRANCH  28  34
HETATM   34  C   UNK N   1      23.689   9.990   3.205  0.00  0.00     0.241 C 
HETATM   35  O   UNK N   1      23.740   9.030   3.957  0.00  0.00    -0.271 OA
HETATM   36  N   UNK N   1      23.134   9.855   1.973  0.00  0.00    -0.346 N 
HETATM   37  H   UNK N   1      22.851   8.964   1.664  0.00  0.00     0.163 HD
BRANCH  36  38
HETATM   38  C   UNK N   1      22.950  11.002   1.104  0.00  0.00     0.172 C 
HETATM   39  C   UNK N   1      23.700  10.870  -0.207  0.00  0.00     0.042 C 
BRANCH  38  40
HETATM   40  C   UNK N   1      21.486  11.357   0.917  0.00  0.00     0.240 C 
HETATM   41  O   UNK N   1      20.700  10.456   0.678  0.00  0.00    -0.271 OA
HETATM   42  N   UNK N   1      21.032  12.645   0.929  0.00  0.00    -0.351 N 
HETATM   43  H   UNK N   1      20.103  12.810   0.647  0.00  0.00     0.163 HD
BRANCH  42  44
HETATM   44  C   UNK N   1      21.835  13.786   1.332  0.00  0.00     0.225 C 
BRANCH  44  45
HETATM   45  C   UNK N   1      20.883  14.897   1.572  0.00  0.00     0.236 C 
HETATM   46  O   UNK N   1      20.922  15.893   0.869  0.00  0.00    -0.272 OA
HETATM   47  N   UNK N   1      20.270  14.927   2.764  0.00  0.00    -0.346 N 
HETATM   48  H   UNK N   1      19.565  14.269   2.960  0.00  0.00     0.163 HD
BRANCH  47  49
HETATM   49  C   UNK N   1      20.623  15.902   3.765  0.00  0.00     0.177 C 
BRANCH  49  50
HETATM   50  C   UNK N   1      19.821  17.204   3.597  0.00  0.00     0.038 C 
BRANCH  50  51
HETATM   51  C   UNK N   1      20.656  18.431   3.271  0.00  0.00    -0.020 C 
HETATM   52  C   UNK N   1      19.754  19.515   2.709  0.00  0.00     0.009 C 
HETATM   53  C   UNK N   1      21.282  18.945   4.547  0.00  0.00     0.009 C 
ENDBRANCH  50  51
ENDBRANCH  49  50
BRANCH  49  54
HETATM   54  C   UNK N   1      20.255  15.214   5.052  0.00  0.00     0.241 C 
HETATM   55  O   UNK N   1      19.075  15.052   5.331  0.00  0.00    -0.271 OA
HETATM   56  N   UNK N   1      21.212  15.095   5.995  0.00  0.00    -0.345 N 
HETATM   57  H   UNK N   1      22.099  14.777   5.713  0.00  0.00     0.163 HD
BRANCH  56  58
HETATM   58  C   UNK N   1      21.017  15.405   7.392  0.00  0.00     0.185 C 
BRANCH  58  59
HETATM   59  C   UNK N   1      20.646  14.100   8.109  0.00  0.00     0.010 C 
HETATM   60  C   UNK N   1      20.955  14.197   9.588  0.00  0.00     0.012 C 
HETATM   61  C   UNK N   1      21.443  12.922   7.552  0.00  0.00     0.012 C 
ENDBRANCH  58  59
BRANCH  58  62
HETATM   62  C   UNK N   1      20.103  16.573   7.679  0.00  0.00     0.163 C 
HETATM   63  O   UNK N   1      20.558  17.701   7.768  0.00  0.00    -0.648 OA
BRANCH  62  64
HETATM   64  O   UNK N   1      18.798  16.367   7.941  0.00  0.00    -0.775 OA
HETATM   65  H   UNK N   1      18.113  16.738   7.419  0.00  0.00     0.167 HD
ENDBRANCH  62  64
ENDBRANCH  58  62
ENDBRANCH  56  58
ENDBRANCH  49  54
ENDBRANCH  47  49
ENDBRANCH  44  45
ENDBRANCH  42  44
ENDBRANCH  38  40
ENDBRANCH  36  38
ENDBRANCH  28  34
ENDBRANCH  26  28
ENDBRANCH  18  24
ENDBRANCH  16  18
ENDBRANCH  12  14
ENDBRANCH   9  12
ENDBRANCH   1   8
BRANCH   6  66
HETATM   66  C   UNK N   1      29.599  16.669   5.430  0.00  0.00     0.176 C 
BRANCH  66  67
HETATM   67  C   UNK N   1      30.219  17.404   4.222  0.00  0.00     0.035 C 
BRANCH  67  68
HETATM   68  C   UNK N   1      31.749  17.461   4.331  0.00  0.00     0.004 C 
BRANCH  68  69
HETATM   69  C   UNK N   1      32.445  17.129   3.023  0.00  0.00     0.019 C 
BRANCH  69  70
HETATM   70  C   UNK N   1      33.115  15.769   3.100  0.00  0.00     0.111 C 
BRANCH  70  71
HETATM   71  N   UNK N   1      32.181  14.742   2.674  0.00  0.00    -0.430 N 
HETATM   72  H   UNK N   1      32.338  13.762   2.911  0.00  0.00     0.149 HD
HETATM   73  H   UNK N   1      31.357  15.003   2.133  0.00  0.00     0.149 HD
ENDBRANCH  70  71
ENDBRANCH  69  70
ENDBRANCH  68  69
ENDBRANCH  67  68
ENDBRANCH  66  67
BRANCH  66  74
HETATM   74  N   UNK N   1      30.606  15.884   6.072  0.00  0.00    -0.346 N 
HETATM   75  C   UNK N   1      30.664  14.554   5.884  0.00  0.00     0.236 C 
HETATM   76  O   UNK N   1      29.779  13.959   5.279  0.00  0.00    -0.272 OA
HETATM   77  H   UNK N   1      31.265  16.322   6.658  0.00  0.00     0.163 HD
BRANCH  75  78
HETATM   78  C   UNK N   1      31.922  13.873   6.199  0.00  0.00     0.225 C 
BRANCH  78  79
HETATM   79  N   UNK N   1      32.776  14.879   6.766  0.00  0.00    -0.351 N 
HETATM   80  C   UNK N   1      34.118  14.956   6.555  0.00  0.00     0.241 C 
HETATM   81  O   UNK N   1      34.665  14.185   5.779  0.00  0.00    -0.271 OA
HETATM   82  H   UNK N   1      32.363  15.560   7.346  0.00  0.00     0.163 HD
BRANCH  80  83
HETATM   83  C   UNK N   1      34.904  16.069   7.235  0.00  0.00     0.179 C 
HETATM   84  C   UNK N   1      34.194  17.410   7.119  0.00  0.00     0.037 C 
HETATM   85  C   UNK N   1      33.412  17.577   8.422  0.00  0.00     0.022 C 
HETATM   86  C   UNK N   1      33.983  16.567   9.411  0.00  0.00     0.127 C 
HETATM   87  N   UNK N   1      34.899  15.776   8.636  0.00  0.00    -0.337 N 
HETATM   88  C   UNK N   1      35.605  14.722   9.136  0.00  0.00     0.243 C 
HETATM   89  O   UNK N   1      36.448  14.176   8.423  0.00  0.00    -0.271 OA
BRANCH  88  90
HETATM   90  C   UNK N   1      35.302  14.122  10.484  0.00  0.00     0.179 C 
HETATM   91  C   UNK N   1      36.485  14.319  11.413  0.00  0.00     0.037 C 
HETATM   92  C   UNK N   1      36.906  12.928  11.879  0.00  0.00     0.022 C 
HETATM   93  C   UNK N   1      36.110  11.919  11.066  0.00  0.00     0.127 C 
HETATM   94  N   UNK N   1      35.130  12.691  10.364  0.00  0.00    -0.337 N 
HETATM   95  C   UNK N   1      34.121  12.120   9.617  0.00  0.00     0.243 C 
HETATM   96  O   UNK N   1      33.277  12.829   9.095  0.00  0.00    -0.271 OA
BRANCH  95  97
HETATM   97  C   UNK N   1      34.050  10.614   9.413  0.00  0.00     0.179 C 
HETATM   98  C   UNK N   1      32.987  10.035  10.333  0.00  0.00     0.037 C 
HETATM   99  C   UNK N   1      32.187   9.041   9.505  0.00  0.00     0.022 C 
HETATM  100  C   UNK N   1      32.474   9.372   8.056  0.00  0.00     0.127 C 
HETATM  101  N   UNK N   1      33.655  10.188   8.079  0.00  0.00    -0.337 N 
HETATM  102  C   UNK N   1      34.385  10.424   6.940  0.00  0.00     0.243 C 
HETATM  103  O   UNK N   1      35.406  11.095   6.994  0.00  0.00    -0.271 OA
BRANCH 102 104
HETATM  104  C   UNK N   1      33.948   9.818   5.608  0.00  0.00     0.177 C 
BRANCH 104 105
HETATM  105  C   UNK N   1      33.476  10.858   4.584  0.00  0.00     0.045 C 
BRANCH 105 106
HETATM  106  C   UNK N   1      32.302  10.311   3.779  0.00  0.00     0.112 C 
BRANCH 106 107
HETATM  107  C   UNK N   1      31.598  11.388   3.021  0.00  0.00     0.139 C 
HETATM  108  O   UNK N   1      32.003  11.719   1.918  0.00  0.00    -0.650 OA
BRANCH 107 109
HETATM  109  O   UNK N   1      30.502  11.977   3.536  0.00  0.00    -0.776 OA
HETATM  110  H   UNK N   1      29.669  11.554   3.605  0.00  0.00     0.167 HD
ENDBRANCH 107 109
ENDBRANCH 106 107
ENDBRANCH 105 106
ENDBRANCH 104 105
BRANCH 104 111
HETATM  111  N   UNK N   1      35.063   9.064   5.067  0.00  0.00    -0.346 N 
HETATM  112  C   UNK N   1      34.984   7.777   4.653  0.00  0.00     0.235 C 
HETATM  113  O   UNK N   1      33.919   7.176   4.679  0.00  0.00    -0.272 OA
HETATM  114  H   UNK N   1      35.934   9.517   4.997  0.00  0.00     0.163 HD
BRANCH 112 115
HETATM  115  C   UNK N   1      36.236   7.089   4.192  0.00  0.00     0.214 C 
BRANCH 115 116
HETATM  116  N   UNK N   1      37.426   7.725   4.734  0.00  0.00    -0.422 N 
HETATM  117  H   UNK N   1      38.062   7.364   5.445  0.00  0.00     0.150 HD
HETATM  118  H   UNK N   1      37.653   8.645   4.356  0.00  0.00     0.150 HD
ENDBRANCH 115 116
ENDBRANCH 112 115
ENDBRANCH 104 111
ENDBRANCH 102 104
ENDBRANCH  95  97
ENDBRANCH  88  90
ENDBRANCH  80  83
ENDBRANCH  78  79
ENDBRANCH  75  78
ENDBRANCH  66  74
ENDBRANCH   6  66
TORSDOF 45
ENDMDL
MODEL 7
REMARK VINA RESULT:      -6.8      2.512      4.352
REMARK WARNING: 32 MAX_TORS EXCEEDED!!!
REMARK  45 active torsions:
REMARK  status: ('A' for Active; 'I' for Inactive)
REMARK    1  A    between atoms: C_2  and  C_3 
REMARK    2  A    between atoms: C_2  and  N_46 
REMARK       I    between atoms: C_3  and  N_5 
REMARK    3  A    between atoms: C_6  and  N_5 
REMARK    4  A    between atoms: C_6  and  C_7 
REMARK    5  A    between atoms: C_6  and  C_11 
REMARK    6  A    between atoms: C_7  and  C_8 
REMARK    7  A    between atoms: C_8  and  O_10 
REMARK       I    between atoms: C_11  and  N_13 
REMARK    8  A    between atoms: C_14  and  N_13 
REMARK    9  A    between atoms: C_14  and  C_15 
REMARK   10  A    between atoms: C_14  and  C_19 
REMARK   11  A    between atoms: C_15  and  C_16 
REMARK   12  A    between atoms: C_16  and  O_18 
REMARK       I    between atoms: C_19  and  N_21 
REMARK   13  A    between atoms: N_21  and  C_22 
REMARK   14  A    between atoms: C_22  and  C_24 
REMARK       I    between atoms: C_24  and  N_26 
REMARK   15  A    between atoms: N_26  and  C_27 
REMARK   16  A    between atoms: C_27  and  C_28 
REMARK       I    between atoms: C_28  and  N_30 
REMARK   17  A    between atoms: C_31  and  N_30 
REMARK   18  A    between atoms: C_31  and  C_32 
REMARK   19  A    between atoms: C_31  and  C_36 
REMARK   20  A    between atoms: C_32  and  C_33 
REMARK       I    between atoms: C_36  and  N_38 
REMARK   21  A    between atoms: C_39  and  N_38 
REMARK   22  A    between atoms: C_39  and  C_40 
REMARK   23  A    between atoms: C_39  and  C_43 
REMARK   24  A    between atoms: C_43  and  O_45 
REMARK       I    between atoms: N_46  and  C_47 
REMARK   25  A    between atoms: C_49  and  C_47 
REMARK       I    between atoms: N_53  and  C_54 
REMARK   26  A    between atoms: C_54  and  C_56 
REMARK   27  A    between atoms: C_56  and  C_57 
REMARK   28  A    between atoms: C_56  and  N_62 
REMARK   29  A    between atoms: C_57  and  C_58 
REMARK   30  A    between atoms: C_58  and  C_59 
REMARK   31  A    between atoms: C_59  and  C_60 
REMARK   32  A    between atoms: C_60  and  N_61 
REMARK       I    between atoms: N_62  and  C_63 
REMARK   33  A    between atoms: C_63  and  C_65 
REMARK   34  A    between atoms: C_65  and  N_66 
REMARK       I    between atoms: N_66  and  C_67 
REMARK   35  A    between atoms: C_69  and  C_67 
REMARK       I    between atoms: N_73  and  C_74 
REMARK   36  A    between atoms: C_76  and  C_74 
REMARK       I    between atoms: N_80  and  C_81 
REMARK   37  A    between atoms: C_83  and  C_81 
REMARK       I    between atoms: N_87  and  C_88 
REMARK   38  A    between atoms: C_88  and  C_90 
REMARK   39  A    between atoms: C_90  and  C_91 
REMARK   40  A    between atoms: C_90  and  N_96 
REMARK   41  A    between atoms: C_91  and  C_92 
REMARK   42  A    between atoms: C_92  and  C_93 
REMARK   43  A    between atoms: C_93  and  O_95 
REMARK       I    between atoms: N_96  and  C_97 
REMARK   44  A    between atoms: C_97  and  C_99 
REMARK   45  A    between atoms: C_99  and  N_100 
ROOT
HETATM    1  C   UNK N   1      31.367  16.998   5.170  0.00  0.00     0.179 C 
HETATM    2  C   UNK N   1      32.858  16.891   4.938  0.00  0.00     0.037 C 
HETATM    3  C   UNK N   1      33.039  17.081   3.432  0.00  0.00     0.022 C 
HETATM    4  C   UNK N   1      31.706  16.707   2.795  0.00  0.00     0.127 C 
HETATM    5  N   UNK N   1      30.774  16.764   3.876  0.00  0.00    -0.337 N 
HETATM    6  C   UNK N   1      29.433  16.702   3.691  0.00  0.00     0.243 C 
HETATM    7  O   UNK N   1      28.969  16.377   2.602  0.00  0.00    -0.271 OA
ENDROOT
BRANCH   1   8
HETATM    8  C   UNK N   1      30.878  16.049   6.256  0.00  0.00     0.241 C 
HETATM    9  N   UNK N   1      30.892  14.687   6.153  0.00  0.00    -0.346 N 
HETATM   10  H   UNK N   1      30.425  14.202   6.871  0.00  0.00     0.163 HD
HETATM   11  O   UNK N   1      30.356  16.544   7.243  0.00  0.00    -0.271 OA
BRANCH   9  12
HETATM   12  C   UNK N   1      31.501  13.862   5.132  0.00  0.00     0.172 C 
HETATM   13  C   UNK N   1      30.455  13.378   4.143  0.00  0.00     0.042 C 
BRANCH  12  14
HETATM   14  C   UNK N   1      32.250  12.705   5.724  0.00  0.00     0.240 C 
HETATM   15  O   UNK N   1      31.963  11.590   5.345  0.00  0.00    -0.271 OA
HETATM   16  N   UNK N   1      33.185  12.796   6.691  0.00  0.00    -0.346 N 
HETATM   17  H   UNK N   1      33.752  11.994   6.763  0.00  0.00     0.163 HD
BRANCH  16  18
HETATM   18  C   UNK N   1      33.529  13.829   7.649  0.00  0.00     0.186 C 
BRANCH  18  19
HETATM   19  C   UNK N   1      33.253  13.188   9.015  0.00  0.00     0.144 C 
BRANCH  19  20
HETATM   20  C   UNK N   1      33.327  11.667   9.007  0.00  0.00     0.141 C 
HETATM   21  O   UNK N   1      32.328  10.994   9.211  0.00  0.00    -0.650 OA
BRANCH  20  22
HETATM   22  O   UNK N   1      34.518  11.057   8.853  0.00  0.00    -0.776 OA
HETATM   23  H   UNK N   1      35.066  10.881   8.113  0.00  0.00     0.167 HD
ENDBRANCH  20  22
ENDBRANCH  19  20
ENDBRANCH  18  19
BRANCH  18  24
HETATM   24  C   UNK N   1      34.870  14.566   7.468  0.00  0.00     0.241 C 
HETATM   25  O   UNK N   1      35.483  14.409   6.439  0.00  0.00    -0.271 OA
HETATM   26  N   UNK N   1      35.355  15.512   8.308  0.00  0.00    -0.345 N 
HETATM   27  H   UNK N   1      36.262  15.840   8.112  0.00  0.00     0.163 HD
BRANCH  26  28
HETATM   28  C   UNK N   1      34.707  16.093   9.447  0.00  0.00     0.186 C 
BRANCH  28  29
HETATM   29  C   UNK N   1      33.748  17.179   8.976  0.00  0.00     0.144 C 
BRANCH  29  30
HETATM   30  C   UNK N   1      34.441  18.121   8.036  0.00  0.00     0.141 C 
HETATM   31  O   UNK N   1      34.538  17.837   6.853  0.00  0.00    -0.650 OA
BRANCH  30  32
HETATM   32  O   UNK N   1      34.955  19.280   8.489  0.00  0.00    -0.776 OA
HETATM   33  H   UNK N   1      35.058  19.417   9.410  0.00  0.00     0.167 HD
ENDBRANCH  30  32
ENDBRANCH  29  30
ENDBRANCH  28  29
BRANCH  28  34
HETATM   34  C   UNK N   1      35.698  16.600  10.457  0.00  0.00     0.241 C 
HETATM   35  O   UNK N   1      36.003  17.782  10.483  0.00  0.00    -0.271 OA
HETATM   36  N   UNK N   1      36.285  15.732  11.322  0.00  0.00    -0.346 N 
HETATM   37  H   UNK N   1      37.011  16.047  11.906  0.00  0.00     0.163 HD
BRANCH  36  38
HETATM   38  C   UNK N   1      35.858  14.347  11.398  0.00  0.00     0.172 C 
HETATM   39  C   UNK N   1      36.711  13.424  10.550  0.00  0.00     0.042 C 
BRANCH  38  40
HETATM   40  C   UNK N   1      35.706  13.867  12.829  0.00  0.00     0.240 C 
HETATM   41  O   UNK N   1      36.104  14.592  13.726  0.00  0.00    -0.271 OA
HETATM   42  N   UNK N   1      35.218  12.631  13.146  0.00  0.00    -0.351 N 
HETATM   43  H   UNK N   1      35.294  12.329  14.080  0.00  0.00     0.163 HD
BRANCH  42  44
HETATM   44  C   UNK N   1      34.594  11.735  12.188  0.00  0.00     0.225 C 
BRANCH  44  45
HETATM   45  C   UNK N   1      34.908  10.359  12.645  0.00  0.00     0.236 C 
HETATM   46  O   UNK N   1      35.131  10.147  13.825  0.00  0.00    -0.272 OA
HETATM   47  N   UNK N   1      35.293   9.481  11.709  0.00  0.00    -0.346 N 
HETATM   48  H   UNK N   1      34.626   9.127  11.076  0.00  0.00     0.163 HD
BRANCH  47  49
HETATM   49  C   UNK N   1      36.662   9.041  11.610  0.00  0.00     0.177 C 
BRANCH  49  50
HETATM   50  C   UNK N   1      36.870   7.675  12.285  0.00  0.00     0.038 C 
BRANCH  50  51
HETATM   51  C   UNK N   1      37.901   7.664  13.401  0.00  0.00    -0.020 C 
HETATM   52  C   UNK N   1      38.483   9.058  13.558  0.00  0.00     0.009 C 
HETATM   53  C   UNK N   1      37.215   7.286  14.693  0.00  0.00     0.009 C 
ENDBRANCH  50  51
ENDBRANCH  49  50
BRANCH  49  54
HETATM   54  C   UNK N   1      36.878   8.937  10.124  0.00  0.00     0.241 C 
HETATM   55  O   UNK N   1      37.028   7.835   9.615  0.00  0.00    -0.271 OA
HETATM   56  N   UNK N   1      37.222  10.059   9.460  0.00  0.00    -0.345 N 
HETATM   57  H   UNK N   1      36.710  10.879   9.645  0.00  0.00     0.163 HD
BRANCH  56  58
HETATM   58  C   UNK N   1      38.294  10.135   8.496  0.00  0.00     0.185 C 
BRANCH  58  59
HETATM   59  C   UNK N   1      39.536  10.668   9.223  0.00  0.00     0.010 C 
HETATM   60  C   UNK N   1      39.800  12.110   8.843  0.00  0.00     0.012 C 
HETATM   61  C   UNK N   1      40.778   9.862   8.850  0.00  0.00     0.012 C 
ENDBRANCH  58  59
BRANCH  58  62
HETATM   62  C   UNK N   1      37.958  10.844   7.204  0.00  0.00     0.163 C 
HETATM   63  O   UNK N   1      36.988  11.581   7.144  0.00  0.00    -0.648 OA
BRANCH  62  64
HETATM   64  O   UNK N   1      38.662  10.589   6.085  0.00  0.00    -0.775 OA
HETATM   65  H   UNK N   1      38.255  10.352   5.275  0.00  0.00     0.167 HD
ENDBRANCH  62  64
ENDBRANCH  58  62
ENDBRANCH  56  58
ENDBRANCH  49  54
ENDBRANCH  47  49
ENDBRANCH  44  45
ENDBRANCH  42  44
ENDBRANCH  38  40
ENDBRANCH  36  38
ENDBRANCH  28  34
ENDBRANCH  26  28
ENDBRANCH  18  24
ENDBRANCH  16  18
ENDBRANCH  12  14
ENDBRANCH   9  12
ENDBRANCH   1   8
BRANCH   6  66
HETATM   66  C   UNK N   1      28.535  17.148   4.794  0.00  0.00     0.176 C 
BRANCH  66  67
HETATM   67  C   UNK N   1      27.710  18.316   4.212  0.00  0.00     0.035 C 
BRANCH  67  68
HETATM   68  C   UNK N   1      28.107  19.652   4.857  0.00  0.00     0.004 C 
BRANCH  68  69
HETATM   69  C   UNK N   1      26.947  20.628   4.951  0.00  0.00     0.019 C 
BRANCH  69  70
HETATM   70  C   UNK N   1      26.792  21.144   6.370  0.00  0.00     0.111 C 
BRANCH  70  71
HETATM   71  N   UNK N   1      26.967  20.049   7.308  0.00  0.00    -0.430 N 
HETATM   72  H   UNK N   1      27.533  20.165   8.148  0.00  0.00     0.149 HD
HETATM   73  H   UNK N   1      26.517  19.152   7.124  0.00  0.00     0.149 HD
ENDBRANCH  70  71
ENDBRANCH  69  70
ENDBRANCH  68  69
ENDBRANCH  67  68
ENDBRANCH  66  67
BRANCH  66  74
HETATM   74  N   UNK N   1      27.648  16.114   5.228  0.00  0.00    -0.346 N 
HETATM   75  C   UNK N   1      27.004  16.209   6.404  0.00  0.00     0.236 C 
HETATM   76  O   UNK N   1      27.264  17.105   7.199  0.00  0.00    -0.272 OA
HETATM   77  H   UNK N   1      27.506  15.324   4.658  0.00  0.00     0.163 HD
BRANCH  75  78
HETATM   78  C   UNK N   1      25.820  15.371   6.605  0.00  0.00     0.225 C 
BRANCH  78  79
HETATM   79  N   UNK N   1      25.499  14.836   5.311  0.00  0.00    -0.351 N 
HETATM   80  C   UNK N   1      26.009  13.678   4.812  0.00  0.00     0.241 C 
HETATM   81  O   UNK N   1      26.732  12.973   5.502  0.00  0.00    -0.271 OA
HETATM   82  H   UNK N   1      24.868  15.340   4.748  0.00  0.00     0.163 HD
BRANCH  80  83
HETATM   83  C   UNK N   1      25.593  13.238   3.414  0.00  0.00     0.179 C 
HETATM   84  C   UNK N   1      26.786  12.768   2.594  0.00  0.00     0.037 C 
HETATM   85  C   UNK N   1      26.812  11.246   2.739  0.00  0.00     0.022 C 
HETATM   86  C   UNK N   1      25.447  10.831   3.278  0.00  0.00     0.127 C 
HETATM   87  N   UNK N   1      24.782  12.069   3.577  0.00  0.00    -0.337 N 
HETATM   88  C   UNK N   1      23.535  12.150   4.123  0.00  0.00     0.243 C 
HETATM   89  O   UNK N   1      23.005  13.256   4.240  0.00  0.00    -0.271 OA
BRANCH  88  90
HETATM   90  C   UNK N   1      22.835  10.949   4.702  0.00  0.00     0.179 C 
HETATM   91  C   UNK N   1      21.924  10.331   3.659  0.00  0.00     0.037 C 
HETATM   92  C   UNK N   1      20.520  10.327   4.257  0.00  0.00     0.022 C 
HETATM   93  C   UNK N   1      20.577  11.125   5.550  0.00  0.00     0.127 C 
HETATM   94  N   UNK N   1      21.970  11.354   5.789  0.00  0.00    -0.337 N 
HETATM   95  C   UNK N   1      22.446  11.934   6.946  0.00  0.00     0.243 C 
HETATM   96  O   UNK N   1      23.648  12.043   7.119  0.00  0.00    -0.271 OA
BRANCH  95  97
HETATM   97  C   UNK N   1      21.495  12.461   8.010  0.00  0.00     0.179 C 
HETATM   98  C   UNK N   1      22.006  12.053   9.383  0.00  0.00     0.037 C 
HETATM   99  C   UNK N   1      21.874  13.275  10.279  0.00  0.00     0.022 C 
HETATM  100  C   UNK N   1      21.731  14.463   9.353  0.00  0.00     0.127 C 
HETATM  101  N   UNK N   1      21.380  13.909   8.075  0.00  0.00    -0.337 N 
HETATM  102  C   UNK N   1      20.873  14.694   7.069  0.00  0.00     0.243 C 
HETATM  103  O   UNK N   1      20.551  14.191   6.002  0.00  0.00    -0.271 OA
BRANCH 102 104
HETATM  104  C   UNK N   1      20.672  16.192   7.290  0.00  0.00     0.177 C 
BRANCH 104 105
HETATM  105  C   UNK N   1      20.745  17.020   6.001  0.00  0.00     0.045 C 
BRANCH 105 106
HETATM  106  C   UNK N   1      21.876  18.038   6.090  0.00  0.00     0.112 C 
BRANCH 106 107
HETATM  107  C   UNK N   1      23.087  17.593   5.338  0.00  0.00     0.139 C 
HETATM  108  O   UNK N   1      23.037  16.588   4.647  0.00  0.00    -0.650 OA
BRANCH 107 109
HETATM  109  O   UNK N   1      24.225  18.310   5.395  0.00  0.00    -0.776 OA
HETATM  110  H   UNK N   1      25.073  17.954   5.215  0.00  0.00     0.167 HD
ENDBRANCH 107 109
ENDBRANCH 106 107
ENDBRANCH 105 106
ENDBRANCH 104 105
BRANCH 104 111
HETATM  111  N   UNK N   1      19.383  16.385   7.927  0.00  0.00    -0.346 N 
HETATM  112  C   UNK N   1      19.111  17.377   8.810  0.00  0.00     0.235 C 
HETATM  113  O   UNK N   1      19.958  18.212   9.094  0.00  0.00    -0.272 OA
HETATM  114  H   UNK N   1      18.660  15.756   7.705  0.00  0.00     0.163 HD
BRANCH 112 115
HETATM  115  C   UNK N   1      17.758  17.412   9.460  0.00  0.00     0.214 C 
BRANCH 115 116
HETATM  116  N   UNK N   1      17.633  18.534  10.376  0.00  0.00    -0.422 N 
HETATM  117  H   UNK N   1      18.299  19.290  10.537  0.00  0.00     0.150 HD
HETATM  118  H   UNK N   1      16.773  18.571  10.924  0.00  0.00     0.150 HD
ENDBRANCH 115 116
ENDBRANCH 112 115
ENDBRANCH 104 111
ENDBRANCH 102 104
ENDBRANCH  95  97
ENDBRANCH  88  90
ENDBRANCH  80  83
ENDBRANCH  78  79
ENDBRANCH  75  78
ENDBRANCH  66  74
ENDBRANCH   6  66
TORSDOF 45
ENDMDL
MODEL 8
REMARK VINA RESULT:      -6.8      3.194      5.894
REMARK WARNING: 32 MAX_TORS EXCEEDED!!!
REMARK  45 active torsions:
REMARK  status: ('A' for Active; 'I' for Inactive)
REMARK    1  A    between atoms: C_2  and  C_3 
REMARK    2  A    between atoms: C_2  and  N_46 
REMARK       I    between atoms: C_3  and  N_5 
REMARK    3  A    between atoms: C_6  and  N_5 
REMARK    4  A    between atoms: C_6  and  C_7 
REMARK    5  A    between atoms: C_6  and  C_11 
REMARK    6  A    between atoms: C_7  and  C_8 
REMARK    7  A    between atoms: C_8  and  O_10 
REMARK       I    between atoms: C_11  and  N_13 
REMARK    8  A    between atoms: C_14  and  N_13 
REMARK    9  A    between atoms: C_14  and  C_15 
REMARK   10  A    between atoms: C_14  and  C_19 
REMARK   11  A    between atoms: C_15  and  C_16 
REMARK   12  A    between atoms: C_16  and  O_18 
REMARK       I    between atoms: C_19  and  N_21 
REMARK   13  A    between atoms: N_21  and  C_22 
REMARK   14  A    between atoms: C_22  and  C_24 
REMARK       I    between atoms: C_24  and  N_26 
REMARK   15  A    between atoms: N_26  and  C_27 
REMARK   16  A    between atoms: C_27  and  C_28 
REMARK       I    between atoms: C_28  and  N_30 
REMARK   17  A    between atoms: C_31  and  N_30 
REMARK   18  A    between atoms: C_31  and  C_32 
REMARK   19  A    between atoms: C_31  and  C_36 
REMARK   20  A    between atoms: C_32  and  C_33 
REMARK       I    between atoms: C_36  and  N_38 
REMARK   21  A    between atoms: C_39  and  N_38 
REMARK   22  A    between atoms: C_39  and  C_40 
REMARK   23  A    between atoms: C_39  and  C_43 
REMARK   24  A    between atoms: C_43  and  O_45 
REMARK       I    between atoms: N_46  and  C_47 
REMARK   25  A    between atoms: C_49  and  C_47 
REMARK       I    between atoms: N_53  and  C_54 
REMARK   26  A    between atoms: C_54  and  C_56 
REMARK   27  A    between atoms: C_56  and  C_57 
REMARK   28  A    between atoms: C_56  and  N_62 
REMARK   29  A    between atoms: C_57  and  C_58 
REMARK   30  A    between atoms: C_58  and  C_59 
REMARK   31  A    between atoms: C_59  and  C_60 
REMARK   32  A    between atoms: C_60  and  N_61 
REMARK       I    between atoms: N_62  and  C_63 
REMARK   33  A    between atoms: C_63  and  C_65 
REMARK   34  A    between atoms: C_65  and  N_66 
REMARK       I    between atoms: N_66  and  C_67 
REMARK   35  A    between atoms: C_69  and  C_67 
REMARK       I    between atoms: N_73  and  C_74 
REMARK   36  A    between atoms: C_76  and  C_74 
REMARK       I    between atoms: N_80  and  C_81 
REMARK   37  A    between atoms: C_83  and  C_81 
REMARK       I    between atoms: N_87  and  C_88 
REMARK   38  A    between atoms: C_88  and  C_90 
REMARK   39  A    between atoms: C_90  and  C_91 
REMARK   40  A    between atoms: C_90  and  N_96 
REMARK   41  A    between atoms: C_91  and  C_92 
REMARK   42  A    between atoms: C_92  and  C_93 
REMARK   43  A    between atoms: C_93  and  O_95 
REMARK       I    between atoms: N_96  and  C_97 
REMARK   44  A    between atoms: C_97  and  C_99 
REMARK   45  A    between atoms: C_99  and  N_100 
ROOT
HETATM    1  C   UNK N   1      31.285  13.625   3.057  0.00  0.00     0.179 C 
HETATM    2  C   UNK N   1      32.765  13.432   2.806  0.00  0.00     0.037 C 
HETATM    3  C   UNK N   1      32.850  12.756   1.438  0.00  0.00     0.022 C 
HETATM    4  C   UNK N   1      31.507  12.070   1.220  0.00  0.00     0.127 C 
HETATM    5  N   UNK N   1      30.635  12.703   2.159  0.00  0.00    -0.337 N 
HETATM    6  C   UNK N   1      29.292  12.527   2.145  0.00  0.00     0.243 C 
HETATM    7  O   UNK N   1      28.786  11.644   1.457  0.00  0.00    -0.271 OA
ENDROOT
BRANCH   1   8
HETATM    8  C   UNK N   1      30.913  13.432   4.521  0.00  0.00     0.241 C 
HETATM    9  N   UNK N   1      30.837  14.443   5.436  0.00  0.00    -0.346 N 
HETATM   10  H   UNK N   1      30.717  14.161   6.372  0.00  0.00     0.163 HD
HETATM   11  O   UNK N   1      30.763  12.287   4.917  0.00  0.00    -0.271 OA
BRANCH   9  12
HETATM   12  C   UNK N   1      30.908  15.872   5.217  0.00  0.00     0.172 C 
HETATM   13  C   UNK N   1      32.320  16.284   4.839  0.00  0.00     0.042 C 
BRANCH  12  14
HETATM   14  C   UNK N   1      30.429  16.643   6.411  0.00  0.00     0.240 C 
HETATM   15  O   UNK N   1      29.405  17.282   6.299  0.00  0.00    -0.271 OA
HETATM   16  N   UNK N   1      31.074  16.731   7.592  0.00  0.00    -0.346 N 
HETATM   17  H   UNK N   1      30.500  17.042   8.328  0.00  0.00     0.163 HD
BRANCH  16  18
HETATM   18  C   UNK N   1      32.439  16.464   8.002  0.00  0.00     0.186 C 
BRANCH  18  19
HETATM   19  C   UNK N   1      32.958  17.820   8.497  0.00  0.00     0.144 C 
BRANCH  19  20
HETATM   20  C   UNK N   1      34.234  18.281   7.803  0.00  0.00     0.141 C 
HETATM   21  O   UNK N   1      34.947  19.132   8.313  0.00  0.00    -0.650 OA
BRANCH  20  22
HETATM   22  O   UNK N   1      34.539  17.804   6.581  0.00  0.00    -0.776 OA
HETATM   23  H   UNK N   1      34.054  17.694   5.787  0.00  0.00     0.167 HD
ENDBRANCH  20  22
ENDBRANCH  19  20
ENDBRANCH  18  19
BRANCH  18  24
HETATM   24  C   UNK N   1      32.700  15.235   8.893  0.00  0.00     0.241 C 
HETATM   25  O   UNK N   1      31.814  14.429   9.041  0.00  0.00    -0.271 OA
HETATM   26  N   UNK N   1      33.906  14.891   9.407  0.00  0.00    -0.345 N 
HETATM   27  H   UNK N   1      33.910  14.125  10.025  0.00  0.00     0.163 HD
BRANCH  26  28
HETATM   28  C   UNK N   1      35.176  15.508   9.159  0.00  0.00     0.186 C 
BRANCH  28  29
HETATM   29  C   UNK N   1      36.066  14.531   8.399  0.00  0.00     0.144 C 
BRANCH  29  30
HETATM   30  C   UNK N   1      35.566  14.347   6.997  0.00  0.00     0.141 C 
HETATM   31  O   UNK N   1      34.741  13.480   6.754  0.00  0.00    -0.650 OA
BRANCH  30  32
HETATM   32  O   UNK N   1      36.021  15.133   6.003  0.00  0.00    -0.776 OA
HETATM   33  H   UNK N   1      35.798  16.042   5.987  0.00  0.00     0.167 HD
ENDBRANCH  30  32
ENDBRANCH  29  30
ENDBRANCH  28  29
BRANCH  28  34
HETATM   34  C   UNK N   1      35.817  16.000  10.427  0.00  0.00     0.241 C 
HETATM   35  O   UNK N   1      35.863  17.195  10.671  0.00  0.00    -0.271 OA
HETATM   36  N   UNK N   1      36.378  15.112  11.288  0.00  0.00    -0.346 N 
HETATM   37  H   UNK N   1      36.892  15.444  12.059  0.00  0.00     0.163 HD
BRANCH  36  38
HETATM   38  C   UNK N   1      36.235  13.682  11.089  0.00  0.00     0.172 C 
HETATM   39  C   UNK N   1      37.542  12.933  11.261  0.00  0.00     0.042 C 
BRANCH  38  40
HETATM   40  C   UNK N   1      35.102  13.095  11.909  0.00  0.00     0.240 C 
HETATM   41  O   UNK N   1      34.908  13.541  13.028  0.00  0.00    -0.271 OA
HETATM   42  N   UNK N   1      34.347  12.040  11.478  0.00  0.00    -0.351 N 
HETATM   43  H   UNK N   1      33.738  11.614  12.123  0.00  0.00     0.163 HD
BRANCH  42  44
HETATM   44  C   UNK N   1      34.390  11.511  10.127  0.00  0.00     0.225 C 
BRANCH  44  45
HETATM   45  C   UNK N   1      33.195  10.644   9.985  0.00  0.00     0.236 C 
HETATM   46  O   UNK N   1      32.945   9.809  10.839  0.00  0.00    -0.272 OA
HETATM   47  N   UNK N   1      32.647  10.557   8.765  0.00  0.00    -0.346 N 
HETATM   48  H   UNK N   1      32.144  11.323   8.407  0.00  0.00     0.163 HD
BRANCH  47  49
HETATM   49  C   UNK N   1      32.779   9.364   7.966  0.00  0.00     0.177 C 
BRANCH  49  50
HETATM   50  C   UNK N   1      31.435   8.633   7.812  0.00  0.00     0.038 C 
BRANCH  50  51
HETATM   51  C   UNK N   1      31.346   7.299   8.534  0.00  0.00    -0.020 C 
HETATM   52  C   UNK N   1      32.744   6.838   8.908  0.00  0.00     0.009 C 
HETATM   53  C   UNK N   1      30.550   7.487   9.805  0.00  0.00     0.009 C 
ENDBRANCH  50  51
ENDBRANCH  49  50
BRANCH  49  54
HETATM   54  C   UNK N   1      33.251   9.895   6.639  0.00  0.00     0.241 C 
HETATM   55  O   UNK N   1      32.665   9.564   5.618  0.00  0.00    -0.271 OA
HETATM   56  N   UNK N   1      34.482  10.443   6.585  0.00  0.00    -0.345 N 
HETATM   57  H   UNK N   1      34.730  11.088   7.286  0.00  0.00     0.163 HD
BRANCH  56  58
HETATM   58  C   UNK N   1      35.459  10.145   5.565  0.00  0.00     0.185 C 
BRANCH  58  59
HETATM   59  C   UNK N   1      36.820   9.991   6.257  0.00  0.00     0.010 C 
HETATM   60  C   UNK N   1      37.048   8.553   6.672  0.00  0.00     0.012 C 
HETATM   61  C   UNK N   1      36.894  10.849   7.518  0.00  0.00     0.012 C 
ENDBRANCH  58  59
BRANCH  58  62
HETATM   62  C   UNK N   1      35.452  11.067   4.368  0.00  0.00     0.163 C 
HETATM   63  O   UNK N   1      34.964  10.699   3.313  0.00  0.00    -0.648 OA
BRANCH  62  64
HETATM   64  O   UNK N   1      36.075  12.260   4.424  0.00  0.00    -0.775 OA
HETATM   65  H   UNK N   1      35.795  12.950   4.994  0.00  0.00     0.167 HD
ENDBRANCH  62  64
ENDBRANCH  58  62
ENDBRANCH  56  58
ENDBRANCH  49  54
ENDBRANCH  47  49
ENDBRANCH  44  45
ENDBRANCH  42  44
ENDBRANCH  38  40
ENDBRANCH  36  38
ENDBRANCH  28  34
ENDBRANCH  26  28
ENDBRANCH  18  24
ENDBRANCH  16  18
ENDBRANCH  12  14
ENDBRANCH   9  12
ENDBRANCH   1   8
BRANCH   6  66
HETATM   66  C   UNK N   1      28.433  13.495   2.884  0.00  0.00     0.176 C 
BRANCH  66  67
HETATM   67  C   UNK N   1      28.359  14.752   1.991  0.00  0.00     0.035 C 
BRANCH  67  68
HETATM   68  C   UNK N   1      27.216  15.679   2.429  0.00  0.00     0.004 C 
BRANCH  68  69
HETATM   69  C   UNK N   1      27.669  16.754   3.402  0.00  0.00     0.019 C 
BRANCH  69  70
HETATM   70  C   UNK N   1      26.512  17.662   3.777  0.00  0.00     0.111 C 
BRANCH  70  71
HETATM   71  N   UNK N   1      26.732  18.206   5.106  0.00  0.00    -0.430 N 
HETATM   72  H   UNK N   1      26.047  18.066   5.848  0.00  0.00     0.149 HD
HETATM   73  H   UNK N   1      27.582  18.735   5.299  0.00  0.00     0.149 HD
ENDBRANCH  70  71
ENDBRANCH  69  70
ENDBRANCH  68  69
ENDBRANCH  67  68
ENDBRANCH  66  67
BRANCH  66  74
HETATM   74  N   UNK N   1      27.112  12.995   3.106  0.00  0.00    -0.346 N 
HETATM   75  C   UNK N   1      26.775  12.440   4.283  0.00  0.00     0.236 C 
HETATM   76  O   UNK N   1      27.620  12.215   5.143  0.00  0.00    -0.272 OA
HETATM   77  H   UNK N   1      26.441  13.060   2.388  0.00  0.00     0.163 HD
BRANCH  75  78
HETATM   78  C   UNK N   1      25.351  12.339   4.609  0.00  0.00     0.225 C 
BRANCH  78  79
HETATM   79  N   UNK N   1      24.653  12.806   3.444  0.00  0.00    -0.351 N 
HETATM   80  C   UNK N   1      23.688  13.765   3.461  0.00  0.00     0.241 C 
HETATM   81  O   UNK N   1      23.417  14.350   4.501  0.00  0.00    -0.271 OA
HETATM   82  H   UNK N   1      24.887  12.407   2.576  0.00  0.00     0.163 HD
BRANCH  80  83
HETATM   83  C   UNK N   1      23.017  14.153   2.149  0.00  0.00     0.179 C 
HETATM   84  C   UNK N   1      24.013  14.195   1.000  0.00  0.00     0.037 C 
HETATM   85  C   UNK N   1      23.902  12.837   0.307  0.00  0.00     0.022 C 
HETATM   86  C   UNK N   1      22.601  12.202   0.787  0.00  0.00     0.127 C 
HETATM   87  N   UNK N   1      22.123  13.085   1.816  0.00  0.00    -0.337 N 
HETATM   88  C   UNK N   1      20.990  12.864   2.543  0.00  0.00     0.243 C 
HETATM   89  O   UNK N   1      20.604  13.733   3.325  0.00  0.00    -0.271 OA
BRANCH  88  90
HETATM   90  C   UNK N   1      20.267  11.544   2.514  0.00  0.00     0.179 C 
HETATM   91  C   UNK N   1      18.782  11.774   2.309  0.00  0.00     0.037 C 
HETATM   92  C   UNK N   1      18.074  11.126   3.496  0.00  0.00     0.022 C 
HETATM   93  C   UNK N   1      19.148  10.706   4.487  0.00  0.00     0.127 C 
HETATM   94  N   UNK N   1      20.388  10.882   3.795  0.00  0.00    -0.337 N 
HETATM   95  C   UNK N   1      21.600  10.479   4.315  0.00  0.00     0.243 C 
HETATM   96  O   UNK N   1      22.616  10.598   3.650  0.00  0.00    -0.271 OA
BRANCH  95  97
HETATM   97  C   UNK N   1      21.700   9.903   5.720  0.00  0.00     0.179 C 
HETATM   98  C   UNK N   1      22.229   8.480   5.639  0.00  0.00     0.037 C 
HETATM   99  C   UNK N   1      23.275   8.339   6.734  0.00  0.00     0.022 C 
HETATM  100  C   UNK N   1      23.667   9.748   7.125  0.00  0.00     0.127 C 
HETATM  101  N   UNK N   1      22.626  10.590   6.607  0.00  0.00    -0.337 N 
HETATM  102  C   UNK N   1      22.480  11.889   7.026  0.00  0.00     0.243 C 
HETATM  103  O   UNK N   1      21.564  12.574   6.593  0.00  0.00    -0.271 OA
BRANCH 102 104
HETATM  104  C   UNK N   1      23.436  12.474   8.063  0.00  0.00     0.177 C 
BRANCH 104 105
HETATM  105  C   UNK N   1      23.827  13.931   7.788  0.00  0.00     0.045 C 
BRANCH 105 106
HETATM  106  C   UNK N   1      25.340  14.054   7.642  0.00  0.00     0.112 C 
BRANCH 106 107
HETATM  107  C   UNK N   1      25.726  15.265   6.857  0.00  0.00     0.139 C 
HETATM  108  O   UNK N   1      26.904  15.500   6.643  0.00  0.00    -0.650 OA
BRANCH 107 109
HETATM  109  O   UNK N   1      24.779  16.084   6.360  0.00  0.00    -0.776 OA
HETATM  110  H   UNK N   1      24.439  16.825   6.820  0.00  0.00     0.167 HD
ENDBRANCH 107 109
ENDBRANCH 106 107
ENDBRANCH 105 106
ENDBRANCH 104 105
BRANCH 104 111
HETATM  111  N   UNK N   1      22.808  12.370   9.366  0.00  0.00    -0.346 N 
HETATM  112  C   UNK N   1      23.479  12.137  10.520  0.00  0.00     0.235 C 
HETATM  113  O   UNK N   1      24.698  12.038  10.526  0.00  0.00    -0.272 OA
HETATM  114  H   UNK N   1      21.830  12.475   9.416  0.00  0.00     0.163 HD
BRANCH 112 115
HETATM  115  C   UNK N   1      22.695  11.968  11.789  0.00  0.00     0.214 C 
BRANCH 115 116
HETATM  116  N   UNK N   1      21.267  11.890  11.529  0.00  0.00    -0.422 N 
HETATM  117  H   UNK N   1      20.791  11.393  10.776  0.00  0.00     0.150 HD
HETATM  118  H   UNK N   1      20.665  12.394  12.182  0.00  0.00     0.150 HD
ENDBRANCH 115 116
ENDBRANCH 112 115
ENDBRANCH 104 111
ENDBRANCH 102 104
ENDBRANCH  95  97
ENDBRANCH  88  90
ENDBRANCH  80  83
ENDBRANCH  78  79
ENDBRANCH  75  78
ENDBRANCH  66  74
ENDBRANCH   6  66
TORSDOF 45
ENDMDL
MODEL 9
REMARK VINA RESULT:      -6.7      2.500      4.670
REMARK WARNING: 32 MAX_TORS EXCEEDED!!!
REMARK  45 active torsions:
REMARK  status: ('A' for Active; 'I' for Inactive)
REMARK    1  A    between atoms: C_2  and  C_3 
REMARK    2  A    between atoms: C_2  and  N_46 
REMARK       I    between atoms: C_3  and  N_5 
REMARK    3  A    between atoms: C_6  and  N_5 
REMARK    4  A    between atoms: C_6  and  C_7 
REMARK    5  A    between atoms: C_6  and  C_11 
REMARK    6  A    between atoms: C_7  and  C_8 
REMARK    7  A    between atoms: C_8  and  O_10 
REMARK       I    between atoms: C_11  and  N_13 
REMARK    8  A    between atoms: C_14  and  N_13 
REMARK    9  A    between atoms: C_14  and  C_15 
REMARK   10  A    between atoms: C_14  and  C_19 
REMARK   11  A    between atoms: C_15  and  C_16 
REMARK   12  A    between atoms: C_16  and  O_18 
REMARK       I    between atoms: C_19  and  N_21 
REMARK   13  A    between atoms: N_21  and  C_22 
REMARK   14  A    between atoms: C_22  and  C_24 
REMARK       I    between atoms: C_24  and  N_26 
REMARK   15  A    between atoms: N_26  and  C_27 
REMARK   16  A    between atoms: C_27  and  C_28 
REMARK       I    between atoms: C_28  and  N_30 
REMARK   17  A    between atoms: C_31  and  N_30 
REMARK   18  A    between atoms: C_31  and  C_32 
REMARK   19  A    between atoms: C_31  and  C_36 
REMARK   20  A    between atoms: C_32  and  C_33 
REMARK       I    between atoms: C_36  and  N_38 
REMARK   21  A    between atoms: C_39  and  N_38 
REMARK   22  A    between atoms: C_39  and  C_40 
REMARK   23  A    between atoms: C_39  and  C_43 
REMARK   24  A    between atoms: C_43  and  O_45 
REMARK       I    between atoms: N_46  and  C_47 
REMARK   25  A    between atoms: C_49  and  C_47 
REMARK       I    between atoms: N_53  and  C_54 
REMARK   26  A    between atoms: C_54  and  C_56 
REMARK   27  A    between atoms: C_56  and  C_57 
REMARK   28  A    between atoms: C_56  and  N_62 
REMARK   29  A    between atoms: C_57  and  C_58 
REMARK   30  A    between atoms: C_58  and  C_59 
REMARK   31  A    between atoms: C_59  and  C_60 
REMARK   32  A    between atoms: C_60  and  N_61 
REMARK       I    between atoms: N_62  and  C_63 
REMARK   33  A    between atoms: C_63  and  C_65 
REMARK   34  A    between atoms: C_65  and  N_66 
REMARK       I    between atoms: N_66  and  C_67 
REMARK   35  A    between atoms: C_69  and  C_67 
REMARK       I    between atoms: N_73  and  C_74 
REMARK   36  A    between atoms: C_76  and  C_74 
REMARK       I    between atoms: N_80  and  C_81 
REMARK   37  A    between atoms: C_83  and  C_81 
REMARK       I    between atoms: N_87  and  C_88 
REMARK   38  A    between atoms: C_88  and  C_90 
REMARK   39  A    between atoms: C_90  and  C_91 
REMARK   40  A    between atoms: C_90  and  N_96 
REMARK   41  A    between atoms: C_91  and  C_92 
REMARK   42  A    between atoms: C_92  and  C_93 
REMARK   43  A    between atoms: C_93  and  O_95 
REMARK       I    between atoms: N_96  and  C_97 
REMARK   44  A    between atoms: C_97  and  C_99 
REMARK   45  A    between atoms: C_99  and  N_100 
ROOT
HETATM    1  C   UNK N   1      30.999  13.793   3.430  0.00  0.00     0.179 C 
HETATM    2  C   UNK N   1      32.424  13.448   3.058  0.00  0.00     0.037 C 
HETATM    3  C   UNK N   1      32.331  12.833   1.662  0.00  0.00     0.022 C 
HETATM    4  C   UNK N   1      30.906  12.311   1.523  0.00  0.00     0.127 C 
HETATM    5  N   UNK N   1      30.183  12.992   2.550  0.00  0.00    -0.337 N 
HETATM    6  C   UNK N   1      28.832  12.968   2.634  0.00  0.00     0.243 C 
HETATM    7  O   UNK N   1      28.179  12.180   1.955  0.00  0.00    -0.271 OA
ENDROOT
BRANCH   1   8
HETATM    8  C   UNK N   1      30.715  13.574   4.910  0.00  0.00     0.241 C 
HETATM    9  N   UNK N   1      30.666  14.572   5.841  0.00  0.00    -0.346 N 
HETATM   10  H   UNK N   1      30.606  14.277   6.778  0.00  0.00     0.163 HD
HETATM   11  O   UNK N   1      30.614  12.421   5.299  0.00  0.00    -0.271 OA
BRANCH   9  12
HETATM   12  C   UNK N   1      30.691  16.005   5.637  0.00  0.00     0.172 C 
HETATM   13  C   UNK N   1      31.997  16.429   4.990  0.00  0.00     0.042 C 
BRANCH  12  14
HETATM   14  C   UNK N   1      30.461  16.754   6.916  0.00  0.00     0.240 C 
HETATM   15  O   UNK N   1      29.485  17.470   6.986  0.00  0.00    -0.271 OA
HETATM   16  N   UNK N   1      31.284  16.742   7.984  0.00  0.00    -0.346 N 
HETATM   17  H   UNK N   1      30.854  17.059   8.811  0.00  0.00     0.163 HD
BRANCH  16  18
HETATM   18  C   UNK N   1      32.670  16.359   8.168  0.00  0.00     0.186 C 
BRANCH  18  19
HETATM   19  C   UNK N   1      33.312  17.575   8.848  0.00  0.00     0.144 C 
BRANCH  19  20
HETATM   20  C   UNK N   1      34.306  18.320   7.966  0.00  0.00     0.141 C 
HETATM   21  O   UNK N   1      34.298  18.166   6.755  0.00  0.00    -0.650 OA
BRANCH  20  22
HETATM   22  O   UNK N   1      35.252  19.093   8.532  0.00  0.00    -0.776 OA
HETATM   23  H   UNK N   1      35.372  20.019   8.612  0.00  0.00     0.167 HD
ENDBRANCH  20  22
ENDBRANCH  19  20
ENDBRANCH  18  19
BRANCH  18  24
HETATM   24  C   UNK N   1      32.965  14.971   8.768  0.00  0.00     0.241 C 
HETATM   25  O   UNK N   1      32.082  14.146   8.780  0.00  0.00    -0.271 OA
HETATM   26  N   UNK N   1      34.190  14.533   9.147  0.00  0.00    -0.345 N 
HETATM   27  H   UNK N   1      34.217  13.654   9.589  0.00  0.00     0.163 HD
BRANCH  26  28
HETATM   28  C   UNK N   1      35.450  15.195   8.982  0.00  0.00     0.186 C 
BRANCH  28  29
HETATM   29  C   UNK N   1      36.407  14.270   8.240  0.00  0.00     0.144 C 
BRANCH  29  30
HETATM   30  C   UNK N   1      36.188  14.365   6.759  0.00  0.00     0.141 C 
HETATM   31  O   UNK N   1      35.631  15.343   6.288  0.00  0.00    -0.650 OA
BRANCH  30  32
HETATM   32  O   UNK N   1      36.605  13.377   5.945  0.00  0.00    -0.776 OA
HETATM   33  H   UNK N   1      36.696  12.505   6.276  0.00  0.00     0.167 HD
ENDBRANCH  30  32
ENDBRANCH  29  30
ENDBRANCH  28  29
BRANCH  28  34
HETATM   34  C   UNK N   1      36.010  15.668  10.295  0.00  0.00     0.241 C 
HETATM   35  O   UNK N   1      36.119  16.862  10.526  0.00  0.00    -0.271 OA
HETATM   36  N   UNK N   1      36.432  14.762  11.214  0.00  0.00    -0.346 N 
HETATM   37  H   UNK N   1      36.898  15.073  12.023  0.00  0.00     0.163 HD
BRANCH  36  38
HETATM   38  C   UNK N   1      36.208  13.341  11.023  0.00  0.00     0.172 C 
HETATM   39  C   UNK N   1      37.477  12.524  11.163  0.00  0.00     0.042 C 
BRANCH  38  40
HETATM   40  C   UNK N   1      35.067  12.816  11.874  0.00  0.00     0.240 C 
HETATM   41  O   UNK N   1      34.924  13.276  12.994  0.00  0.00    -0.271 OA
HETATM   42  N   UNK N   1      34.248  11.801  11.466  0.00  0.00    -0.351 N 
HETATM   43  H   UNK N   1      33.633  11.409  12.128  0.00  0.00     0.163 HD
BRANCH  42  44
HETATM   44  C   UNK N   1      34.229  11.265  10.117  0.00  0.00     0.225 C 
BRANCH  44  45
HETATM   45  C   UNK N   1      33.920   9.821  10.250  0.00  0.00     0.236 C 
HETATM   46  O   UNK N   1      32.774   9.461  10.459  0.00  0.00    -0.272 OA
HETATM   47  N   UNK N   1      34.949   8.999  10.501  0.00  0.00    -0.346 N 
HETATM   48  H   UNK N   1      35.595   8.803   9.785  0.00  0.00     0.163 HD
BRANCH  47  49
HETATM   49  C   UNK N   1      35.129   8.396  11.797  0.00  0.00     0.177 C 
BRANCH  49  50
HETATM   50  C   UNK N   1      35.482   6.903  11.685  0.00  0.00     0.038 C 
BRANCH  50  51
HETATM   51  C   UNK N   1      34.992   6.042  12.836  0.00  0.00    -0.020 C 
HETATM   52  C   UNK N   1      34.520   4.704  12.295  0.00  0.00     0.009 C 
HETATM   53  C   UNK N   1      36.144   5.793  13.782  0.00  0.00     0.009 C 
ENDBRANCH  50  51
ENDBRANCH  49  50
BRANCH  49  54
HETATM   54  C   UNK N   1      36.281   9.173  12.376  0.00  0.00     0.241 C 
HETATM   55  O   UNK N   1      37.424   8.775  12.197  0.00  0.00    -0.271 OA
HETATM   56  N   UNK N   1      36.006  10.081  13.333  0.00  0.00    -0.345 N 
HETATM   57  H   UNK N   1      35.258  10.701  13.179  0.00  0.00     0.163 HD
BRANCH  56  58
HETATM   58  C   UNK N   1      36.741  10.204  14.571  0.00  0.00     0.185 C 
BRANCH  58  59
HETATM   59  C   UNK N   1      35.718  10.253  15.714  0.00  0.00     0.010 C 
HETATM   60  C   UNK N   1      35.726   8.955  16.493  0.00  0.00     0.012 C 
HETATM   61  C   UNK N   1      34.303  10.455  15.176  0.00  0.00     0.012 C 
ENDBRANCH  58  59
BRANCH  58  62
HETATM   62  C   UNK N   1      37.785  11.295  14.602  0.00  0.00     0.163 C 
HETATM   63  O   UNK N   1      38.971  11.008  14.626  0.00  0.00    -0.648 OA
BRANCH  62  64
HETATM   64  O   UNK N   1      37.419  12.586  14.708  0.00  0.00    -0.775 OA
HETATM   65  H   UNK N   1      36.538  12.875  14.568  0.00  0.00     0.167 HD
ENDBRANCH  62  64
ENDBRANCH  58  62
ENDBRANCH  56  58
ENDBRANCH  49  54
ENDBRANCH  47  49
ENDBRANCH  44  45
ENDBRANCH  42  44
ENDBRANCH  38  40
ENDBRANCH  36  38
ENDBRANCH  28  34
ENDBRANCH  26  28
ENDBRANCH  18  24
ENDBRANCH  16  18
ENDBRANCH  12  14
ENDBRANCH   9  12
ENDBRANCH   1   8
BRANCH   6  66
HETATM   66  C   UNK N   1      28.145  13.990   3.475  0.00  0.00     0.176 C 
BRANCH  66  67
HETATM   67  C   UNK N   1      28.421  15.345   2.790  0.00  0.00     0.035 C 
BRANCH  67  68
HETATM   68  C   UNK N   1      27.289  16.347   3.062  0.00  0.00     0.004 C 
BRANCH  68  69
HETATM   69  C   UNK N   1      27.749  17.552   3.863  0.00  0.00     0.019 C 
BRANCH  69  70
HETATM   70  C   UNK N   1      26.726  17.915   4.923  0.00  0.00     0.111 C 
BRANCH  70  71
HETATM   71  N   UNK N   1      26.663  16.862   5.922  0.00  0.00    -0.430 N 
HETATM   72  H   UNK N   1      25.790  16.647   6.401  0.00  0.00     0.149 HD
HETATM   73  H   UNK N   1      27.504  16.330   6.145  0.00  0.00     0.149 HD
ENDBRANCH  70  71
ENDBRANCH  69  70
ENDBRANCH  68  69
ENDBRANCH  67  68
ENDBRANCH  66  67
BRANCH  66  74
HETATM   74  N   UNK N   1      26.733  13.777   3.549  0.00  0.00    -0.346 N 
HETATM   75  C   UNK N   1      26.114  13.684   4.739  0.00  0.00     0.236 C 
HETATM   76  O   UNK N   1      26.752  13.634   5.785  0.00  0.00    -0.272 OA
HETATM   77  H   UNK N   1      26.209  13.698   2.720  0.00  0.00     0.163 HD
BRANCH  75  78
HETATM   78  C   UNK N   1      24.665  13.893   4.774  0.00  0.00     0.225 C 
BRANCH  78  79
HETATM   79  N   UNK N   1      24.209  13.246   5.973  0.00  0.00    -0.351 N 
HETATM   80  C   UNK N   1      23.057  12.527   6.066  0.00  0.00     0.241 C 
HETATM   81  O   UNK N   1      22.372  12.327   5.073  0.00  0.00    -0.271 OA
HETATM   82  H   UNK N   1      24.765  13.327   6.780  0.00  0.00     0.163 HD
BRANCH  80  83
HETATM   83  C   UNK N   1      22.688  11.907   7.408  0.00  0.00     0.179 C 
HETATM   84  C   UNK N   1      23.894  11.274   8.085  0.00  0.00     0.037 C 
HETATM   85  C   UNK N   1      24.421  12.329   9.059  0.00  0.00     0.022 C 
HETATM   86  C   UNK N   1      23.314  13.363   9.229  0.00  0.00     0.127 C 
HETATM   87  N   UNK N   1      22.313  12.987   8.269  0.00  0.00    -0.337 N 
HETATM   88  C   UNK N   1      21.157  13.682   8.063  0.00  0.00     0.243 C 
HETATM   89  O   UNK N   1      20.312  13.219   7.296  0.00  0.00    -0.271 OA
BRANCH  88  90
HETATM   90  C   UNK N   1      20.933  15.053   8.643  0.00  0.00     0.179 C 
HETATM   91  C   UNK N   1      19.739  15.028   9.577  0.00  0.00     0.037 C 
HETATM   92  C   UNK N   1      18.752  16.064   9.047  0.00  0.00     0.022 C 
HETATM   93  C   UNK N   1      19.274  16.537   7.699  0.00  0.00     0.127 C 
HETATM   94  N   UNK N   1      20.591  15.988   7.593  0.00  0.00    -0.337 N 
HETATM   95  C   UNK N   1      21.453  16.302   6.563  0.00  0.00     0.243 C 
HETATM   96  O   UNK N   1      22.587  15.851   6.562  0.00  0.00    -0.271 OA
BRANCH  95  97
HETATM   97  C   UNK N   1      21.010  17.190   5.410  0.00  0.00     0.179 C 
HETATM   98  C   UNK N   1      21.594  18.581   5.599  0.00  0.00     0.037 C 
HETATM   99  C   UNK N   1      22.120  19.022   4.241  0.00  0.00     0.022 C 
HETATM  100  C   UNK N   1      22.255  17.762   3.413  0.00  0.00     0.127 C 
HETATM  101  N   UNK N   1      21.469  16.773   4.095  0.00  0.00    -0.337 N 
HETATM  102  C   UNK N   1      21.107  15.599   3.482  0.00  0.00     0.243 C 
HETATM  103  O   UNK N   1      20.409  14.788   4.073  0.00  0.00    -0.271 OA
BRANCH 102 104
HETATM  104  C   UNK N   1      21.538  15.318   2.044  0.00  0.00     0.177 C 
BRANCH 104 105
HETATM  105  C   UNK N   1      22.331  14.014   1.883  0.00  0.00     0.045 C 
BRANCH 105 106
HETATM  106  C   UNK N   1      22.174  13.472   0.467  0.00  0.00     0.112 C 
BRANCH 106 107
HETATM  107  C   UNK N   1      22.956  12.216   0.263  0.00  0.00     0.139 C 
HETATM  108  O   UNK N   1      23.592  12.057  -0.767  0.00  0.00    -0.650 OA
BRANCH 107 109
HETATM  109  O   UNK N   1      22.988  11.271   1.221  0.00  0.00    -0.776 OA
HETATM  110  H   UNK N   1      22.547  11.350   2.044  0.00  0.00     0.167 HD
ENDBRANCH 107 109
ENDBRANCH 106 107
ENDBRANCH 105 106
ENDBRANCH 104 105
BRANCH 104 111
HETATM  111  N   UNK N   1      20.349  15.278   1.214  0.00  0.00    -0.346 N 
HETATM  112  C   UNK N   1      19.943  16.293   0.415  0.00  0.00     0.235 C 
HETATM  113  O   UNK N   1      20.604  17.317   0.319  0.00  0.00    -0.272 OA
HETATM  114  H   UNK N   1      19.801  14.460   1.234  0.00  0.00     0.163 HD
BRANCH 112 115
HETATM  115  C   UNK N   1      18.646  16.152  -0.327  0.00  0.00     0.214 C 
BRANCH 115 116
HETATM  116  N   UNK N   1      17.949  14.930   0.041  0.00  0.00    -0.422 N 
HETATM  117  H   UNK N   1      17.121  14.523  -0.395  0.00  0.00     0.150 HD
HETATM  118  H   UNK N   1      18.336  14.415   0.833  0.00  0.00     0.150 HD
ENDBRANCH 115 116
ENDBRANCH 112 115
ENDBRANCH 104 111
ENDBRANCH 102 104
ENDBRANCH  95  97
ENDBRANCH  88  90
ENDBRANCH  80  83
ENDBRANCH  78  79
ENDBRANCH  75  78
ENDBRANCH  66  74
ENDBRANCH   6  66
TORSDOF 45
ENDMDL
