MODEL 1
REMARK VINA RESULT:      -8.3      0.000      0.000
REMARK  11 active torsions:
REMARK  status: ('A' for Active; 'I' for Inactive)
REMARK    1  A    between atoms: C_7  and  N_6 
REMARK    2  A    between atoms: C_9  and  O_35 
REMARK    3  A    between atoms: C_10  and  C_12 
REMARK    4  A    between atoms: C_12  and  O_13 
REMARK    5  A    between atoms: O_13  and  P_14 
REMARK    6  A    between atoms: P_14  and  O_16 
REMARK    7  A    between atoms: P_14  and  O_17 
REMARK    8  A    between atoms: C_18  and  O_17 
REMARK    9  A    between atoms: C_20  and  N_25 
REMARK   10  A    between atoms: C_22  and  C_23 
REMARK   11  A    between atoms: C_23  and  O_24 
REMARK       I    between atoms: C_29  and  N_34 
REMARK       I    between atoms: C_37  and  N_42 
ROOT
HETATM    1  O   UNK N   1      32.573  17.634   8.518  0.00  0.00    -0.294 OA
ENDROOT
BRANCH   1   2
HETATM    2  C   UNK N   1      31.733  17.435   7.434  0.00  0.00     0.215 C 
BRANCH   2   3
HETATM    3  C   UNK N   1      30.338  17.886   7.802  0.00  0.00     0.177 C 
HETATM    4  C   UNK N   1      30.046  18.102   9.262  0.00  0.00     0.153 C 
HETATM    5  C   UNK N   1      28.558  18.321   9.139  0.00  0.00     0.088 C 
HETATM    6  C   UNK N   1      28.189  17.601   7.834  0.00  0.00     0.233 C 
HETATM    7  O   UNK N   1      29.360  16.994   7.359  0.00  0.00    -0.356 OA
BRANCH   4   8
HETATM    8  O   UNK N   1      30.266  16.920   9.979  0.00  0.00    -0.393 OA
HETATM    9  H   UNK N   1      29.912  16.037   9.783  0.00  0.00     0.210 HD
ENDBRANCH   4   8
BRANCH   6  10
HETATM   10  N   UNK N   1      27.684  18.535   6.821  0.00  0.00    -0.299 N 
HETATM   11  C   UNK N   1      27.120  18.249   5.636  0.00  0.00     0.159 A 
HETATM   12  C   UNK N   1      26.775  19.390   5.016  0.00  0.00     0.147 A 
HETATM   13  N   UNK N   1      26.881  17.025   5.094  0.00  0.00    -0.174 N 
HETATM   14  N   UNK N   1      27.110  20.445   5.785  0.00  0.00    -0.345 N 
HETATM   15  C   UNK N   1      26.158  19.350   3.776  0.00  0.00     0.290 A 
HETATM   16  C   UNK N   1      27.664  19.890   6.900  0.00  0.00     0.188 A 
ATOM     17  HN  UNK N   1      26.978  21.435   5.580  1.00  0.00     0.167 HD
HETATM   18  N   UNK N   1      25.913  18.114   3.217  0.00  0.00    -0.154 N 
HETATM   19  O   UNK N   1      25.832  20.369   3.198  0.00  0.00    -0.265 OA
HETATM   20  C   UNK N   1      26.272  16.962   3.872  0.00  0.00     0.680 A 
ATOM     21  HN  UNK N   1      25.459  18.054   2.304  1.00  0.00     0.187 HD
HETATM   22  N   UNK N   1      26.004  15.709   3.286  0.00  0.00    -0.234 N 
HETATM   23  H   UNK N   1      25.469  15.651   2.461  0.00  0.00     0.174 HD
HETATM   24  H   UNK N   1      26.352  14.888   3.703  0.00  0.00     0.174 HD
HETATM   25  H   UNK N   1      27.142  16.203   5.571  0.00  0.00     0.186 HD
ENDBRANCH   6  10
ENDBRANCH   2   3
ENDBRANCH   1   2
BRANCH   1  26
HETATM   26  P   UNK N   1      34.190  17.802   7.890  0.00  0.00     0.393 P 
HETATM   27  O   UNK N   1      34.130  17.871   6.340  0.00  0.00    -0.631 OA
BRANCH  26  28
HETATM   28  O   UNK N   1      35.081  19.179   8.463  0.00  0.00    -0.307 OA
HETATM   29  H   UNK N   1      34.825  19.667   9.261  0.00  0.00     0.222 HD
ENDBRANCH  26  28
BRANCH  26  30
HETATM   30  O   UNK N   1      35.043  16.356   8.320  0.00  0.00    -0.289 OA
BRANCH  30  31
HETATM   31  C   UNK N   1      34.413  15.679   9.387  0.00  0.00     0.169 C 
HETATM   32  C   UNK N   1      35.247  15.412  10.634  0.00  0.00     0.089 C 
HETATM   33  C   UNK N   1      35.665  13.985  10.438  0.00  0.00     0.236 C 
HETATM   34  O   UNK N   1      34.565  13.357   9.838  0.00  0.00    -0.356 OA
HETATM   35  C   UNK N   1      34.177  14.283   8.862  0.00  0.00     0.177 C 
BRANCH  33  36
HETATM   36  N   UNK N   1      36.096  13.364  11.705  0.00  0.00    -0.267 N 
HETATM   37  C   UNK N   1      35.259  13.463  12.778  0.00  0.00     0.207 A 
HETATM   38  N   UNK N   1      35.604  12.937  13.980  0.00  0.00    -0.188 N 
HETATM   39  C   UNK N   1      36.794  12.310  14.137  0.00  0.00     0.680 A 
ATOM     40  HN  UNK N   1      34.964  13.015  14.771  1.00  0.00     0.185 HD
HETATM   41  N   UNK N   1      37.643  12.199  13.090  0.00  0.00    -0.141 N 
HETATM   42  N   UNK N   1      37.152  11.779  15.391  0.00  0.00    -0.234 N 
HETATM   43  C   UNK N   1      37.310  12.718  11.870  0.00  0.00     0.343 A 
ATOM     44  HN  UNK N   1      38.539  11.725  13.211  1.00  0.00     0.189 HD
HETATM   45  O   UNK N   1      38.097  12.611  10.948  0.00  0.00    -0.246 OA
HETATM   46  H   UNK N   1      38.028  11.346  15.515  0.00  0.00     0.174 HD
HETATM   47  H   UNK N   1      36.525  11.841  16.146  0.00  0.00     0.174 HD
ENDBRANCH  33  36
BRANCH  35  48
HETATM   48  C   UNK N   1      32.734  14.121   8.436  0.00  0.00     0.198 C 
BRANCH  48  49
HETATM   49  O   UNK N   1      31.896  14.640   9.427  0.00  0.00    -0.398 OA
HETATM   50  H   UNK N   1      32.238  15.291  10.059  0.00  0.00     0.209 HD
ENDBRANCH  48  49
ENDBRANCH  35  48
ENDBRANCH  30  31
ENDBRANCH  26  30
ENDBRANCH   1  26
TORSDOF 11
ENDMDL
MODEL 2
REMARK VINA RESULT:      -8.2      3.676     12.162
REMARK  11 active torsions:
REMARK  status: ('A' for Active; 'I' for Inactive)
REMARK    1  A    between atoms: C_7  and  N_6 
REMARK    2  A    between atoms: C_9  and  O_35 
REMARK    3  A    between atoms: C_10  and  C_12 
REMARK    4  A    between atoms: C_12  and  O_13 
REMARK    5  A    between atoms: O_13  and  P_14 
REMARK    6  A    between atoms: P_14  and  O_16 
REMARK    7  A    between atoms: P_14  and  O_17 
REMARK    8  A    between atoms: C_18  and  O_17 
REMARK    9  A    between atoms: C_20  and  N_25 
REMARK   10  A    between atoms: C_22  and  C_23 
REMARK   11  A    between atoms: C_23  and  O_24 
REMARK       I    between atoms: C_29  and  N_34 
REMARK       I    between atoms: C_37  and  N_42 
ROOT
HETATM    1  O   UNK N   1      29.089  16.498   5.105  0.00  0.00    -0.294 OA
ENDROOT
BRANCH   1   2
HETATM    2  C   UNK N   1      29.893  15.995   6.115  0.00  0.00     0.215 C 
BRANCH   2   3
HETATM    3  C   UNK N   1      31.285  16.567   5.968  0.00  0.00     0.177 C 
HETATM    4  C   UNK N   1      31.578  17.355   4.720  0.00  0.00     0.153 C 
HETATM    5  C   UNK N   1      33.063  17.517   4.929  0.00  0.00     0.088 C 
HETATM    6  C   UNK N   1      33.436  16.335   5.836  0.00  0.00     0.233 C 
HETATM    7  O   UNK N   1      32.270  15.579   6.020  0.00  0.00    -0.356 OA
BRANCH   4   8
HETATM    8  O   UNK N   1      31.371  16.560   3.586  0.00  0.00    -0.393 OA
HETATM    9  H   UNK N   1      31.369  16.845   2.658  0.00  0.00     0.210 HD
ENDBRANCH   4   8
BRANCH   6  10
HETATM   10  N   UNK N   1      33.931  16.786   7.142  0.00  0.00    -0.299 N 
HETATM   11  C   UNK N   1      34.104  16.061   8.260  0.00  0.00     0.159 A 
HETATM   12  C   UNK N   1      34.597  16.847   9.232  0.00  0.00     0.147 A 
HETATM   13  N   UNK N   1      33.863  14.737   8.446  0.00  0.00    -0.174 N 
HETATM   14  N   UNK N   1      34.754  18.102   8.767  0.00  0.00    -0.345 N 
HETATM   15  C   UNK N   1      34.874  16.317  10.482  0.00  0.00     0.290 A 
HETATM   16  C   UNK N   1      34.341  18.038   7.469  0.00  0.00     0.188 A 
ATOM     17  HN  UNK N   1      35.102  18.917   9.272  1.00  0.00     0.167 HD
HETATM   18  N   UNK N   1      34.631  14.974  10.682  0.00  0.00    -0.154 N 
HETATM   19  O   UNK N   1      35.325  17.006  11.376  0.00  0.00    -0.265 OA
HETATM   20  C   UNK N   1      34.130  14.192   9.671  0.00  0.00     0.680 A 
ATOM     21  HN  UNK N   1      34.827  14.557  11.593  1.00  0.00     0.187 HD
HETATM   22  N   UNK N   1      33.899  12.820   9.894  0.00  0.00    -0.234 N 
HETATM   23  H   UNK N   1      34.191  12.398  10.735  0.00  0.00     0.174 HD
HETATM   24  H   UNK N   1      33.445  12.281   9.208  0.00  0.00     0.174 HD
HETATM   25  H   UNK N   1      33.504  14.182   7.715  0.00  0.00     0.186 HD
ENDBRANCH   6  10
ENDBRANCH   2   3
ENDBRANCH   1   2
BRANCH   1  26
HETATM   26  P   UNK N   1      27.637  17.101   5.858  0.00  0.00     0.393 P 
HETATM   27  O   UNK N   1      26.683  15.912   6.152  0.00  0.00    -0.631 OA
BRANCH  26  28
HETATM   28  O   UNK N   1      27.867  17.992   7.331  0.00  0.00    -0.307 OA
HETATM   29  H   UNK N   1      28.089  18.937   7.337  0.00  0.00     0.222 HD
ENDBRANCH  26  28
BRANCH  26  30
HETATM   30  O   UNK N   1      26.861  18.123   4.693  0.00  0.00    -0.289 OA
BRANCH  30  31
HETATM   31  C   UNK N   1      25.691  18.713   5.218  0.00  0.00     0.169 C 
HETATM   32  C   UNK N   1      24.355  18.212   4.682  0.00  0.00     0.089 C 
HETATM   33  C   UNK N   1      24.006  19.259   3.667  0.00  0.00     0.236 C 
HETATM   34  O   UNK N   1      24.453  20.469   4.216  0.00  0.00    -0.356 OA
HETATM   35  C   UNK N   1      25.721  20.133   4.707  0.00  0.00     0.177 C 
BRANCH  33  36
HETATM   36  N   UNK N   1      22.568  19.242   3.338  0.00  0.00    -0.267 N 
HETATM   37  C   UNK N   1      21.891  18.071   3.508  0.00  0.00     0.207 A 
HETATM   38  N   UNK N   1      20.573  17.978   3.200  0.00  0.00    -0.188 N 
HETATM   39  C   UNK N   1      19.907  19.051   2.709  0.00  0.00     0.680 A 
ATOM     40  HN  UNK N   1      20.080  17.095   3.339  1.00  0.00     0.185 HD
HETATM   41  N   UNK N   1      20.555  20.224   2.529  0.00  0.00    -0.141 N 
HETATM   42  N   UNK N   1      18.543  18.944   2.379  0.00  0.00    -0.234 N 
HETATM   43  C   UNK N   1      21.882  20.337   2.839  0.00  0.00     0.343 A 
ATOM     44  HN  UNK N   1      20.051  21.031   2.160  1.00  0.00     0.189 HD
HETATM   45  O   UNK N   1      22.441  21.403   2.659  0.00  0.00    -0.246 OA
HETATM   46  H   UNK N   1      18.063  19.714   1.996  0.00  0.00     0.174 HD
HETATM   47  H   UNK N   1      18.067  18.096   2.529  0.00  0.00     0.174 HD
ENDBRANCH  33  36
BRANCH  35  48
HETATM   48  C   UNK N   1      26.199  21.072   5.794  0.00  0.00     0.198 C 
BRANCH  48  49
HETATM   49  O   UNK N   1      26.281  20.376   7.004  0.00  0.00    -0.398 OA
HETATM   50  H   UNK N   1      26.991  19.731   7.146  0.00  0.00     0.209 HD
ENDBRANCH  48  49
ENDBRANCH  35  48
ENDBRANCH  30  31
ENDBRANCH  26  30
ENDBRANCH   1  26
TORSDOF 11
ENDMDL
MODEL 3
REMARK VINA RESULT:      -8.1      1.162      1.912
REMARK  11 active torsions:
REMARK  status: ('A' for Active; 'I' for Inactive)
REMARK    1  A    between atoms: C_7  and  N_6 
REMARK    2  A    between atoms: C_9  and  O_35 
REMARK    3  A    between atoms: C_10  and  C_12 
REMARK    4  A    between atoms: C_12  and  O_13 
REMARK    5  A    between atoms: O_13  and  P_14 
REMARK    6  A    between atoms: P_14  and  O_16 
REMARK    7  A    between atoms: P_14  and  O_17 
REMARK    8  A    between atoms: C_18  and  O_17 
REMARK    9  A    between atoms: C_20  and  N_25 
REMARK   10  A    between atoms: C_22  and  C_23 
REMARK   11  A    between atoms: C_23  and  O_24 
REMARK       I    between atoms: C_29  and  N_34 
REMARK       I    between atoms: C_37  and  N_42 
ROOT
HETATM    1  O   UNK N   1      32.685  17.513   8.699  0.00  0.00    -0.294 OA
ENDROOT
BRANCH   1   2
HETATM    2  C   UNK N   1      31.942  18.662   8.476  0.00  0.00     0.215 C 
BRANCH   2   3
HETATM    3  C   UNK N   1      30.518  18.273   8.153  0.00  0.00     0.177 C 
HETATM    4  C   UNK N   1      29.601  17.988   9.313  0.00  0.00     0.153 C 
HETATM    5  C   UNK N   1      28.429  17.467   8.519  0.00  0.00     0.088 C 
HETATM    6  C   UNK N   1      29.064  16.969   7.212  0.00  0.00     0.233 C 
HETATM    7  O   UNK N   1      30.449  17.139   7.342  0.00  0.00    -0.356 OA
BRANCH   4   8
HETATM    8  O   UNK N   1      30.116  16.941  10.089  0.00  0.00    -0.393 OA
HETATM    9  H   UNK N   1      30.696  17.012  10.863  0.00  0.00     0.210 HD
ENDBRANCH   4   8
BRANCH   6  10
HETATM   10  N   UNK N   1      28.590  17.731   6.051  0.00  0.00    -0.299 N 
HETATM   11  C   UNK N   1      27.800  18.818   6.037  0.00  0.00     0.159 A 
HETATM   12  C   UNK N   1      27.619  19.224   4.770  0.00  0.00     0.147 A 
HETATM   13  N   UNK N   1      27.254  19.471   7.097  0.00  0.00    -0.174 N 
HETATM   14  N   UNK N   1      28.286  18.407   3.930  0.00  0.00    -0.345 N 
HETATM   15  C   UNK N   1      26.847  20.342   4.501  0.00  0.00     0.290 A 
HETATM   16  C   UNK N   1      28.885  17.495   4.747  0.00  0.00     0.188 A 
ATOM     17  HN  UNK N   1      28.333  18.460   2.913  1.00  0.00     0.167 HD
HETATM   18  N   UNK N   1      26.287  21.012   5.568  0.00  0.00    -0.154 N 
HETATM   19  O   UNK N   1      26.672  20.733   3.363  0.00  0.00    -0.265 OA
HETATM   20  C   UNK N   1      26.490  20.579   6.855  0.00  0.00     0.680 A 
ATOM     21  HN  UNK N   1      25.714  21.840   5.400  1.00  0.00     0.187 HD
HETATM   22  N   UNK N   1      25.917  21.284   7.932  0.00  0.00    -0.234 N 
HETATM   23  H   UNK N   1      25.459  22.141   7.776  0.00  0.00     0.174 HD
HETATM   24  H   UNK N   1      25.974  20.918   8.844  0.00  0.00     0.174 HD
HETATM   25  H   UNK N   1      27.405  19.154   8.017  0.00  0.00     0.186 HD
ENDBRANCH   6  10
ENDBRANCH   2   3
ENDBRANCH   1   2
BRANCH   1  26
HETATM   26  P   UNK N   1      34.234  17.747   7.936  0.00  0.00     0.393 P 
HETATM   27  O   UNK N   1      34.025  17.961   6.412  0.00  0.00    -0.631 OA
BRANCH  26  28
HETATM   28  O   UNK N   1      35.183  19.068   8.547  0.00  0.00    -0.307 OA
HETATM   29  H   UNK N   1      36.088  18.948   8.875  0.00  0.00     0.222 HD
ENDBRANCH  26  28
BRANCH  26  30
HETATM   30  O   UNK N   1      35.118  16.271   8.144  0.00  0.00    -0.289 OA
BRANCH  30  31
HETATM   31  C   UNK N   1      34.476  15.405   9.056  0.00  0.00     0.169 C 
HETATM   32  C   UNK N   1      35.140  15.202  10.412  0.00  0.00     0.089 C 
HETATM   33  C   UNK N   1      35.860  13.900  10.223  0.00  0.00     0.236 C 
HETATM   34  O   UNK N   1      35.015  13.124   9.416  0.00  0.00    -0.356 OA
HETATM   35  C   UNK N   1      34.609  14.036   8.434  0.00  0.00     0.177 C 
BRANCH  33  36
HETATM   36  N   UNK N   1      36.202  13.273  11.514  0.00  0.00    -0.267 N 
HETATM   37  C   UNK N   1      35.261  13.300  12.502  0.00  0.00     0.207 A 
HETATM   38  N   UNK N   1      35.519  12.765  13.722  0.00  0.00    -0.188 N 
HETATM   39  C   UNK N   1      36.722  12.200  13.982  0.00  0.00     0.680 A 
ATOM     40  HN  UNK N   1      34.802  12.788  14.448  1.00  0.00     0.185 HD
HETATM   41  N   UNK N   1      37.673  12.162  13.021  0.00  0.00    -0.141 N 
HETATM   42  N   UNK N   1      36.988  11.660  15.255  0.00  0.00    -0.234 N 
HETATM   43  C   UNK N   1      37.429  12.692  11.785  0.00  0.00     0.343 A 
ATOM     44  HN  UNK N   1      38.578  11.735  13.219  1.00  0.00     0.189 HD
HETATM   45  O   UNK N   1      38.306  12.650  10.941  0.00  0.00    -0.246 OA
HETATM   46  H   UNK N   1      37.871  11.273  15.455  0.00  0.00     0.174 HD
HETATM   47  H   UNK N   1      36.288  11.669  15.947  0.00  0.00     0.174 HD
ENDBRANCH  33  36
BRANCH  35  48
HETATM   48  C   UNK N   1      33.311  13.637   7.762  0.00  0.00     0.198 C 
BRANCH  48  49
HETATM   49  O   UNK N   1      32.377  14.666   7.912  0.00  0.00    -0.398 OA
HETATM   50  H   UNK N   1      31.629  14.558   8.519  0.00  0.00     0.209 HD
ENDBRANCH  48  49
ENDBRANCH  35  48
ENDBRANCH  30  31
ENDBRANCH  26  30
ENDBRANCH   1  26
TORSDOF 11
ENDMDL
MODEL 4
REMARK VINA RESULT:      -8.1      7.272     12.298
REMARK  11 active torsions:
REMARK  status: ('A' for Active; 'I' for Inactive)
REMARK    1  A    between atoms: C_7  and  N_6 
REMARK    2  A    between atoms: C_9  and  O_35 
REMARK    3  A    between atoms: C_10  and  C_12 
REMARK    4  A    between atoms: C_12  and  O_13 
REMARK    5  A    between atoms: O_13  and  P_14 
REMARK    6  A    between atoms: P_14  and  O_16 
REMARK    7  A    between atoms: P_14  and  O_17 
REMARK    8  A    between atoms: C_18  and  O_17 
REMARK    9  A    between atoms: C_20  and  N_25 
REMARK   10  A    between atoms: C_22  and  C_23 
REMARK   11  A    between atoms: C_23  and  O_24 
REMARK       I    between atoms: C_29  and  N_34 
REMARK       I    between atoms: C_37  and  N_42 
ROOT
HETATM    1  O   UNK N   1      24.615  13.687   5.383  0.00  0.00    -0.294 OA
ENDROOT
BRANCH   1   2
HETATM    2  C   UNK N   1      25.703  14.344   5.934  0.00  0.00     0.215 C 
BRANCH   2   3
HETATM    3  C   UNK N   1      26.231  15.348   4.935  0.00  0.00     0.177 C 
HETATM    4  C   UNK N   1      26.322  14.910   3.498  0.00  0.00     0.153 C 
HETATM    5  C   UNK N   1      27.062  16.112   2.967  0.00  0.00     0.088 C 
HETATM    6  C   UNK N   1      27.783  16.672   4.202  0.00  0.00     0.233 C 
HETATM    7  O   UNK N   1      27.511  15.799   5.264  0.00  0.00    -0.356 OA
BRANCH   4   8
HETATM    8  O   UNK N   1      27.153  13.788   3.387  0.00  0.00    -0.393 OA
HETATM    9  H   UNK N   1      27.279  13.223   2.608  0.00  0.00     0.210 HD
ENDBRANCH   4   8
BRANCH   6  10
HETATM   10  N   UNK N   1      27.307  18.017   4.548  0.00  0.00    -0.299 N 
HETATM   11  C   UNK N   1      27.320  18.619   5.748  0.00  0.00     0.159 A 
HETATM   12  C   UNK N   1      26.812  19.858   5.634  0.00  0.00     0.147 A 
HETATM   13  N   UNK N   1      27.781  18.127   6.928  0.00  0.00    -0.174 N 
HETATM   14  N   UNK N   1      26.454  20.087   4.355  0.00  0.00    -0.345 N 
HETATM   15  C   UNK N   1      26.736  20.684   6.743  0.00  0.00     0.290 A 
HETATM   16  C   UNK N   1      26.777  18.935   3.700  0.00  0.00     0.188 A 
ATOM     17  HN  UNK N   1      26.037  20.932   3.964  1.00  0.00     0.167 HD
HETATM   18  N   UNK N   1      27.198  20.193   7.947  0.00  0.00    -0.154 N 
HETATM   19  O   UNK N   1      26.285  21.810   6.665  0.00  0.00    -0.265 OA
HETATM   20  C   UNK N   1      27.716  18.926   8.036  0.00  0.00     0.680 A 
ATOM     21  HN  UNK N   1      27.155  20.780   8.781  1.00  0.00     0.187 HD
HETATM   22  N   UNK N   1      28.192  18.448   9.274  0.00  0.00    -0.234 N 
HETATM   23  H   UNK N   1      28.251  19.052  10.049  0.00  0.00     0.174 HD
HETATM   24  H   UNK N   1      28.467  17.507   9.364  0.00  0.00     0.174 HD
HETATM   25  H   UNK N   1      28.152  17.216   6.984  0.00  0.00     0.186 HD
ENDBRANCH   6  10
ENDBRANCH   2   3
ENDBRANCH   1   2
BRANCH   1  26
HETATM   26  P   UNK N   1      23.249  13.996   6.420  0.00  0.00     0.393 P 
HETATM   27  O   UNK N   1      21.964  13.437   5.751  0.00  0.00    -0.631 OA
BRANCH  26  28
HETATM   28  O   UNK N   1      23.358  13.340   8.024  0.00  0.00    -0.307 OA
HETATM   29  H   UNK N   1      24.154  13.436   8.572  0.00  0.00     0.222 HD
ENDBRANCH  26  28
BRANCH  26  30
HETATM   30  O   UNK N   1      23.083  15.718   6.522  0.00  0.00    -0.289 OA
BRANCH  30  31
HETATM   31  C   UNK N   1      21.880  16.160   5.930  0.00  0.00     0.169 C 
HETATM   32  C   UNK N   1      21.971  16.781   4.541  0.00  0.00     0.089 C 
HETATM   33  C   UNK N   1      21.951  18.249   4.846  0.00  0.00     0.236 C 
HETATM   34  O   UNK N   1      21.070  18.388   5.929  0.00  0.00    -0.356 OA
HETATM   35  C   UNK N   1      21.454  17.338   6.772  0.00  0.00     0.177 C 
BRANCH  33  36
HETATM   36  N   UNK N   1      21.579  19.047   3.662  0.00  0.00    -0.267 N 
HETATM   37  C   UNK N   1      20.364  18.808   3.091  0.00  0.00     0.207 A 
HETATM   38  N   UNK N   1      19.969  19.487   1.984  0.00  0.00    -0.188 N 
HETATM   39  C   UNK N   1      20.783  20.413   1.423  0.00  0.00     0.680 A 
ATOM     40  HN  UNK N   1      19.055  19.299   1.572  1.00  0.00     0.185 HD
HETATM   41  N   UNK N   1      21.994  20.669   1.969  0.00  0.00    -0.141 N 
HETATM   42  N   UNK N   1      20.374  21.104   0.267  0.00  0.00    -0.234 N 
HETATM   43  C   UNK N   1      22.405  19.997   3.087  0.00  0.00     0.343 A 
ATOM     44  HN  UNK N   1      22.605  21.367   1.545  1.00  0.00     0.189 HD
HETATM   45  O   UNK N   1      23.503  20.242   3.552  0.00  0.00    -0.246 OA
HETATM   46  H   UNK N   1      20.974  21.758  -0.159  0.00  0.00     0.174 HD
HETATM   47  H   UNK N   1      19.484  20.932  -0.117  0.00  0.00     0.174 HD
ENDBRANCH  33  36
BRANCH  35  48
HETATM   48  C   UNK N   1      20.359  16.925   7.734  0.00  0.00     0.198 C 
BRANCH  48  49
HETATM   49  O   UNK N   1      20.101  17.975   8.621  0.00  0.00    -0.398 OA
HETATM   50  H   UNK N   1      19.571  17.819   9.417  0.00  0.00     0.209 HD
ENDBRANCH  48  49
ENDBRANCH  35  48
ENDBRANCH  30  31
ENDBRANCH  26  30
ENDBRANCH   1  26
TORSDOF 11
ENDMDL
MODEL 5
REMARK VINA RESULT:      -8.0      1.929      3.101
REMARK  11 active torsions:
REMARK  status: ('A' for Active; 'I' for Inactive)
REMARK    1  A    between atoms: C_7  and  N_6 
REMARK    2  A    between atoms: C_9  and  O_35 
REMARK    3  A    between atoms: C_10  and  C_12 
REMARK    4  A    between atoms: C_12  and  O_13 
REMARK    5  A    between atoms: O_13  and  P_14 
REMARK    6  A    between atoms: P_14  and  O_16 
REMARK    7  A    between atoms: P_14  and  O_17 
REMARK    8  A    between atoms: C_18  and  O_17 
REMARK    9  A    between atoms: C_20  and  N_25 
REMARK   10  A    between atoms: C_22  and  C_23 
REMARK   11  A    between atoms: C_23  and  O_24 
REMARK       I    between atoms: C_29  and  N_34 
REMARK       I    between atoms: C_37  and  N_42 
ROOT
HETATM    1  O   UNK N   1      32.515  14.766   7.020  0.00  0.00    -0.294 OA
ENDROOT
BRANCH   1   2
HETATM    2  C   UNK N   1      32.667  16.027   6.465  0.00  0.00     0.215 C 
BRANCH   2   3
HETATM    3  C   UNK N   1      31.511  16.900   6.898  0.00  0.00     0.177 C 
HETATM    4  C   UNK N   1      31.615  17.564   8.245  0.00  0.00     0.153 C 
HETATM    5  C   UNK N   1      30.212  18.113   8.307  0.00  0.00     0.088 C 
HETATM    6  C   UNK N   1      29.416  17.191   7.373  0.00  0.00     0.233 C 
HETATM    7  O   UNK N   1      30.302  16.201   6.925  0.00  0.00    -0.356 OA
BRANCH   4   8
HETATM    8  O   UNK N   1      31.762  16.600   9.250  0.00  0.00    -0.393 OA
HETATM    9  H   UNK N   1      31.146  16.403   9.973  0.00  0.00     0.210 HD
ENDBRANCH   4   8
BRANCH   6  10
HETATM   10  N   UNK N   1      28.879  17.918   6.216  0.00  0.00    -0.299 N 
HETATM   11  C   UNK N   1      27.998  18.932   6.209  0.00  0.00     0.159 A 
HETATM   12  C   UNK N   1      27.784  19.331   4.945  0.00  0.00     0.147 A 
HETATM   13  N   UNK N   1      27.396  19.527   7.273  0.00  0.00    -0.174 N 
HETATM   14  N   UNK N   1      28.521  18.582   4.100  0.00  0.00    -0.345 N 
HETATM   15  C   UNK N   1      26.919  20.381   4.682  0.00  0.00     0.290 A 
HETATM   16  C   UNK N   1      29.196  17.719   4.911  0.00  0.00     0.188 A 
ATOM     17  HN  UNK N   1      28.564  18.647   3.083  1.00  0.00     0.167 HD
HETATM   18  N   UNK N   1      26.301  20.990   5.754  0.00  0.00    -0.154 N 
HETATM   19  O   UNK N   1      26.712  20.764   3.547  0.00  0.00    -0.265 OA
HETATM   20  C   UNK N   1      26.539  20.566   7.038  0.00  0.00     0.680 A 
ATOM     21  HN  UNK N   1      25.658  21.767   5.591  1.00  0.00     0.187 HD
HETATM   22  N   UNK N   1      25.904  21.209   8.119  0.00  0.00    -0.234 N 
HETATM   23  H   UNK N   1      25.374  22.025   7.969  0.00  0.00     0.174 HD
HETATM   24  H   UNK N   1      25.991  20.843   9.028  0.00  0.00     0.174 HD
HETATM   25  H   UNK N   1      27.572  19.216   8.191  0.00  0.00     0.186 HD
ENDBRANCH   6  10
ENDBRANCH   2   3
ENDBRANCH   1   2
BRANCH   1  26
HETATM   26  P   UNK N   1      34.043  14.332   7.735  0.00  0.00     0.393 P 
HETATM   27  O   UNK N   1      34.501  12.961   7.167  0.00  0.00    -0.631 OA
BRANCH  26  28
HETATM   28  O   UNK N   1      35.333  15.474   7.507  0.00  0.00    -0.307 OA
HETATM   29  H   UNK N   1      35.495  16.204   8.125  0.00  0.00     0.222 HD
ENDBRANCH  26  28
BRANCH  26  30
HETATM   30  O   UNK N   1      33.759  14.131   9.433  0.00  0.00    -0.289 OA
BRANCH  30  31
HETATM   31  C   UNK N   1      34.967  14.133  10.165  0.00  0.00     0.169 C 
HETATM   32  C   UNK N   1      35.345  12.848  10.891  0.00  0.00     0.089 C 
HETATM   33  C   UNK N   1      34.901  13.132  12.295  0.00  0.00     0.236 C 
HETATM   34  O   UNK N   1      35.172  14.493  12.499  0.00  0.00    -0.356 OA
HETATM   35  C   UNK N   1      34.710  15.078  11.314  0.00  0.00     0.177 C 
BRANCH  33  36
HETATM   36  N   UNK N   1      35.557  12.236  13.267  0.00  0.00    -0.267 N 
HETATM   37  C   UNK N   1      36.646  11.531  12.846  0.00  0.00     0.207 A 
HETATM   38  N   UNK N   1      37.281  10.669  13.680  0.00  0.00    -0.188 N 
HETATM   39  C   UNK N   1      36.836  10.489  14.947  0.00  0.00     0.680 A 
ATOM     40  HN  UNK N   1      38.098  10.153  13.351  1.00  0.00     0.185 HD
HETATM   41  N   UNK N   1      35.757  11.175  15.388  0.00  0.00    -0.141 N 
HETATM   42  N   UNK N   1      37.491   9.583  15.802  0.00  0.00    -0.234 N 
HETATM   43  C   UNK N   1      35.108  12.050  14.564  0.00  0.00     0.343 A 
ATOM     44  HN  UNK N   1      35.425  11.038  16.343  1.00  0.00     0.189 HD
HETATM   45  O   UNK N   1      34.136  12.648  14.985  0.00  0.00    -0.246 OA
HETATM   46  H   UNK N   1      37.154   9.429  16.715  0.00  0.00     0.174 HD
HETATM   47  H   UNK N   1      38.288   9.100  15.487  0.00  0.00     0.174 HD
ENDBRANCH  33  36
BRANCH  35  48
HETATM   48  C   UNK N   1      35.344  16.425  11.036  0.00  0.00     0.198 C 
BRANCH  48  49
HETATM   49  O   UNK N   1      34.560  17.125  10.115  0.00  0.00    -0.398 OA
HETATM   50  H   UNK N   1      34.744  17.051   9.165  0.00  0.00     0.209 HD
ENDBRANCH  48  49
ENDBRANCH  35  48
ENDBRANCH  30  31
ENDBRANCH  26  30
ENDBRANCH   1  26
TORSDOF 11
ENDMDL
MODEL 6
REMARK VINA RESULT:      -8.0      4.701     11.263
REMARK  11 active torsions:
REMARK  status: ('A' for Active; 'I' for Inactive)
REMARK    1  A    between atoms: C_7  and  N_6 
REMARK    2  A    between atoms: C_9  and  O_35 
REMARK    3  A    between atoms: C_10  and  C_12 
REMARK    4  A    between atoms: C_12  and  O_13 
REMARK    5  A    between atoms: O_13  and  P_14 
REMARK    6  A    between atoms: P_14  and  O_16 
REMARK    7  A    between atoms: P_14  and  O_17 
REMARK    8  A    between atoms: C_18  and  O_17 
REMARK    9  A    between atoms: C_20  and  N_25 
REMARK   10  A    between atoms: C_22  and  C_23 
REMARK   11  A    between atoms: C_23  and  O_24 
REMARK       I    between atoms: C_29  and  N_34 
REMARK       I    between atoms: C_37  and  N_42 
ROOT
HETATM    1  O   UNK N   1      28.626  16.193   3.557  0.00  0.00    -0.294 OA
ENDROOT
BRANCH   1   2
HETATM    2  C   UNK N   1      28.674  15.015   4.285  0.00  0.00     0.215 C 
BRANCH   2   3
HETATM    3  C   UNK N   1      30.103  14.525   4.338  0.00  0.00     0.177 C 
HETATM    4  C   UNK N   1      30.494  13.433   3.379  0.00  0.00     0.153 C 
HETATM    5  C   UNK N   1      31.868  13.159   3.935  0.00  0.00     0.088 C 
HETATM    6  C   UNK N   1      31.775  13.635   5.392  0.00  0.00     0.233 C 
HETATM    7  O   UNK N   1      30.451  14.047   5.602  0.00  0.00    -0.356 OA
BRANCH   4   8
HETATM    8  O   UNK N   1      29.695  12.302   3.584  0.00  0.00    -0.393 OA
HETATM    9  H   UNK N   1      28.734  12.276   3.723  0.00  0.00     0.210 HD
ENDBRANCH   4   8
BRANCH   6  10
HETATM   10  N   UNK N   1      32.679  14.761   5.657  0.00  0.00    -0.299 N 
HETATM   11  C   UNK N   1      32.553  15.727   6.581  0.00  0.00     0.159 A 
HETATM   12  C   UNK N   1      33.608  16.557   6.508  0.00  0.00     0.147 A 
HETATM   13  N   UNK N   1      31.560  15.891   7.494  0.00  0.00    -0.174 N 
HETATM   14  N   UNK N   1      34.442  16.149   5.532  0.00  0.00    -0.345 N 
HETATM   15  C   UNK N   1      33.710  17.630   7.378  0.00  0.00     0.290 A 
HETATM   16  C   UNK N   1      33.849  15.031   5.024  0.00  0.00     0.188 A 
ATOM     17  HN  UNK N   1      35.319  16.578   5.239  1.00  0.00     0.167 HD
HETATM   18  N   UNK N   1      32.706  17.807   8.307  0.00  0.00    -0.154 N 
HETATM   19  O   UNK N   1      34.657  18.392   7.336  0.00  0.00    -0.265 OA
HETATM   20  C   UNK N   1      31.641  16.943   8.363  0.00  0.00     0.680 A 
ATOM     21  HN  UNK N   1      32.756  18.589   8.961  1.00  0.00     0.187 HD
HETATM   22  N   UNK N   1      30.631  17.136   9.327  0.00  0.00    -0.234 N 
HETATM   23  H   UNK N   1      30.736  17.822  10.025  0.00  0.00     0.174 HD
HETATM   24  H   UNK N   1      29.817  16.583   9.302  0.00  0.00     0.174 HD
HETATM   25  H   UNK N   1      30.799  15.266   7.528  0.00  0.00     0.186 HD
ENDBRANCH   6  10
ENDBRANCH   2   3
ENDBRANCH   1   2
BRANCH   1  26
HETATM   26  P   UNK N   1      29.194  17.466   4.602  0.00  0.00     0.393 P 
HETATM   27  O   UNK N   1      29.011  17.032   6.081  0.00  0.00    -0.631 OA
BRANCH  26  28
HETATM   28  O   UNK N   1      30.849  17.943   4.375  0.00  0.00    -0.307 OA
HETATM   29  H   UNK N   1      31.438  17.495   3.747  0.00  0.00     0.222 HD
ENDBRANCH  26  28
BRANCH  26  30
HETATM   30  O   UNK N   1      28.168  18.834   4.323  0.00  0.00    -0.289 OA
BRANCH  30  31
HETATM   31  C   UNK N   1      26.967  18.740   5.060  0.00  0.00     0.169 C 
HETATM   32  C   UNK N   1      25.728  18.255   4.317  0.00  0.00     0.089 C 
HETATM   33  C   UNK N   1      25.023  19.540   4.000  0.00  0.00     0.236 C 
HETATM   34  O   UNK N   1      25.242  20.366   5.112  0.00  0.00    -0.356 OA
HETATM   35  C   UNK N   1      26.603  20.171   5.374  0.00  0.00     0.177 C 
BRANCH  33  36
HETATM   36  N   UNK N   1      23.598  19.318   3.687  0.00  0.00    -0.267 N 
HETATM   37  C   UNK N   1      23.057  18.109   4.011  0.00  0.00     0.207 A 
HETATM   38  N   UNK N   1      21.760  17.828   3.728  0.00  0.00    -0.188 N 
HETATM   39  C   UNK N   1      20.981  18.746   3.108  0.00  0.00     0.680 A 
ATOM     40  HN  UNK N   1      21.370  16.921   3.983  1.00  0.00     0.185 HD
HETATM   41  N   UNK N   1      21.493  19.953   2.773  0.00  0.00    -0.141 N 
HETATM   42  N   UNK N   1      19.640  18.444   2.804  0.00  0.00    -0.234 N 
HETATM   43  C   UNK N   1      22.796  20.254   3.056  0.00  0.00     0.343 A 
ATOM     44  HN  UNK N   1      20.903  20.643   2.307  1.00  0.00     0.189 HD
HETATM   45  O   UNK N   1      23.232  21.345   2.736  0.00  0.00    -0.246 OA
HETATM   46  H   UNK N   1      19.078  19.099   2.329  0.00  0.00     0.174 HD
HETATM   47  H   UNK N   1      19.262  17.574   3.066  0.00  0.00     0.174 HD
ENDBRANCH  33  36
BRANCH  35  48
HETATM   48  C   UNK N   1      26.982  20.507   6.801  0.00  0.00     0.198 C 
BRANCH  48  49
HETATM   49  O   UNK N   1      27.534  19.376   7.412  0.00  0.00    -0.398 OA
HETATM   50  H   UNK N   1      28.496  19.253   7.426  0.00  0.00     0.209 HD
ENDBRANCH  48  49
ENDBRANCH  35  48
ENDBRANCH  30  31
ENDBRANCH  26  30
ENDBRANCH   1  26
TORSDOF 11
ENDMDL
MODEL 7
REMARK VINA RESULT:      -7.9      5.241     12.292
REMARK  11 active torsions:
REMARK  status: ('A' for Active; 'I' for Inactive)
REMARK    1  A    between atoms: C_7  and  N_6 
REMARK    2  A    between atoms: C_9  and  O_35 
REMARK    3  A    between atoms: C_10  and  C_12 
REMARK    4  A    between atoms: C_12  and  O_13 
REMARK    5  A    between atoms: O_13  and  P_14 
REMARK    6  A    between atoms: P_14  and  O_16 
REMARK    7  A    between atoms: P_14  and  O_17 
REMARK    8  A    between atoms: C_18  and  O_17 
REMARK    9  A    between atoms: C_20  and  N_25 
REMARK   10  A    between atoms: C_22  and  C_23 
REMARK   11  A    between atoms: C_23  and  O_24 
REMARK       I    between atoms: C_29  and  N_34 
REMARK       I    between atoms: C_37  and  N_42 
ROOT
HETATM    1  O   UNK N   1      25.046  13.808   4.884  0.00  0.00    -0.294 OA
ENDROOT
BRANCH   1   2
HETATM    2  C   UNK N   1      26.317  13.991   5.404  0.00  0.00     0.215 C 
BRANCH   2   3
HETATM    3  C   UNK N   1      26.735  15.428   5.193  0.00  0.00     0.177 C 
HETATM    4  C   UNK N   1      26.164  16.144   3.998  0.00  0.00     0.153 C 
HETATM    5  C   UNK N   1      26.998  17.396   4.096  0.00  0.00     0.088 C 
HETATM    6  C   UNK N   1      28.249  16.944   4.863  0.00  0.00     0.233 C 
HETATM    7  O   UNK N   1      28.119  15.565   5.077  0.00  0.00    -0.356 OA
BRANCH   4   8
HETATM    8  O   UNK N   1      26.509  15.469   2.820  0.00  0.00    -0.393 OA
HETATM    9  H   UNK N   1      26.515  14.509   2.671  0.00  0.00     0.210 HD
ENDBRANCH   4   8
BRANCH   6  10
HETATM   10  N   UNK N   1      28.370  17.624   6.158  0.00  0.00    -0.299 N 
HETATM   11  C   UNK N   1      29.283  17.419   7.122  0.00  0.00     0.159 A 
HETATM   12  C   UNK N   1      29.057  18.264   8.141  0.00  0.00     0.147 A 
HETATM   13  N   UNK N   1      30.313  16.532   7.126  0.00  0.00    -0.174 N 
HETATM   14  N   UNK N   1      27.989  19.038   7.863  0.00  0.00    -0.345 N 
HETATM   15  C   UNK N   1      29.883  18.251   9.253  0.00  0.00     0.290 A 
HETATM   16  C   UNK N   1      27.585  18.628   6.627  0.00  0.00     0.188 A 
ATOM     17  HN  UNK N   1      27.576  19.767   8.445  1.00  0.00     0.167 HD
HETATM   18  N   UNK N   1      30.930  17.354   9.268  0.00  0.00    -0.154 N 
HETATM   19  O   UNK N   1      29.702  19.010  10.186  0.00  0.00    -0.265 OA
HETATM   20  C   UNK N   1      31.142  16.503   8.213  0.00  0.00     0.680 A 
ATOM     21  HN  UNK N   1      31.556  17.323  10.075  1.00  0.00     0.187 HD
HETATM   22  N   UNK N   1      32.224  15.600   8.245  0.00  0.00    -0.234 N 
HETATM   23  H   UNK N   1      32.888  15.648   8.970  0.00  0.00     0.174 HD
HETATM   24  H   UNK N   1      32.317  14.920   7.539  0.00  0.00     0.174 HD
HETATM   25  H   UNK N   1      30.458  15.925   6.364  0.00  0.00     0.186 HD
ENDBRANCH   6  10
ENDBRANCH   2   3
ENDBRANCH   1   2
BRANCH   1  26
HETATM   26  P   UNK N   1      23.928  13.895   6.217  0.00  0.00     0.393 P 
HETATM   27  O   UNK N   1      22.644  13.098   5.859  0.00  0.00    -0.631 OA
BRANCH  26  28
HETATM   28  O   UNK N   1      24.525  13.310   7.740  0.00  0.00    -0.307 OA
HETATM   29  H   UNK N   1      24.638  12.364   7.925  0.00  0.00     0.222 HD
ENDBRANCH  26  28
BRANCH  26  30
HETATM   30  O   UNK N   1      23.483  15.561   6.386  0.00  0.00    -0.289 OA
BRANCH  30  31
HETATM   31  C   UNK N   1      22.273  15.845   5.716  0.00  0.00     0.169 C 
HETATM   32  C   UNK N   1      22.363  16.628   4.411  0.00  0.00     0.089 C 
HETATM   33  C   UNK N   1      22.040  18.024   4.853  0.00  0.00     0.236 C 
HETATM   34  O   UNK N   1      21.061  17.879   5.847  0.00  0.00    -0.356 OA
HETATM   35  C   UNK N   1      21.562  16.825   6.620  0.00  0.00     0.177 C 
BRANCH  33  36
HETATM   36  N   UNK N   1      21.625  18.873   3.720  0.00  0.00    -0.267 N 
HETATM   37  C   UNK N   1      20.402  18.639   3.165  0.00  0.00     0.207 A 
HETATM   38  N   UNK N   1      19.969  19.364   2.103  0.00  0.00    -0.188 N 
HETATM   39  C   UNK N   1      20.753  20.332   1.570  0.00  0.00     0.680 A 
ATOM     40  HN  UNK N   1      19.048  19.180   1.703  1.00  0.00     0.185 HD
HETATM   41  N   UNK N   1      21.971  20.584   2.100  0.00  0.00    -0.141 N 
HETATM   42  N   UNK N   1      20.304  21.072   0.460  0.00  0.00    -0.234 N 
HETATM   43  C   UNK N   1      22.421  19.865   3.173  0.00  0.00     0.343 A 
ATOM     44  HN  UNK N   1      22.559  21.314   1.698  1.00  0.00     0.189 HD
HETATM   45  O   UNK N   1      23.525  20.108   3.624  0.00  0.00    -0.246 OA
HETATM   46  H   UNK N   1      20.882  21.758   0.054  0.00  0.00     0.174 HD
HETATM   47  H   UNK N   1      19.408  20.903   0.088  0.00  0.00     0.174 HD
ENDBRANCH  33  36
BRANCH  35  48
HETATM   48  C   UNK N   1      20.488  16.117   7.418  0.00  0.00     0.198 C 
BRANCH  48  49
HETATM   49  O   UNK N   1      20.398  14.787   6.996  0.00  0.00    -0.398 OA
HETATM   50  H   UNK N   1      20.931  14.103   7.430  0.00  0.00     0.209 HD
ENDBRANCH  48  49
ENDBRANCH  35  48
ENDBRANCH  30  31
ENDBRANCH  26  30
ENDBRANCH   1  26
TORSDOF 11
ENDMDL
MODEL 8
REMARK VINA RESULT:      -7.7      4.775      8.352
REMARK  11 active torsions:
REMARK  status: ('A' for Active; 'I' for Inactive)
REMARK    1  A    between atoms: C_7  and  N_6 
REMARK    2  A    between atoms: C_9  and  O_35 
REMARK    3  A    between atoms: C_10  and  C_12 
REMARK    4  A    between atoms: C_12  and  O_13 
REMARK    5  A    between atoms: O_13  and  P_14 
REMARK    6  A    between atoms: P_14  and  O_16 
REMARK    7  A    between atoms: P_14  and  O_17 
REMARK    8  A    between atoms: C_18  and  O_17 
REMARK    9  A    between atoms: C_20  and  N_25 
REMARK   10  A    between atoms: C_22  and  C_23 
REMARK   11  A    between atoms: C_23  and  O_24 
REMARK       I    between atoms: C_29  and  N_34 
REMARK       I    between atoms: C_37  and  N_42 
ROOT
HETATM    1  O   UNK N   1      24.871  19.133   3.200  0.00  0.00    -0.294 OA
ENDROOT
BRANCH   1   2
HETATM    2  C   UNK N   1      23.937  20.147   3.346  0.00  0.00     0.215 C 
BRANCH   2   3
HETATM    3  C   UNK N   1      22.570  19.614   2.984  0.00  0.00     0.177 C 
HETATM    4  C   UNK N   1      21.652  20.531   2.221  0.00  0.00     0.153 C 
HETATM    5  C   UNK N   1      20.413  19.674   2.285  0.00  0.00     0.088 C 
HETATM    6  C   UNK N   1      20.636  18.801   3.529  0.00  0.00     0.233 C 
HETATM    7  O   UNK N   1      21.842  19.217   4.108  0.00  0.00    -0.356 OA
BRANCH   4   8
HETATM    8  O   UNK N   1      21.424  21.703   2.951  0.00  0.00    -0.393 OA
HETATM    9  H   UNK N   1      21.365  21.795   3.916  0.00  0.00     0.210 HD
ENDBRANCH   4   8
BRANCH   6  10
HETATM   10  N   UNK N   1      20.730  17.377   3.185  0.00  0.00    -0.299 N 
HETATM   11  C   UNK N   1      21.218  16.373   3.933  0.00  0.00     0.159 A 
HETATM   12  C   UNK N   1      21.102  15.216   3.260  0.00  0.00     0.147 A 
HETATM   13  N   UNK N   1      21.738  16.438   5.186  0.00  0.00    -0.174 N 
HETATM   14  N   UNK N   1      20.538  15.443   2.057  0.00  0.00    -0.345 N 
HETATM   15  C   UNK N   1      21.527  14.030   3.836  0.00  0.00     0.290 A 
HETATM   16  C   UNK N   1      20.310  16.787   2.037  0.00  0.00     0.188 A 
ATOM     17  HN  UNK N   1      20.328  14.763   1.326  1.00  0.00     0.167 HD
HETATM   18  N   UNK N   1      22.059  14.084   5.108  0.00  0.00    -0.154 N 
HETATM   19  O   UNK N   1      21.429  12.970   3.249  0.00  0.00    -0.265 OA
HETATM   20  C   UNK N   1      22.163  15.279   5.775  0.00  0.00     0.680 A 
ATOM     21  HN  UNK N   1      22.379  13.226   5.557  1.00  0.00     0.187 HD
HETATM   22  N   UNK N   1      22.700  15.310   7.078  0.00  0.00    -0.234 N 
HETATM   23  H   UNK N   1      22.905  14.471   7.550  0.00  0.00     0.174 HD
HETATM   24  H   UNK N   1      22.871  16.174   7.517  0.00  0.00     0.174 HD
HETATM   25  H   UNK N   1      21.809  17.299   5.660  0.00  0.00     0.186 HD
ENDBRANCH   6  10
ENDBRANCH   2   3
ENDBRANCH   1   2
BRANCH   1  26
HETATM   26  P   UNK N   1      26.139  19.434   4.357  0.00  0.00     0.393 P 
HETATM   27  O   UNK N   1      27.018  20.612   3.855  0.00  0.00    -0.631 OA
BRANCH  26  28
HETATM   28  O   UNK N   1      25.615  19.795   5.973  0.00  0.00    -0.307 OA
HETATM   29  H   UNK N   1      25.496  20.705   6.289  0.00  0.00     0.222 HD
ENDBRANCH  26  28
BRANCH  26  30
HETATM   30  O   UNK N   1      27.131  18.013   4.387  0.00  0.00    -0.289 OA
BRANCH  30  31
HETATM   31  C   UNK N   1      27.491  17.660   5.706  0.00  0.00     0.169 C 
HETATM   32  C   UNK N   1      28.816  18.196   6.236  0.00  0.00     0.089 C 
HETATM   33  C   UNK N   1      29.733  17.026   6.046  0.00  0.00     0.236 C 
HETATM   34  O   UNK N   1      28.950  15.894   6.319  0.00  0.00    -0.356 OA
HETATM   35  C   UNK N   1      27.758  16.175   5.640  0.00  0.00     0.177 C 
BRANCH  33  36
HETATM   36  N   UNK N   1      30.942  17.137   6.884  0.00  0.00    -0.267 N 
HETATM   37  C   UNK N   1      30.773  17.227   8.234  0.00  0.00     0.207 A 
HETATM   38  N   UNK N   1      31.840  17.359   9.062  0.00  0.00    -0.188 N 
HETATM   39  C   UNK N   1      33.096  17.411   8.557  0.00  0.00     0.680 A 
ATOM     40  HN  UNK N   1      31.696  17.419  10.070  1.00  0.00     0.185 HD
HETATM   41  N   UNK N   1      33.291  17.326   7.221  0.00  0.00    -0.141 N 
HETATM   42  N   UNK N   1      34.197  17.562   9.420  0.00  0.00    -0.234 N 
HETATM   43  C   UNK N   1      32.228  17.189   6.373  0.00  0.00     0.343 A 
ATOM     44  HN  UNK N   1      34.238  17.365   6.844  1.00  0.00     0.189 HD
HETATM   45  O   UNK N   1      32.434  17.123   5.175  0.00  0.00    -0.246 OA
HETATM   46  H   UNK N   1      35.109  17.628   9.054  0.00  0.00     0.174 HD
HETATM   47  H   UNK N   1      34.056  17.603  10.393  0.00  0.00     0.174 HD
ENDBRANCH  33  36
BRANCH  35  48
HETATM   48  C   UNK N   1      26.574  15.405   6.185  0.00  0.00     0.198 C 
BRANCH  48  49
HETATM   49  O   UNK N   1      25.522  16.290   6.436  0.00  0.00    -0.398 OA
HETATM   50  H   UNK N   1      25.301  16.978   5.790  0.00  0.00     0.209 HD
ENDBRANCH  48  49
ENDBRANCH  35  48
ENDBRANCH  30  31
ENDBRANCH  26  30
ENDBRANCH   1  26
TORSDOF 11
ENDMDL
MODEL 9
REMARK VINA RESULT:      -7.7      2.027      2.412
REMARK  11 active torsions:
REMARK  status: ('A' for Active; 'I' for Inactive)
REMARK    1  A    between atoms: C_7  and  N_6 
REMARK    2  A    between atoms: C_9  and  O_35 
REMARK    3  A    between atoms: C_10  and  C_12 
REMARK    4  A    between atoms: C_12  and  O_13 
REMARK    5  A    between atoms: O_13  and  P_14 
REMARK    6  A    between atoms: P_14  and  O_16 
REMARK    7  A    between atoms: P_14  and  O_17 
REMARK    8  A    between atoms: C_18  and  O_17 
REMARK    9  A    between atoms: C_20  and  N_25 
REMARK   10  A    between atoms: C_22  and  C_23 
REMARK   11  A    between atoms: C_23  and  O_24 
REMARK       I    between atoms: C_29  and  N_34 
REMARK       I    between atoms: C_37  and  N_42 
ROOT
HETATM    1  O   UNK N   1      32.654  17.471   8.655  0.00  0.00    -0.294 OA
ENDROOT
BRANCH   1   2
HETATM    2  C   UNK N   1      31.926  18.643   8.521  0.00  0.00     0.215 C 
BRANCH   2   3
HETATM    3  C   UNK N   1      30.470  18.298   8.306  0.00  0.00     0.177 C 
HETATM    4  C   UNK N   1      29.473  18.883   9.269  0.00  0.00     0.153 C 
HETATM    5  C   UNK N   1      28.263  18.118   8.795  0.00  0.00     0.088 C 
HETATM    6  C   UNK N   1      28.856  16.860   8.146  0.00  0.00     0.233 C 
HETATM    7  O   UNK N   1      30.244  16.920   8.333  0.00  0.00    -0.356 OA
BRANCH   4   8
HETATM    8  O   UNK N   1      29.772  18.481  10.577  0.00  0.00    -0.393 OA
HETATM    9  H   UNK N   1      30.577  18.036  10.888  0.00  0.00     0.210 HD
ENDBRANCH   4   8
BRANCH   6  10
HETATM   10  N   UNK N   1      28.564  16.799   6.709  0.00  0.00    -0.299 N 
HETATM   11  C   UNK N   1      29.154  16.036   5.773  0.00  0.00     0.159 A 
HETATM   12  C   UNK N   1      28.579  16.265   4.581  0.00  0.00     0.147 A 
HETATM   13  N   UNK N   1      30.160  15.137   5.936  0.00  0.00    -0.174 N 
HETATM   14  N   UNK N   1      27.603  17.185   4.714  0.00  0.00    -0.345 N 
HETATM   15  C   UNK N   1      29.010  15.579   3.457  0.00  0.00     0.290 A 
HETATM   16  C   UNK N   1      27.608  17.495   6.042  0.00  0.00     0.188 A 
ATOM     17  HN  UNK N   1      26.997  17.563   3.987  1.00  0.00     0.167 HD
HETATM   18  N   UNK N   1      30.032  14.665   3.611  0.00  0.00    -0.154 N 
HETATM   19  O   UNK N   1      28.503  15.764   2.367  0.00  0.00    -0.265 OA
HETATM   20  C   UNK N   1      30.601  14.447   4.841  0.00  0.00     0.680 A 
ATOM     21  HN  UNK N   1      30.370  14.145   2.800  1.00  0.00     0.187 HD
HETATM   22  N   UNK N   1      31.637  13.502   4.978  0.00  0.00    -0.234 N 
HETATM   23  H   UNK N   1      31.884  12.924   4.220  0.00  0.00     0.174 HD
HETATM   24  H   UNK N   1      32.115  13.419   5.834  0.00  0.00     0.174 HD
HETATM   25  H   UNK N   1      30.563  14.986   6.823  0.00  0.00     0.186 HD
ENDBRANCH   6  10
ENDBRANCH   2   3
ENDBRANCH   1   2
BRANCH   1  26
HETATM   26  P   UNK N   1      34.223  17.758   7.954  0.00  0.00     0.393 P 
HETATM   27  O   UNK N   1      34.091  17.794   6.406  0.00  0.00    -0.631 OA
BRANCH  26  28
HETATM   28  O   UNK N   1      35.022  19.213   8.465  0.00  0.00    -0.307 OA
HETATM   29  H   UNK N   1      35.954  19.226   8.737  0.00  0.00     0.222 HD
ENDBRANCH  26  28
BRANCH  26  30
HETATM   30  O   UNK N   1      35.209  16.395   8.366  0.00  0.00    -0.289 OA
BRANCH  30  31
HETATM   31  C   UNK N   1      34.529  15.503   9.224  0.00  0.00     0.169 C 
HETATM   32  C   UNK N   1      35.096  15.314  10.627  0.00  0.00     0.089 C 
HETATM   33  C   UNK N   1      35.871  14.038  10.488  0.00  0.00     0.236 C 
HETATM   34  O   UNK N   1      35.115  13.239   9.617  0.00  0.00    -0.356 OA
HETATM   35  C   UNK N   1      34.754  14.142   8.610  0.00  0.00     0.177 C 
BRANCH  33  36
HETATM   36  N   UNK N   1      36.135  13.414  11.799  0.00  0.00    -0.267 N 
HETATM   37  C   UNK N   1      35.230  13.628  12.797  0.00  0.00     0.207 A 
HETATM   38  N   UNK N   1      35.424  13.106  14.035  0.00  0.00    -0.188 N 
HETATM   39  C   UNK N   1      36.528  12.369  14.302  0.00  0.00     0.680 A 
ATOM     40  HN  UNK N   1      34.735  13.271  14.769  1.00  0.00     0.185 HD
HETATM   41  N   UNK N   1      37.442  12.143  13.330  0.00  0.00    -0.141 N 
HETATM   42  N   UNK N   1      36.731  11.842  15.592  0.00  0.00    -0.234 N 
HETATM   43  C   UNK N   1      37.260  12.657  12.076  0.00  0.00     0.343 A 
ATOM     44  HN  UNK N   1      38.272  11.587  13.534  1.00  0.00     0.189 HD
HETATM   45  O   UNK N   1      38.102  12.445  11.224  0.00  0.00    -0.246 OA
HETATM   46  H   UNK N   1      37.545  11.328  15.796  0.00  0.00     0.174 HD
HETATM   47  H   UNK N   1      36.055  11.989  16.292  0.00  0.00     0.174 HD
ENDBRANCH  33  36
BRANCH  35  48
HETATM   48  C   UNK N   1      33.525  13.706   7.840  0.00  0.00     0.198 C 
BRANCH  48  49
HETATM   49  O   UNK N   1      32.525  14.673   7.976  0.00  0.00    -0.398 OA
HETATM   50  H   UNK N   1      31.591  14.416   7.933  0.00  0.00     0.209 HD
ENDBRANCH  48  49
ENDBRANCH  35  48
ENDBRANCH  30  31
ENDBRANCH  26  30
ENDBRANCH   1  26
TORSDOF 11
ENDMDL
