MODEL 1
REMARK VINA RESULT:      -7.6      0.000      0.000
REMARK  5 active torsions:
REMARK  status: ('A' for Active; 'I' for Inactive)
REMARK       I    between atoms: N_2  and  C_4 
REMARK    1  A    between atoms: C_4  and  C_6 
REMARK    2  A    between atoms: C_6  and  C_7 
REMARK    3  A    between atoms: C_7  and  N_8 
REMARK    4  A    between atoms: C_9  and  C_27 
REMARK       I    between atoms: C_12  and  N_15 
REMARK    5  A    between atoms: N_15  and  C_16 
ROOT
HETATM    1  N   UNK N   1      22.263  19.392   3.528  0.00  0.00    -0.261 N 
HETATM    2  C   UNK N   1      22.898  18.589   4.412  0.00  0.00     0.148 A 
HETATM    3  N   UNK N   1      24.198  18.846   4.419  0.00  0.00    -0.173 N 
ATOM      4  HN  UNK N   1      24.925  18.376   4.959  1.00  0.00     0.186 HD
HETATM    5  C   UNK N   1      24.344  19.860   3.557  0.00  0.00     0.699 A 
HETATM    6  N   UNK N   1      23.168  20.200   2.985  0.00  0.00    -0.128 N 
ATOM      7  HN  UNK N   1      23.007  20.925   2.286  1.00  0.00     0.206 HD
HETATM    8  N   UNK N   1      25.586  20.537   3.417  0.00  0.00    -0.190 N 
HETATM    9  H   UNK N   1      25.738  21.185   2.691  0.00  0.00     0.184 HD
ENDROOT
BRANCH   8  10
HETATM   10  C   UNK N   1      26.607  20.236   4.372  0.00  0.00     0.052 A 
HETATM   11  C   UNK N   1      26.634  20.933   5.618  0.00  0.00     0.033 A 
HETATM   12  C   UNK N   1      27.412  20.483   6.688  0.00  0.00     0.042 A 
HETATM   13  C   UNK N   1      28.154  19.336   6.483  0.00  0.00     0.111 A 
HETATM   14  C   UNK N   1      28.188  18.697   5.302  0.00  0.00     0.113 A 
HETATM   15  O   UNK N   1      28.899  18.679   7.365  0.00  0.00    -0.256 OA
HETATM   16  C   UNK N   1      27.427  19.106   4.202  0.00  0.00     0.070 A 
HETATM   17  O   UNK N   1      28.980  17.632   5.409  0.00  0.00    -0.256 OA
HETATM   18  C   UNK N   1      29.444  17.563   6.729  0.00  0.00     0.498 A 
HETATM   19  F   UNK N   1      28.993  16.399   7.326  0.00  0.00    -0.147 F 
HETATM   20  F   UNK N   1      30.822  17.625   6.770  0.00  0.00    -0.147 F 
ENDBRANCH   8  10
BRANCH   2  21
HETATM   21  C   UNK N   1      22.330  17.664   5.401  0.00  0.00     0.013 A 
HETATM   22  C   UNK N   1      22.487  16.286   5.294  0.00  0.00     0.032 A 
HETATM   23  C   UNK N   1      21.757  15.445   6.138  0.00  0.00     0.088 A 
HETATM   24  N   UNK N   1      20.899  15.969   7.054  0.00  0.00    -0.375 N 
HETATM   25  C   UNK N   1      20.736  17.312   7.185  0.00  0.00     0.088 A 
ATOM     26  HN  UNK N   1      20.366  15.341   7.657  1.00  0.00     0.164 HD
HETATM   27  C   UNK N   1      21.437  18.178   6.352  0.00  0.00     0.032 A 
ENDBRANCH   2  21
BRANCH   1  28
HETATM   28  C   UNK N   1      20.840  19.399   3.220  0.00  0.00     0.160 C 
BRANCH  28  29
HETATM   29  C   UNK N   1      20.495  18.358   2.173  0.00  0.00     0.124 C 
BRANCH  29  30
HETATM   30  C   UNK N   1      19.915  17.145   2.845  0.00  0.00     0.220 C 
HETATM   31  N   UNK N   1      20.180  15.879   2.403  0.00  0.00    -0.361 N 
HETATM   32  C   UNK N   1      19.590  14.737   3.056  0.00  0.00     0.152 C 
HETATM   33  C   UNK N   1      21.063  15.639   1.292  0.00  0.00     0.152 C 
HETATM   34  O   UNK N   1      19.188  17.314   3.813  0.00  0.00    -0.273 OA
ENDBRANCH  29  30
ENDBRANCH  28  29
ENDBRANCH   1  28
TORSDOF 5
ENDMDL
MODEL 2
REMARK VINA RESULT:      -7.5      9.909     14.257
REMARK  5 active torsions:
REMARK  status: ('A' for Active; 'I' for Inactive)
REMARK       I    between atoms: N_2  and  C_4 
REMARK    1  A    between atoms: C_4  and  C_6 
REMARK    2  A    between atoms: C_6  and  C_7 
REMARK    3  A    between atoms: C_7  and  N_8 
REMARK    4  A    between atoms: C_9  and  C_27 
REMARK       I    between atoms: C_12  and  N_15 
REMARK    5  A    between atoms: N_15  and  C_16 
ROOT
HETATM    1  N   UNK N   1      35.217  13.392  11.044  0.00  0.00    -0.261 N 
HETATM    2  C   UNK N   1      35.577  13.615   9.760  0.00  0.00     0.148 A 
HETATM    3  N   UNK N   1      34.672  14.369   9.151  0.00  0.00    -0.173 N 
ATOM      4  HN  UNK N   1      34.663  14.670   8.176  1.00  0.00     0.186 HD
HETATM    5  C   UNK N   1      33.773  14.649  10.103  0.00  0.00     0.699 A 
HETATM    6  N   UNK N   1      34.081  14.043  11.271  0.00  0.00    -0.128 N 
ATOM      7  HN  UNK N   1      33.554  14.079  12.144  1.00  0.00     0.206 HD
HETATM    8  N   UNK N   1      32.728  15.585   9.880  0.00  0.00    -0.190 N 
HETATM    9  H   UNK N   1      31.988  15.690  10.520  0.00  0.00     0.184 HD
ENDROOT
BRANCH   8  10
HETATM   10  C   UNK N   1      32.796  16.368   8.685  0.00  0.00     0.052 A 
HETATM   11  C   UNK N   1      33.702  17.469   8.613  0.00  0.00     0.033 A 
HETATM   12  C   UNK N   1      34.020  18.074   7.394  0.00  0.00     0.042 A 
HETATM   13  C   UNK N   1      33.413  17.560   6.264  0.00  0.00     0.111 A 
HETATM   14  C   UNK N   1      32.514  16.564   6.315  0.00  0.00     0.113 A 
HETATM   15  O   UNK N   1      33.614  17.913   4.999  0.00  0.00    -0.256 OA
HETATM   16  C   UNK N   1      32.164  15.924   7.509  0.00  0.00     0.070 A 
HETATM   17  O   UNK N   1      32.109  16.284   5.078  0.00  0.00    -0.256 OA
HETATM   18  C   UNK N   1      32.809  17.111   4.190  0.00  0.00     0.498 A 
HETATM   19  F   UNK N   1      33.588  16.341   3.345  0.00  0.00    -0.147 F 
HETATM   20  F   UNK N   1      31.940  17.900   3.463  0.00  0.00    -0.147 F 
ENDBRANCH   8  10
BRANCH   2  21
HETATM   21  C   UNK N   1      36.833  13.284   9.075  0.00  0.00     0.013 A 
HETATM   22  C   UNK N   1      37.999  14.012   9.287  0.00  0.00     0.032 A 
HETATM   23  C   UNK N   1      39.105  13.791   8.462  0.00  0.00     0.088 A 
HETATM   24  N   UNK N   1      39.040  12.873   7.459  0.00  0.00    -0.375 N 
HETATM   25  C   UNK N   1      37.917  12.142   7.240  0.00  0.00     0.088 A 
ATOM     26  HN  UNK N   1      39.854  12.730   6.859  1.00  0.00     0.164 HD
HETATM   27  C   UNK N   1      36.792  12.347   8.034  0.00  0.00     0.032 A 
ENDBRANCH   2  21
BRANCH   1  28
HETATM   28  C   UNK N   1      35.939  12.596  12.027  0.00  0.00     0.160 C 
BRANCH  28  29
HETATM   29  C   UNK N   1      36.371  13.439  13.212  0.00  0.00     0.124 C 
BRANCH  29  30
HETATM   30  C   UNK N   1      35.481  13.145  14.387  0.00  0.00     0.220 C 
HETATM   31  N   UNK N   1      35.787  13.572  15.649  0.00  0.00    -0.361 N 
HETATM   32  C   UNK N   1      34.924  13.254  16.759  0.00  0.00     0.152 C 
HETATM   33  C   UNK N   1      36.961  14.361  15.912  0.00  0.00     0.152 C 
HETATM   34  O   UNK N   1      34.459  12.504  14.190  0.00  0.00    -0.273 OA
ENDBRANCH  29  30
ENDBRANCH  28  29
ENDBRANCH   1  28
TORSDOF 5
ENDMDL
MODEL 3
REMARK VINA RESULT:      -7.4      5.779     10.746
REMARK  5 active torsions:
REMARK  status: ('A' for Active; 'I' for Inactive)
REMARK       I    between atoms: N_2  and  C_4 
REMARK    1  A    between atoms: C_4  and  C_6 
REMARK    2  A    between atoms: C_6  and  C_7 
REMARK    3  A    between atoms: C_7  and  N_8 
REMARK    4  A    between atoms: C_9  and  C_27 
REMARK       I    between atoms: C_12  and  N_15 
REMARK    5  A    between atoms: N_15  and  C_16 
ROOT
HETATM    1  N   UNK N   1      32.700  17.481   7.778  0.00  0.00    -0.261 N 
HETATM    2  C   UNK N   1      32.055  17.128   6.643  0.00  0.00     0.148 A 
HETATM    3  N   UNK N   1      30.745  17.265   6.794  0.00  0.00    -0.173 N 
ATOM      4  HN  UNK N   1      30.012  17.044   6.120  1.00  0.00     0.186 HD
HETATM    5  C   UNK N   1      30.599  17.759   8.030  0.00  0.00     0.699 A 
HETATM    6  N   UNK N   1      31.789  17.883   8.659  0.00  0.00    -0.128 N 
ATOM      7  HN  UNK N   1      31.954  18.217   9.608  1.00  0.00     0.206 HD
HETATM    8  N   UNK N   1      29.336  18.204   8.503  0.00  0.00    -0.190 N 
HETATM    9  H   UNK N   1      29.195  18.435   9.450  0.00  0.00     0.184 HD
ENDROOT
BRANCH   8  10
HETATM   10  C   UNK N   1      28.276  18.301   7.547  0.00  0.00     0.052 A 
HETATM   11  C   UNK N   1      27.905  19.581   7.034  0.00  0.00     0.033 A 
HETATM   12  C   UNK N   1      27.096  19.705   5.901  0.00  0.00     0.042 A 
HETATM   13  C   UNK N   1      26.670  18.533   5.305  0.00  0.00     0.111 A 
HETATM   14  C   UNK N   1      26.960  17.320   5.805  0.00  0.00     0.113 A 
HETATM   15  O   UNK N   1      25.967  18.397   4.186  0.00  0.00    -0.256 OA
HETATM   16  C   UNK N   1      27.766  17.143   6.934  0.00  0.00     0.070 A 
HETATM   17  O   UNK N   1      26.420  16.390   5.020  0.00  0.00    -0.256 OA
HETATM   18  C   UNK N   1      25.790  17.033   3.947  0.00  0.00     0.498 A 
HETATM   19  F   UNK N   1      26.395  16.669   2.758  0.00  0.00    -0.147 F 
HETATM   20  F   UNK N   1      24.442  16.734   3.917  0.00  0.00    -0.147 F 
ENDBRANCH   8  10
BRANCH   2  21
HETATM   21  C   UNK N   1      32.609  16.803   5.323  0.00  0.00     0.013 A 
HETATM   22  C   UNK N   1      32.350  17.586   4.203  0.00  0.00     0.032 A 
HETATM   23  C   UNK N   1      32.724  17.122   2.939  0.00  0.00     0.088 A 
HETATM   24  N   UNK N   1      33.335  15.913   2.806  0.00  0.00    -0.375 N 
HETATM   25  C   UNK N   1      33.609  15.135   3.885  0.00  0.00     0.088 A 
ATOM     26  HN  UNK N   1      33.594  15.585   1.875  1.00  0.00     0.164 HD
HETATM   27  C   UNK N   1      33.237  15.560   5.157  0.00  0.00     0.032 A 
ENDBRANCH   2  21
BRANCH   1  28
HETATM   28  C   UNK N   1      34.137  17.449   8.013  0.00  0.00     0.160 C 
BRANCH  28  29
HETATM   29  C   UNK N   1      34.583  16.096   8.531  0.00  0.00     0.124 C 
BRANCH  29  30
HETATM   30  C   UNK N   1      35.163  16.254   9.910  0.00  0.00     0.220 C 
HETATM   31  N   UNK N   1      35.287  15.196  10.766  0.00  0.00    -0.361 N 
HETATM   32  C   UNK N   1      35.827  15.386  12.089  0.00  0.00     0.152 C 
HETATM   33  C   UNK N   1      34.906  13.864  10.378  0.00  0.00     0.152 C 
HETATM   34  O   UNK N   1      35.528  17.368  10.257  0.00  0.00    -0.273 OA
ENDBRANCH  29  30
ENDBRANCH  28  29
ENDBRANCH   1  28
TORSDOF 5
ENDMDL
MODEL 4
REMARK VINA RESULT:      -7.4      4.993      7.499
REMARK  5 active torsions:
REMARK  status: ('A' for Active; 'I' for Inactive)
REMARK       I    between atoms: N_2  and  C_4 
REMARK    1  A    between atoms: C_4  and  C_6 
REMARK    2  A    between atoms: C_6  and  C_7 
REMARK    3  A    between atoms: C_7  and  N_8 
REMARK    4  A    between atoms: C_9  and  C_27 
REMARK       I    between atoms: C_12  and  N_15 
REMARK    5  A    between atoms: N_15  and  C_16 
ROOT
HETATM    1  N   UNK N   1      29.839  16.789   4.422  0.00  0.00    -0.261 N 
HETATM    2  C   UNK N   1      29.925  17.047   5.747  0.00  0.00     0.148 A 
HETATM    3  N   UNK N   1      31.134  16.746   6.199  0.00  0.00    -0.173 N 
ATOM      4  HN  UNK N   1      31.475  16.806   7.158  1.00  0.00     0.186 HD
HETATM    5  C   UNK N   1      31.808  16.345   5.113  0.00  0.00     0.699 A 
HETATM    6  N   UNK N   1      31.024  16.348   4.012  0.00  0.00    -0.128 N 
ATOM      7  HN  UNK N   1      31.286  16.072   3.066  1.00  0.00     0.206 HD
HETATM    8  N   UNK N   1      33.206  16.096   5.162  0.00  0.00    -0.190 N 
HETATM    9  H   UNK N   1      33.678  15.670   4.411  0.00  0.00     0.184 HD
ENDROOT
BRANCH   8  10
HETATM   10  C   UNK N   1      33.899  16.490   6.350  0.00  0.00     0.052 A 
HETATM   11  C   UNK N   1      33.852  17.852   6.776  0.00  0.00     0.033 A 
HETATM   12  C   UNK N   1      34.253  18.229   8.060  0.00  0.00     0.042 A 
HETATM   13  C   UNK N   1      34.702  17.223   8.895  0.00  0.00     0.111 A 
HETATM   14  C   UNK N   1      34.810  15.945   8.496  0.00  0.00     0.113 A 
HETATM   15  O   UNK N   1      35.059  17.323  10.171  0.00  0.00    -0.256 OA
HETATM   16  C   UNK N   1      34.419  15.518   7.223  0.00  0.00     0.070 A 
HETATM   17  O   UNK N   1      35.263  15.213   9.511  0.00  0.00    -0.256 OA
HETATM   18  C   UNK N   1      35.416  16.051  10.623  0.00  0.00     0.498 A 
HETATM   19  F   UNK N   1      34.570  15.645  11.639  0.00  0.00    -0.147 F 
HETATM   20  F   UNK N   1      36.726  16.059  11.057  0.00  0.00    -0.147 F 
ENDBRANCH   8  10
BRANCH   2  21
HETATM   21  C   UNK N   1      28.964  17.725   6.625  0.00  0.00     0.013 A 
HETATM   22  C   UNK N   1      28.292  18.877   6.231  0.00  0.00     0.032 A 
HETATM   23  C   UNK N   1      27.552  19.597   7.173  0.00  0.00     0.088 A 
HETATM   24  N   UNK N   1      27.490  19.173   8.465  0.00  0.00    -0.375 N 
HETATM   25  C   UNK N   1      28.128  18.045   8.872  0.00  0.00     0.088 A 
ATOM     26  HN  UNK N   1      26.952  19.715   9.143  1.00  0.00     0.164 HD
HETATM   27  C   UNK N   1      28.885  17.312   7.963  0.00  0.00     0.032 A 
ENDBRANCH   2  21
BRANCH   1  28
HETATM   28  C   UNK N   1      28.671  16.970   3.570  0.00  0.00     0.160 C 
BRANCH  28  29
HETATM   29  C   UNK N   1      27.662  15.856   3.772  0.00  0.00     0.124 C 
BRANCH  29  30
HETATM   30  C   UNK N   1      26.287  16.448   3.917  0.00  0.00     0.220 C 
HETATM   31  N   UNK N   1      25.550  16.291   5.058  0.00  0.00    -0.361 N 
HETATM   32  C   UNK N   1      24.226  16.851   5.156  0.00  0.00     0.152 C 
HETATM   33  C   UNK N   1      26.070  15.583   6.198  0.00  0.00     0.152 C 
HETATM   34  O   UNK N   1      25.830  17.082   2.978  0.00  0.00    -0.273 OA
ENDBRANCH  29  30
ENDBRANCH  28  29
ENDBRANCH   1  28
TORSDOF 5
ENDMDL
MODEL 5
REMARK VINA RESULT:      -7.2      9.512     13.435
REMARK  5 active torsions:
REMARK  status: ('A' for Active; 'I' for Inactive)
REMARK       I    between atoms: N_2  and  C_4 
REMARK    1  A    between atoms: C_4  and  C_6 
REMARK    2  A    between atoms: C_6  and  C_7 
REMARK    3  A    between atoms: C_7  and  N_8 
REMARK    4  A    between atoms: C_9  and  C_27 
REMARK       I    between atoms: C_12  and  N_15 
REMARK    5  A    between atoms: N_15  and  C_16 
ROOT
HETATM    1  N   UNK N   1      35.019  16.905   9.279  0.00  0.00    -0.261 N 
HETATM    2  C   UNK N   1      35.175  15.602   8.955  0.00  0.00     0.148 A 
HETATM    3  N   UNK N   1      35.676  14.928   9.981  0.00  0.00    -0.173 N 
ATOM      4  HN  UNK N   1      35.928  13.940  10.016  1.00  0.00     0.186 HD
HETATM    5  C   UNK N   1      35.778  15.835  10.961  0.00  0.00     0.699 A 
HETATM    6  N   UNK N   1      35.395  17.062  10.544  0.00  0.00    -0.128 N 
ATOM      7  HN  UNK N   1      35.392  17.926  11.086  1.00  0.00     0.206 HD
HETATM    8  N   UNK N   1      36.121  15.455  12.286  0.00  0.00    -0.190 N 
HETATM    9  H   UNK N   1      36.333  16.127  12.974  0.00  0.00     0.184 HD
ENDROOT
BRANCH   8  10
HETATM   10  C   UNK N   1      36.146  14.055  12.580  0.00  0.00     0.052 A 
HETATM   11  C   UNK N   1      37.115  13.219  11.947  0.00  0.00     0.033 A 
HETATM   12  C   UNK N   1      37.375  11.926  12.409  0.00  0.00     0.042 A 
HETATM   13  C   UNK N   1      36.648  11.494  13.502  0.00  0.00     0.111 A 
HETATM   14  C   UNK N   1      35.692  12.242  14.076  0.00  0.00     0.113 A 
HETATM   15  O   UNK N   1      36.772  10.348  14.162  0.00  0.00    -0.256 OA
HETATM   16  C   UNK N   1      35.396  13.542  13.653  0.00  0.00     0.070 A 
HETATM   17  O   UNK N   1      35.173  11.568  15.100  0.00  0.00    -0.256 OA
HETATM   18  C   UNK N   1      35.854  10.349  15.212  0.00  0.00     0.498 A 
HETATM   19  F   UNK N   1      36.511  10.287  16.428  0.00  0.00    -0.147 F 
HETATM   20  F   UNK N   1      34.985   9.285  15.077  0.00  0.00    -0.147 F 
ENDBRANCH   8  10
BRANCH   2  21
HETATM   21  C   UNK N   1      34.730  14.882   7.756  0.00  0.00     0.013 A 
HETATM   22  C   UNK N   1      35.400  14.990   6.542  0.00  0.00     0.032 A 
HETATM   23  C   UNK N   1      34.820  14.456   5.388  0.00  0.00     0.088 A 
HETATM   24  N   UNK N   1      33.609  13.837   5.452  0.00  0.00    -0.375 N 
HETATM   25  C   UNK N   1      32.941  13.709   6.627  0.00  0.00     0.088 A 
ATOM     26  HN  UNK N   1      33.195  13.460   4.599  1.00  0.00     0.164 HD
HETATM   27  C   UNK N   1      33.483  14.242   7.793  0.00  0.00     0.032 A 
ENDBRANCH   2  21
BRANCH   1  28
HETATM   28  C   UNK N   1      34.516  17.965   8.416  0.00  0.00     0.160 C 
BRANCH  28  29
HETATM   29  C   UNK N   1      33.024  17.827   8.182  0.00  0.00     0.124 C 
BRANCH  29  30
HETATM   30  C   UNK N   1      32.765  17.613   6.717  0.00  0.00     0.220 C 
HETATM   31  N   UNK N   1      31.573  17.123   6.259  0.00  0.00    -0.361 N 
HETATM   32  C   UNK N   1      31.364  16.908   4.849  0.00  0.00     0.152 C 
HETATM   33  C   UNK N   1      30.488  16.825   7.155  0.00  0.00     0.152 C 
HETATM   34  O   UNK N   1      33.656  17.888   5.927  0.00  0.00    -0.273 OA
ENDBRANCH  29  30
ENDBRANCH  28  29
ENDBRANCH   1  28
TORSDOF 5
ENDMDL
MODEL 6
REMARK VINA RESULT:      -7.1      5.799     10.650
REMARK  5 active torsions:
REMARK  status: ('A' for Active; 'I' for Inactive)
REMARK       I    between atoms: N_2  and  C_4 
REMARK    1  A    between atoms: C_4  and  C_6 
REMARK    2  A    between atoms: C_6  and  C_7 
REMARK    3  A    between atoms: C_7  and  N_8 
REMARK    4  A    between atoms: C_9  and  C_27 
REMARK       I    between atoms: C_12  and  N_15 
REMARK    5  A    between atoms: N_15  and  C_16 
ROOT
HETATM    1  N   UNK N   1      32.031  17.152   7.317  0.00  0.00    -0.261 N 
HETATM    2  C   UNK N   1      31.610  16.765   6.092  0.00  0.00     0.148 A 
HETATM    3  N   UNK N   1      30.306  16.969   5.966  0.00  0.00    -0.173 N 
ATOM      4  HN  UNK N   1      29.713  16.744   5.167  1.00  0.00     0.186 HD
HETATM    5  C   UNK N   1      29.942  17.539   7.122  0.00  0.00     0.699 A 
HETATM    6  N   UNK N   1      30.986  17.644   7.974  0.00  0.00    -0.128 N 
ATOM      7  HN  UNK N   1      30.975  18.023   8.921  1.00  0.00     0.206 HD
HETATM    8  N   UNK N   1      28.636  18.066   7.306  0.00  0.00    -0.190 N 
HETATM    9  H   UNK N   1      28.320  18.357   8.192  0.00  0.00     0.184 HD
ENDROOT
BRANCH   8  10
HETATM   10  C   UNK N   1      27.798  18.157   6.151  0.00  0.00     0.052 A 
HETATM   11  C   UNK N   1      26.892  17.095   5.850  0.00  0.00     0.033 A 
HETATM   12  C   UNK N   1      25.860  17.258   4.923  0.00  0.00     0.042 A 
HETATM   13  C   UNK N   1      25.760  18.491   4.308  0.00  0.00     0.111 A 
HETATM   14  C   UNK N   1      26.636  19.485   4.532  0.00  0.00     0.113 A 
HETATM   15  O   UNK N   1      24.825  18.905   3.459  0.00  0.00    -0.256 OA
HETATM   16  C   UNK N   1      27.683  19.373   5.452  0.00  0.00     0.070 A 
HETATM   17  O   UNK N   1      26.283  20.544   3.806  0.00  0.00    -0.256 OA
HETATM   18  C   UNK N   1      25.106  20.228   3.115  0.00  0.00     0.498 A 
HETATM   19  F   UNK N   1      24.081  21.061   3.525  0.00  0.00    -0.147 F 
HETATM   20  F   UNK N   1      25.294  20.328   1.751  0.00  0.00    -0.147 F 
ENDBRANCH   8  10
BRANCH   2  21
HETATM   21  C   UNK N   1      32.399  16.341   4.929  0.00  0.00     0.013 A 
HETATM   22  C   UNK N   1      32.594  17.170   3.830  0.00  0.00     0.032 A 
HETATM   23  C   UNK N   1      33.171  16.648   2.669  0.00  0.00     0.088 A 
HETATM   24  N   UNK N   1      33.537  15.338   2.615  0.00  0.00    -0.375 N 
HETATM   25  C   UNK N   1      33.367  14.511   3.679  0.00  0.00     0.088 A 
ATOM     26  HN  UNK N   1      33.950  14.970   1.757  1.00  0.00     0.164 HD
HETATM   27  C   UNK N   1      32.783  14.995   4.845  0.00  0.00     0.032 A 
ENDBRANCH   2  21
BRANCH   1  28
HETATM   28  C   UNK N   1      33.387  17.069   7.841  0.00  0.00     0.160 C 
BRANCH  28  29
HETATM   29  C   UNK N   1      33.396  16.590   9.280  0.00  0.00     0.124 C 
BRANCH  29  30
HETATM   30  C   UNK N   1      34.817  16.423   9.743  0.00  0.00     0.220 C 
HETATM   31  N   UNK N   1      35.403  15.193   9.844  0.00  0.00    -0.361 N 
HETATM   32  C   UNK N   1      36.760  15.065  10.313  0.00  0.00     0.152 C 
HETATM   33  C   UNK N   1      34.703  13.992   9.473  0.00  0.00     0.152 C 
HETATM   34  O   UNK N   1      35.450  17.427  10.035  0.00  0.00    -0.273 OA
ENDBRANCH  29  30
ENDBRANCH  28  29
ENDBRANCH   1  28
TORSDOF 5
ENDMDL
MODEL 7
REMARK VINA RESULT:      -7.1     10.429     14.756
REMARK  5 active torsions:
REMARK  status: ('A' for Active; 'I' for Inactive)
REMARK       I    between atoms: N_2  and  C_4 
REMARK    1  A    between atoms: C_4  and  C_6 
REMARK    2  A    between atoms: C_6  and  C_7 
REMARK    3  A    between atoms: C_7  and  N_8 
REMARK    4  A    between atoms: C_9  and  C_27 
REMARK       I    between atoms: C_12  and  N_15 
REMARK    5  A    between atoms: N_15  and  C_16 
ROOT
HETATM    1  N   UNK N   1      35.718  13.709  12.721  0.00  0.00    -0.261 N 
HETATM    2  C   UNK N   1      35.057  12.996  11.781  0.00  0.00     0.148 A 
HETATM    3  N   UNK N   1      34.426  13.808  10.944  0.00  0.00    -0.173 N 
ATOM      4  HN  UNK N   1      33.825  13.553  10.160  1.00  0.00     0.186 HD
HETATM    5  C   UNK N   1      34.754  15.038  11.359  0.00  0.00     0.699 A 
HETATM    6  N   UNK N   1      35.535  14.999  12.462  0.00  0.00    -0.128 N 
ATOM      7  HN  UNK N   1      35.907  15.792  12.984  1.00  0.00     0.206 HD
HETATM    8  N   UNK N   1      34.404  16.190  10.604  0.00  0.00    -0.190 N 
HETATM    9  H   UNK N   1      34.517  17.097  10.970  0.00  0.00     0.184 HD
ENDROOT
BRANCH   8  10
HETATM   10  C   UNK N   1      33.878  15.977   9.291  0.00  0.00     0.052 A 
HETATM   11  C   UNK N   1      32.497  15.651   9.128  0.00  0.00     0.033 A 
HETATM   12  C   UNK N   1      31.874  15.723   7.880  0.00  0.00     0.042 A 
HETATM   13  C   UNK N   1      32.657  16.119   6.812  0.00  0.00     0.111 A 
HETATM   14  C   UNK N   1      33.970  16.374   6.932  0.00  0.00     0.113 A 
HETATM   15  O   UNK N   1      32.275  16.334   5.558  0.00  0.00    -0.256 OA
HETATM   16  C   UNK N   1      34.639  16.319   8.159  0.00  0.00     0.070 A 
HETATM   17  O   UNK N   1      34.451  16.734   5.743  0.00  0.00    -0.256 OA
HETATM   18  C   UNK N   1      33.391  16.748   4.828  0.00  0.00     0.498 A 
HETATM   19  F   UNK N   1      33.203  18.030   4.344  0.00  0.00    -0.147 F 
HETATM   20  F   UNK N   1      33.625  15.868   3.790  0.00  0.00    -0.147 F 
ENDBRANCH   8  10
BRANCH   2  21
HETATM   21  C   UNK N   1      35.099  11.554  11.507  0.00  0.00     0.013 A 
HETATM   22  C   UNK N   1      34.298  10.652  12.198  0.00  0.00     0.032 A 
HETATM   23  C   UNK N   1      34.524   9.280  12.050  0.00  0.00     0.088 A 
HETATM   24  N   UNK N   1      35.520   8.833  11.238  0.00  0.00    -0.375 N 
HETATM   25  C   UNK N   1      36.308   9.695  10.544  0.00  0.00     0.088 A 
ATOM     26  HN  UNK N   1      35.677   7.829  11.147  1.00  0.00     0.164 HD
HETATM   27  C   UNK N   1      36.120  11.067  10.679  0.00  0.00     0.032 A 
ENDBRANCH   2  21
BRANCH   1  28
HETATM   28  C   UNK N   1      36.509  13.179  13.822  0.00  0.00     0.160 C 
BRANCH  28  29
HETATM   29  C   UNK N   1      35.841  13.438  15.159  0.00  0.00     0.124 C 
BRANCH  29  30
HETATM   30  C   UNK N   1      35.768  12.155  15.939  0.00  0.00     0.220 C 
HETATM   31  N   UNK N   1      35.448  12.135  17.268  0.00  0.00    -0.361 N 
HETATM   32  C   UNK N   1      35.408  10.890  17.993  0.00  0.00     0.152 C 
HETATM   33  C   UNK N   1      35.126  13.342  17.982  0.00  0.00     0.152 C 
HETATM   34  O   UNK N   1      36.004  11.109  15.352  0.00  0.00    -0.273 OA
ENDBRANCH  29  30
ENDBRANCH  28  29
ENDBRANCH   1  28
TORSDOF 5
ENDMDL
MODEL 8
REMARK VINA RESULT:      -7.0      4.708      8.974
REMARK  5 active torsions:
REMARK  status: ('A' for Active; 'I' for Inactive)
REMARK       I    between atoms: N_2  and  C_4 
REMARK    1  A    between atoms: C_4  and  C_6 
REMARK    2  A    between atoms: C_6  and  C_7 
REMARK    3  A    between atoms: C_7  and  N_8 
REMARK    4  A    between atoms: C_9  and  C_27 
REMARK       I    between atoms: C_12  and  N_15 
REMARK    5  A    between atoms: N_15  and  C_16 
ROOT
HETATM    1  N   UNK N   1      29.663  17.754   4.339  0.00  0.00    -0.261 N 
HETATM    2  C   UNK N   1      28.631  16.901   4.150  0.00  0.00     0.148 A 
HETATM    3  N   UNK N   1      27.476  17.537   4.285  0.00  0.00    -0.173 N 
ATOM      4  HN  UNK N   1      26.536  17.144   4.229  1.00  0.00     0.186 HD
HETATM    5  C   UNK N   1      27.818  18.812   4.511  0.00  0.00     0.699 A 
HETATM    6  N   UNK N   1      29.161  18.963   4.565  0.00  0.00    -0.128 N 
ATOM      7  HN  UNK N   1      29.679  19.824   4.740  1.00  0.00     0.206 HD
HETATM    8  N   UNK N   1      26.844  19.845   4.541  0.00  0.00    -0.190 N 
HETATM    9  H   UNK N   1      27.069  20.754   4.843  0.00  0.00     0.184 HD
ENDROOT
BRANCH   8  10
HETATM   10  C   UNK N   1      25.520  19.508   4.115  0.00  0.00     0.052 A 
HETATM   11  C   UNK N   1      24.756  18.563   4.864  0.00  0.00     0.033 A 
HETATM   12  C   UNK N   1      23.380  18.420   4.670  0.00  0.00     0.042 A 
HETATM   13  C   UNK N   1      22.795  19.233   3.718  0.00  0.00     0.111 A 
HETATM   14  C   UNK N   1      23.503  20.087   2.962  0.00  0.00     0.113 A 
HETATM   15  O   UNK N   1      21.506  19.334   3.415  0.00  0.00    -0.256 OA
HETATM   16  C   UNK N   1      24.881  20.268   3.118  0.00  0.00     0.070 A 
HETATM   17  O   UNK N   1      22.673  20.731   2.144  0.00  0.00    -0.256 OA
HETATM   18  C   UNK N   1      21.368  20.298   2.414  0.00  0.00     0.498 A 
HETATM   19  F   UNK N   1      20.605  21.358   2.867  0.00  0.00    -0.147 F 
HETATM   20  F   UNK N   1      20.795  19.732   1.293  0.00  0.00    -0.147 F 
ENDBRANCH   8  10
BRANCH   2  21
HETATM   21  C   UNK N   1      28.648  15.509   3.683  0.00  0.00     0.013 A 
HETATM   22  C   UNK N   1      28.875  14.446   4.550  0.00  0.00     0.032 A 
HETATM   23  C   UNK N   1      29.089  13.167   4.028  0.00  0.00     0.088 A 
HETATM   24  N   UNK N   1      29.077  12.966   2.682  0.00  0.00    -0.375 N 
HETATM   25  C   UNK N   1      28.847  13.986   1.815  0.00  0.00     0.088 A 
ATOM     26  HN  UNK N   1      29.243  12.028   2.316  1.00  0.00     0.164 HD
HETATM   27  C   UNK N   1      28.644  15.274   2.301  0.00  0.00     0.032 A 
ENDBRANCH   2  21
BRANCH   1  28
HETATM   28  C   UNK N   1      31.083  17.431   4.293  0.00  0.00     0.160 C 
BRANCH  28  29
HETATM   29  C   UNK N   1      31.530  16.723   5.557  0.00  0.00     0.124 C 
BRANCH  29  30
HETATM   30  C   UNK N   1      32.739  17.419   6.120  0.00  0.00     0.220 C 
HETATM   31  N   UNK N   1      32.856  17.698   7.453  0.00  0.00    -0.361 N 
HETATM   32  C   UNK N   1      34.017  18.387   7.957  0.00  0.00     0.152 C 
HETATM   33  C   UNK N   1      31.844  17.302   8.396  0.00  0.00     0.152 C 
HETATM   34  O   UNK N   1      33.631  17.739   5.348  0.00  0.00    -0.273 OA
ENDBRANCH  29  30
ENDBRANCH  28  29
ENDBRANCH   1  28
TORSDOF 5
ENDMDL
MODEL 9
REMARK VINA RESULT:      -6.9      8.638     13.263
REMARK  5 active torsions:
REMARK  status: ('A' for Active; 'I' for Inactive)
REMARK       I    between atoms: N_2  and  C_4 
REMARK    1  A    between atoms: C_4  and  C_6 
REMARK    2  A    between atoms: C_6  and  C_7 
REMARK    3  A    between atoms: C_7  and  N_8 
REMARK    4  A    between atoms: C_9  and  C_27 
REMARK       I    between atoms: C_12  and  N_15 
REMARK    5  A    between atoms: N_15  and  C_16 
ROOT
HETATM    1  N   UNK N   1      35.396  14.468  10.634  0.00  0.00    -0.261 N 
HETATM    2  C   UNK N   1      34.640  14.034   9.600  0.00  0.00     0.148 A 
HETATM    3  N   UNK N   1      33.950  15.038   9.079  0.00  0.00    -0.173 N 
ATOM      4  HN  UNK N   1      33.276  15.002   8.314  1.00  0.00     0.186 HD
HETATM    5  C   UNK N   1      34.336  16.111   9.781  0.00  0.00     0.699 A 
HETATM    6  N   UNK N   1      35.213  15.779  10.754  0.00  0.00    -0.128 N 
ATOM      7  HN  UNK N   1      35.644  16.403  11.436  1.00  0.00     0.206 HD
HETATM    8  N   UNK N   1      33.938  17.422   9.404  0.00  0.00    -0.190 N 
HETATM    9  H   UNK N   1      34.100  18.196   9.991  0.00  0.00     0.184 HD
ENDROOT
BRANCH   8  10
HETATM   10  C   UNK N   1      33.292  17.571   8.137  0.00  0.00     0.052 A 
HETATM   11  C   UNK N   1      34.073  17.567   6.941  0.00  0.00     0.033 A 
HETATM   12  C   UNK N   1      33.483  17.414   5.685  0.00  0.00     0.042 A 
HETATM   13  C   UNK N   1      32.108  17.269   5.653  0.00  0.00     0.111 A 
HETATM   14  C   UNK N   1      31.349  17.328   6.759  0.00  0.00     0.113 A 
HETATM   15  O   UNK N   1      31.338  17.034   4.597  0.00  0.00    -0.256 OA
HETATM   16  C   UNK N   1      31.892  17.478   8.039  0.00  0.00     0.070 A 
HETATM   17  O   UNK N   1      30.074  17.154   6.417  0.00  0.00    -0.256 OA
HETATM   18  C   UNK N   1      30.017  16.935   5.035  0.00  0.00     0.498 A 
HETATM   19  F   UNK N   1      29.516  15.672   4.779  0.00  0.00    -0.147 F 
HETATM   20  F   UNK N   1      29.244  17.897   4.415  0.00  0.00    -0.147 F 
ENDBRANCH   8  10
BRANCH   2  21
HETATM   21  C   UNK N   1      34.632  12.721   8.942  0.00  0.00     0.013 A 
HETATM   22  C   UNK N   1      35.457  12.436   7.860  0.00  0.00     0.032 A 
HETATM   23  C   UNK N   1      35.263  11.253   7.143  0.00  0.00     0.088 A 
HETATM   24  N   UNK N   1      34.275  10.388   7.499  0.00  0.00    -0.375 N 
HETATM   25  C   UNK N   1      33.463  10.639   8.560  0.00  0.00     0.088 A 
ATOM     26  HN  UNK N   1      34.141   9.532   6.960  1.00  0.00     0.164 HD
HETATM   27  C   UNK N   1      33.620  11.815   9.287  0.00  0.00     0.032 A 
ENDBRANCH   2  21
BRANCH   1  28
HETATM   28  C   UNK N   1      36.275  13.665  11.472  0.00  0.00     0.160 C 
BRANCH  28  29
HETATM   29  C   UNK N   1      36.433  14.273  12.852  0.00  0.00     0.124 C 
BRANCH  29  30
HETATM   30  C   UNK N   1      35.555  13.538  13.827  0.00  0.00     0.220 C 
HETATM   31  N   UNK N   1      35.803  13.546  15.171  0.00  0.00    -0.361 N 
HETATM   32  C   UNK N   1      34.955  12.813  16.076  0.00  0.00     0.152 C 
HETATM   33  C   UNK N   1      36.898  14.295  15.729  0.00  0.00     0.152 C 
HETATM   34  O   UNK N   1      34.597  12.919  13.387  0.00  0.00    -0.273 OA
ENDBRANCH  29  30
ENDBRANCH  28  29
ENDBRANCH   1  28
TORSDOF 5
ENDMDL
