MODEL 1
REMARK VINA RESULT:      -9.4      0.000      0.000
REMARK  7 active torsions:
REMARK  status: ('A' for Active; 'I' for Inactive)
REMARK    1  A    between atoms: C_3  and  N_30 
REMARK    2  A    between atoms: C_5  and  N_9 
REMARK       I    between atoms: N_9  and  C_10 
REMARK    3  A    between atoms: C_10  and  C_12 
REMARK    4  A    between atoms: C_15  and  C_22 
REMARK    5  A    between atoms: C_16  and  C_18 
REMARK    6  A    between atoms: C_22  and  N_23 
REMARK       I    between atoms: N_30  and  C_31 
REMARK    7  A    between atoms: C_36  and  C_39 
ROOT
HETATM    1  C   UNK N   1      36.313  12.996   8.638  0.00  0.00     0.070 C 
HETATM    2  C   UNK N   1      36.051  13.278  10.076  0.00  0.00     0.032 A 
HETATM    3  C   UNK N   1      34.771  13.655  10.544  0.00  0.00     0.073 A 
HETATM    4  C   UNK N   1      34.565  13.778  11.900  0.00  0.00     0.063 A 
HETATM    5  C   UNK N   1      35.599  13.557  12.783  0.00  0.00     0.052 A 
HETATM    6  C   UNK N   1      36.867  13.236  12.293  0.00  0.00     0.117 A 
HETATM    7  N   UNK N   1      37.068  13.119  10.959  0.00  0.00    -0.365 N 
ATOM      8  HN  UNK N   1      38.004  12.906  10.612  1.00  0.00     0.165 HD
ENDROOT
BRANCH   5   9
HETATM    9  N   UNK N   1      35.212  13.238  14.087  0.00  0.00    -0.322 N 
HETATM   10  C   UNK N   1      35.937  13.538  15.185  0.00  0.00     0.256 C 
HETATM   11  O   UNK N   1      36.749  14.453  15.194  0.00  0.00    -0.267 OA
HETATM   12  H   UNK N   1      34.358  12.765  14.213  0.00  0.00     0.169 HD
BRANCH  10  13
HETATM   13  C   UNK N   1      35.890  12.588  16.277  0.00  0.00     0.033 A 
HETATM   14  C   UNK N   1      35.325  12.996  17.485  0.00  0.00     0.017 A 
HETATM   15  C   UNK N   1      35.234  12.117  18.535  0.00  0.00     0.011 A 
HETATM   16  C   UNK N   1      35.716  10.811  18.413  0.00  0.00    -0.015 A 
HETATM   17  C   UNK N   1      36.235  10.368  17.171  0.00  0.00     0.056 A 
HETATM   18  C   UNK N   1      36.298  11.271  16.105  0.00  0.00     0.034 A 
BRANCH  16  19
HETATM   19  C   UNK N   1      35.779   9.999  19.662  0.00  0.00     0.311 C 
BRANCH  19  20
HETATM   20  N   UNK N   1      34.389   9.849  20.075  0.00  0.00     0.096 N 
HETATM   21  C   UNK N   1      33.846   8.563  19.669  0.00  0.00     0.303 C 
HETATM   22  C   UNK N   1      32.325   8.670  19.750  0.00  0.00     0.302 C 
HETATM   23  N   UNK N   1      31.883   9.047  21.101  0.00  0.00     0.087 N 
HETATM   24  C   UNK N   1      32.630  10.188  21.667  0.00  0.00     0.302 C 
HETATM   25  C   UNK N   1      32.005   7.896  21.983  0.00  0.00     0.310 C 
HETATM   26  C   UNK N   1      34.150  10.046  21.489  0.00  0.00     0.303 C 
ENDBRANCH  19  20
ENDBRANCH  16  19
BRANCH  17  27
HETATM   27  C   UNK N   1      36.764   8.979  16.965  0.00  0.00     0.418 C 
HETATM   28  F   UNK N   1      35.716   8.080  16.991  0.00  0.00    -0.166 F 
HETATM   29  F   UNK N   1      37.662   8.641  17.968  0.00  0.00    -0.166 F 
HETATM   30  F   UNK N   1      37.417   8.900  15.749  0.00  0.00    -0.166 F 
ENDBRANCH  17  27
ENDBRANCH  10  13
ENDBRANCH   5   9
BRANCH   3  31
HETATM   31  N   UNK N   1      33.682  13.946   9.698  0.00  0.00    -0.190 N 
HETATM   32  C   UNK N   1      33.514  15.254   9.202  0.00  0.00     0.683 A 
HETATM   33  N   UNK N   1      34.567  16.114   9.182  0.00  0.00    -0.202 N 
HETATM   34  N   UNK N   1      32.268  15.702   8.919  0.00  0.00    -0.191 N 
HETATM   35  C   UNK N   1      34.415  17.406   8.823  0.00  0.00     0.108 A 
ATOM     36  HN  UNK N   1      35.492  15.774   9.443  1.00  0.00     0.183 HD
HETATM   37  C   UNK N   1      33.151  17.886   8.533  0.00  0.00     0.048 A 
HETATM   38  C   UNK N   1      32.063  17.009   8.596  0.00  0.00     0.062 A 
ATOM     39  HN  UNK N   1      31.478  15.057   8.949  1.00  0.00     0.184 HD
HETATM   40  H   UNK N   1      33.042  13.239   9.454  0.00  0.00     0.184 HD
BRANCH  38  41
HETATM   41  C   UNK N   1      30.700  17.518   8.406  0.00  0.00     0.007 A 
HETATM   42  C   UNK N   1      30.076  17.413   7.157  0.00  0.00     0.016 A 
HETATM   43  C   UNK N   1      28.805  17.945   6.966  0.00  0.00     0.018 A 
HETATM   44  C   UNK N   1      28.168  18.585   8.029  0.00  0.00     0.087 A 
HETATM   45  N   UNK N   1      28.784  18.683   9.239  0.00  0.00    -0.374 N 
HETATM   46  C   UNK N   1      30.026  18.170   9.446  0.00  0.00     0.101 A 
ATOM     47  HN  UNK N   1      28.304  19.151  10.007  1.00  0.00     0.164 HD
ENDBRANCH  38  41
ENDBRANCH   3  31
TORSDOF 7
ENDMDL
MODEL 2
REMARK VINA RESULT:      -9.1      7.515     12.642
REMARK  7 active torsions:
REMARK  status: ('A' for Active; 'I' for Inactive)
REMARK    1  A    between atoms: C_3  and  N_30 
REMARK    2  A    between atoms: C_5  and  N_9 
REMARK       I    between atoms: N_9  and  C_10 
REMARK    3  A    between atoms: C_10  and  C_12 
REMARK    4  A    between atoms: C_15  and  C_22 
REMARK    5  A    between atoms: C_16  and  C_18 
REMARK    6  A    between atoms: C_22  and  N_23 
REMARK       I    between atoms: N_30  and  C_31 
REMARK    7  A    between atoms: C_36  and  C_39 
ROOT
HETATM    1  C   UNK N   1      23.561  13.407   2.667  0.00  0.00     0.070 C 
HETATM    2  C   UNK N   1      24.358  14.488   3.308  0.00  0.00     0.032 A 
HETATM    3  C   UNK N   1      24.734  14.434   4.670  0.00  0.00     0.073 A 
HETATM    4  C   UNK N   1      25.577  15.402   5.170  0.00  0.00     0.063 A 
HETATM    5  C   UNK N   1      26.028  16.419   4.357  0.00  0.00     0.052 A 
HETATM    6  C   UNK N   1      25.599  16.480   3.028  0.00  0.00     0.117 A 
HETATM    7  N   UNK N   1      24.768  15.529   2.540  0.00  0.00    -0.365 N 
ATOM      8  HN  UNK N   1      24.445  15.596   1.574  1.00  0.00     0.165 HD
ENDROOT
BRANCH   5   9
HETATM    9  N   UNK N   1      27.201  17.047   4.781  0.00  0.00    -0.322 N 
HETATM   10  C   UNK N   1      28.433  16.510   4.661  0.00  0.00     0.256 C 
HETATM   11  O   UNK N   1      28.688  15.656   3.822  0.00  0.00    -0.267 OA
HETATM   12  H   UNK N   1      27.124  17.938   5.193  0.00  0.00     0.169 HD
BRANCH  10  13
HETATM   13  C   UNK N   1      29.378  16.807   5.717  0.00  0.00     0.033 A 
HETATM   14  C   UNK N   1      30.740  16.743   5.421  0.00  0.00     0.017 A 
HETATM   15  C   UNK N   1      31.670  17.047   6.385  0.00  0.00     0.011 A 
HETATM   16  C   UNK N   1      31.265  17.408   7.673  0.00  0.00    -0.015 A 
HETATM   17  C   UNK N   1      29.885  17.535   7.966  0.00  0.00     0.056 A 
HETATM   18  C   UNK N   1      28.953  17.245   6.965  0.00  0.00     0.034 A 
BRANCH  16  19
HETATM   19  C   UNK N   1      32.334  17.503   8.709  0.00  0.00     0.311 C 
BRANCH  19  20
HETATM   20  N   UNK N   1      33.030  16.224   8.640  0.00  0.00     0.096 N 
HETATM   21  C   UNK N   1      34.418  16.346   9.058  0.00  0.00     0.303 C 
HETATM   22  C   UNK N   1      35.151  15.106   8.551  0.00  0.00     0.302 C 
HETATM   23  N   UNK N   1      34.535  13.870   9.059  0.00  0.00     0.087 N 
HETATM   24  C   UNK N   1      33.067  13.843   8.910  0.00  0.00     0.302 C 
HETATM   25  C   UNK N   1      34.889  13.699  10.459  0.00  0.00     0.310 C 
HETATM   26  C   UNK N   1      32.401  15.148   9.374  0.00  0.00     0.303 C 
ENDBRANCH  19  20
ENDBRANCH  16  19
BRANCH  17  27
HETATM   27  C   UNK N   1      29.379  17.924   9.324  0.00  0.00     0.418 C 
HETATM   28  F   UNK N   1      29.610  16.892  10.212  0.00  0.00    -0.166 F 
HETATM   29  F   UNK N   1      28.016  18.180   9.287  0.00  0.00    -0.166 F 
HETATM   30  F   UNK N   1      30.026  19.066   9.757  0.00  0.00    -0.166 F 
ENDBRANCH  17  27
ENDBRANCH  10  13
ENDBRANCH   5   9
BRANCH   3  31
HETATM   31  N   UNK N   1      24.273  13.454   5.572  0.00  0.00    -0.190 N 
HETATM   32  C   UNK N   1      23.272  13.783   6.508  0.00  0.00     0.683 A 
HETATM   33  N   UNK N   1      22.475  14.863   6.299  0.00  0.00    -0.202 N 
HETATM   34  N   UNK N   1      23.233  13.131   7.694  0.00  0.00    -0.191 N 
HETATM   35  C   UNK N   1      21.587  15.274   7.229  0.00  0.00     0.108 A 
ATOM     36  HN  UNK N   1      22.549  15.374   5.419  1.00  0.00     0.183 HD
HETATM   37  C   UNK N   1      21.531  14.625   8.447  0.00  0.00     0.048 A 
HETATM   38  C   UNK N   1      22.384  13.540   8.676  0.00  0.00     0.062 A 
ATOM     39  HN  UNK N   1      23.844  12.330   7.852  1.00  0.00     0.184 HD
HETATM   40  H   UNK N   1      24.647  12.544   5.547  0.00  0.00     0.184 HD
BRANCH  38  41
HETATM   41  C   UNK N   1      22.426  12.908  10.000  0.00  0.00     0.007 A 
HETATM   42  C   UNK N   1      23.656  12.624  10.606  0.00  0.00     0.016 A 
HETATM   43  C   UNK N   1      23.693  11.976  11.836  0.00  0.00     0.018 A 
HETATM   44  C   UNK N   1      22.496  11.611  12.450  0.00  0.00     0.087 A 
HETATM   45  N   UNK N   1      21.305  11.890  11.852  0.00  0.00    -0.374 N 
HETATM   46  C   UNK N   1      21.248  12.522  10.649  0.00  0.00     0.101 A 
ATOM     47  HN  UNK N   1      20.439  11.619  12.315  1.00  0.00     0.164 HD
ENDBRANCH  38  41
ENDBRANCH   3  31
TORSDOF 7
ENDMDL
MODEL 3
REMARK VINA RESULT:      -8.9      4.865     12.420
REMARK  7 active torsions:
REMARK  status: ('A' for Active; 'I' for Inactive)
REMARK    1  A    between atoms: C_3  and  N_30 
REMARK    2  A    between atoms: C_5  and  N_9 
REMARK       I    between atoms: N_9  and  C_10 
REMARK    3  A    between atoms: C_10  and  C_12 
REMARK    4  A    between atoms: C_15  and  C_22 
REMARK    5  A    between atoms: C_16  and  C_18 
REMARK    6  A    between atoms: C_22  and  N_23 
REMARK       I    between atoms: N_30  and  C_31 
REMARK    7  A    between atoms: C_36  and  C_39 
ROOT
HETATM    1  C   UNK N   1      39.034  13.123   9.847  0.00  0.00     0.070 C 
HETATM    2  C   UNK N   1      37.650  13.615   9.607  0.00  0.00     0.032 A 
HETATM    3  C   UNK N   1      36.836  14.102  10.656  0.00  0.00     0.073 A 
HETATM    4  C   UNK N   1      35.614  14.659  10.350  0.00  0.00     0.063 A 
HETATM    5  C   UNK N   1      35.186  14.720   9.042  0.00  0.00     0.052 A 
HETATM    6  C   UNK N   1      35.985  14.184   8.029  0.00  0.00     0.117 A 
HETATM    7  N   UNK N   1      37.184  13.634   8.332  0.00  0.00    -0.365 N 
ATOM      8  HN  UNK N   1      37.750  13.226   7.587  1.00  0.00     0.165 HD
ENDROOT
BRANCH   5   9
HETATM    9  N   UNK N   1      34.212  15.686   8.777  0.00  0.00    -0.322 N 
HETATM   10  C   UNK N   1      32.920  15.579   9.149  0.00  0.00     0.256 C 
HETATM   11  O   UNK N   1      32.572  14.872  10.085  0.00  0.00    -0.267 OA
HETATM   12  H   UNK N   1      34.486  16.495   8.287  0.00  0.00     0.169 HD
BRANCH  10  13
HETATM   13  C   UNK N   1      31.934  16.144   8.251  0.00  0.00     0.033 A 
HETATM   14  C   UNK N   1      32.059  15.886   6.886  0.00  0.00     0.017 A 
HETATM   15  C   UNK N   1      31.129  16.378   6.004  0.00  0.00     0.011 A 
HETATM   16  C   UNK N   1      30.059  17.152   6.458  0.00  0.00    -0.015 A 
HETATM   17  C   UNK N   1      29.888  17.369   7.849  0.00  0.00     0.056 A 
HETATM   18  C   UNK N   1      30.832  16.840   8.734  0.00  0.00     0.034 A 
BRANCH  16  19
HETATM   19  C   UNK N   1      29.229  17.826   5.418  0.00  0.00     0.311 C 
BRANCH  19  20
HETATM   20  N   UNK N   1      28.575  16.736   4.704  0.00  0.00     0.096 N 
HETATM   21  C   UNK N   1      27.141  16.723   4.945  0.00  0.00     0.303 C 
HETATM   22  C   UNK N   1      26.628  15.345   4.533  0.00  0.00     0.302 C 
HETATM   23  N   UNK N   1      26.947  15.049   3.128  0.00  0.00     0.087 N 
HETATM   24  C   UNK N   1      28.352  15.334   2.774  0.00  0.00     0.302 C 
HETATM   25  C   UNK N   1      26.060  15.811   2.264  0.00  0.00     0.310 C 
HETATM   26  C   UNK N   1      28.822  16.707   3.279  0.00  0.00     0.303 C 
ENDBRANCH  19  20
ENDBRANCH  16  19
BRANCH  17  27
HETATM   27  C   UNK N   1      28.760  18.184   8.408  0.00  0.00     0.418 C 
HETATM   28  F   UNK N   1      28.967  18.389   9.757  0.00  0.00    -0.166 F 
HETATM   29  F   UNK N   1      27.549  17.528   8.241  0.00  0.00    -0.166 F 
HETATM   30  F   UNK N   1      28.691  19.401   7.756  0.00  0.00    -0.166 F 
ENDBRANCH  17  27
ENDBRANCH  10  13
ENDBRANCH   5   9
BRANCH   3  31
HETATM   31  N   UNK N   1      37.187  14.028  12.018  0.00  0.00    -0.190 N 
HETATM   32  C   UNK N   1      36.786  12.914  12.782  0.00  0.00     0.683 A 
HETATM   33  N   UNK N   1      36.439  11.755  12.163  0.00  0.00    -0.202 N 
HETATM   34  N   UNK N   1      36.575  13.062  14.112  0.00  0.00    -0.191 N 
HETATM   35  C   UNK N   1      35.940  10.708  12.855  0.00  0.00     0.108 A 
ATOM     36  HN  UNK N   1      36.559  11.674  11.154  1.00  0.00     0.183 HD
HETATM   37  C   UNK N   1      35.714  10.838  14.212  0.00  0.00     0.048 A 
HETATM   38  C   UNK N   1      36.032  12.047  14.839  0.00  0.00     0.062 A 
ATOM     39  HN  UNK N   1      36.823  13.938  14.570  1.00  0.00     0.184 HD
HETATM   40  H   UNK N   1      37.711  14.750  12.435  0.00  0.00     0.184 HD
BRANCH  38  41
HETATM   41  C   UNK N   1      35.695  12.250  16.253  0.00  0.00     0.007 A 
HETATM   42  C   UNK N   1      35.452  13.539  16.741  0.00  0.00     0.016 A 
HETATM   43  C   UNK N   1      35.185  13.734  18.092  0.00  0.00     0.018 A 
HETATM   44  C   UNK N   1      35.170  12.634  18.948  0.00  0.00     0.087 A 
HETATM   45  N   UNK N   1      35.409  11.384  18.464  0.00  0.00    -0.374 N 
HETATM   46  C   UNK N   1      35.672  11.173  17.147  0.00  0.00     0.101 A 
ATOM     47  HN  UNK N   1      35.392  10.590  19.103  1.00  0.00     0.164 HD
ENDBRANCH  38  41
ENDBRANCH   3  31
TORSDOF 7
ENDMDL
MODEL 4
REMARK VINA RESULT:      -8.7      7.964     13.454
REMARK  7 active torsions:
REMARK  status: ('A' for Active; 'I' for Inactive)
REMARK    1  A    between atoms: C_3  and  N_30 
REMARK    2  A    between atoms: C_5  and  N_9 
REMARK       I    between atoms: N_9  and  C_10 
REMARK    3  A    between atoms: C_10  and  C_12 
REMARK    4  A    between atoms: C_15  and  C_22 
REMARK    5  A    between atoms: C_16  and  C_18 
REMARK    6  A    between atoms: C_22  and  N_23 
REMARK       I    between atoms: N_30  and  C_31 
REMARK    7  A    between atoms: C_36  and  C_39 
ROOT
HETATM    1  C   UNK N   1      22.780  19.404   3.405  0.00  0.00     0.070 C 
HETATM    2  C   UNK N   1      23.981  18.907   4.130  0.00  0.00     0.032 A 
HETATM    3  C   UNK N   1      24.110  17.556   4.529  0.00  0.00     0.073 A 
HETATM    4  C   UNK N   1      25.297  17.133   5.084  0.00  0.00     0.063 A 
HETATM    5  C   UNK N   1      26.335  18.021   5.265  0.00  0.00     0.052 A 
HETATM    6  C   UNK N   1      26.165  19.362   4.911  0.00  0.00     0.117 A 
HETATM    7  N   UNK N   1      24.995  19.776   4.369  0.00  0.00    -0.365 N 
ATOM      8  HN  UNK N   1      24.875  20.762   4.135  1.00  0.00     0.165 HD
ENDROOT
BRANCH   5   9
HETATM    9  N   UNK N   1      27.602  17.444   5.372  0.00  0.00    -0.322 N 
HETATM   10  C   UNK N   1      28.107  16.934   6.515  0.00  0.00     0.256 C 
HETATM   11  O   UNK N   1      27.387  16.548   7.425  0.00  0.00    -0.267 OA
HETATM   12  H   UNK N   1      28.162  17.407   4.563  0.00  0.00     0.169 HD
BRANCH  10  13
HETATM   13  C   UNK N   1      29.533  17.083   6.720  0.00  0.00     0.033 A 
HETATM   14  C   UNK N   1      29.997  17.275   8.021  0.00  0.00     0.017 A 
HETATM   15  C   UNK N   1      31.344  17.390   8.263  0.00  0.00     0.011 A 
HETATM   16  C   UNK N   1      32.261  17.331   7.212  0.00  0.00    -0.015 A 
HETATM   17  C   UNK N   1      31.806  17.074   5.895  0.00  0.00     0.056 A 
HETATM   18  C   UNK N   1      30.433  16.936   5.671  0.00  0.00     0.034 A 
BRANCH  16  19
HETATM   19  C   UNK N   1      33.674  17.685   7.534  0.00  0.00     0.311 C 
BRANCH  19  20
HETATM   20  N   UNK N   1      34.067  16.733   8.565  0.00  0.00     0.096 N 
HETATM   21  C   UNK N   1      34.617  15.516   7.989  0.00  0.00     0.303 C 
HETATM   22  C   UNK N   1      34.589  14.448   9.081  0.00  0.00     0.302 C 
HETATM   23  N   UNK N   1      35.341  14.876  10.271  0.00  0.00     0.087 N 
HETATM   24  C   UNK N   1      35.009  16.244  10.714  0.00  0.00     0.302 C 
HETATM   25  C   UNK N   1      36.766  14.782   9.996  0.00  0.00     0.310 C 
HETATM   26  C   UNK N   1      34.987  17.252   9.555  0.00  0.00     0.303 C 
ENDBRANCH  19  20
ENDBRANCH  16  19
BRANCH  17  27
HETATM   27  C   UNK N   1      32.735  16.991   4.719  0.00  0.00     0.418 C 
HETATM   28  F   UNK N   1      33.355  18.212   4.539  0.00  0.00    -0.166 F 
HETATM   29  F   UNK N   1      32.038  16.674   3.562  0.00  0.00    -0.166 F 
HETATM   30  F   UNK N   1      33.685  16.012   4.940  0.00  0.00    -0.166 F 
ENDBRANCH  17  27
ENDBRANCH  10  13
ENDBRANCH   5   9
BRANCH   3  31
HETATM   31  N   UNK N   1      23.075  16.606   4.420  0.00  0.00    -0.190 N 
HETATM   32  C   UNK N   1      23.057  15.717   3.327  0.00  0.00     0.683 A 
HETATM   33  N   UNK N   1      24.194  15.485   2.620  0.00  0.00    -0.202 N 
HETATM   34  N   UNK N   1      21.870  15.244   2.876  0.00  0.00    -0.191 N 
HETATM   35  C   UNK N   1      24.187  14.732   1.500  0.00  0.00     0.108 A 
ATOM     36  HN  UNK N   1      25.073  15.887   2.946  1.00  0.00     0.183 HD
HETATM   37  C   UNK N   1      22.987  14.241   1.020  0.00  0.00     0.048 A 
HETATM   38  C   UNK N   1      21.812  14.518   1.726  0.00  0.00     0.062 A 
ATOM     39  HN  UNK N   1      21.017  15.433   3.401  1.00  0.00     0.184 HD
HETATM   40  H   UNK N   1      22.369  16.562   5.105  0.00  0.00     0.184 HD
BRANCH  38  41
HETATM   41  C   UNK N   1      20.514  14.108   1.177  0.00  0.00     0.007 A 
HETATM   42  C   UNK N   1      20.291  12.773   0.817  0.00  0.00     0.016 A 
HETATM   43  C   UNK N   1      19.079  12.398   0.247  0.00  0.00     0.018 A 
HETATM   44  C   UNK N   1      18.098  13.366   0.035  0.00  0.00     0.087 A 
HETATM   45  N   UNK N   1      18.325  14.661   0.387  0.00  0.00    -0.374 N 
HETATM   46  C   UNK N   1      19.503  15.048   0.945  0.00  0.00     0.101 A 
ATOM     47  HN  UNK N   1      17.597  15.356   0.228  1.00  0.00     0.164 HD
ENDBRANCH  38  41
ENDBRANCH   3  31
TORSDOF 7
ENDMDL
MODEL 5
REMARK VINA RESULT:      -8.7      4.235     11.659
REMARK  7 active torsions:
REMARK  status: ('A' for Active; 'I' for Inactive)
REMARK    1  A    between atoms: C_3  and  N_30 
REMARK    2  A    between atoms: C_5  and  N_9 
REMARK       I    between atoms: N_9  and  C_10 
REMARK    3  A    between atoms: C_10  and  C_12 
REMARK    4  A    between atoms: C_15  and  C_22 
REMARK    5  A    between atoms: C_16  and  C_18 
REMARK    6  A    between atoms: C_22  and  N_23 
REMARK       I    between atoms: N_30  and  C_31 
REMARK    7  A    between atoms: C_36  and  C_39 
ROOT
HETATM    1  C   UNK N   1      36.196   8.615  12.645  0.00  0.00     0.070 C 
HETATM    2  C   UNK N   1      35.608   9.283  11.452  0.00  0.00     0.032 A 
HETATM    3  C   UNK N   1      34.695  10.357  11.568  0.00  0.00     0.073 A 
HETATM    4  C   UNK N   1      34.286  11.012  10.428  0.00  0.00     0.063 A 
HETATM    5  C   UNK N   1      34.746  10.612   9.193  0.00  0.00     0.052 A 
HETATM    6  C   UNK N   1      35.606   9.515   9.100  0.00  0.00     0.117 A 
HETATM    7  N   UNK N   1      36.004   8.870  10.222  0.00  0.00    -0.365 N 
ATOM      8  HN  UNK N   1      36.616   8.056  10.140  1.00  0.00     0.165 HD
ENDROOT
BRANCH   5   9
HETATM    9  N   UNK N   1      34.676  11.579   8.187  0.00  0.00    -0.322 N 
HETATM   10  C   UNK N   1      35.444  12.688   8.150  0.00  0.00     0.256 C 
HETATM   11  O   UNK N   1      36.525  12.746   8.721  0.00  0.00    -0.267 OA
HETATM   12  H   UNK N   1      34.026  11.443   7.461  0.00  0.00     0.169 HD
BRANCH  10  13
HETATM   13  C   UNK N   1      34.834  13.884   7.609  0.00  0.00     0.033 A 
HETATM   14  C   UNK N   1      34.198  13.799   6.370  0.00  0.00     0.017 A 
HETATM   15  C   UNK N   1      33.581  14.904   5.835  0.00  0.00     0.011 A 
HETATM   16  C   UNK N   1      33.595  16.124   6.515  0.00  0.00    -0.015 A 
HETATM   17  C   UNK N   1      34.185  16.205   7.801  0.00  0.00     0.056 A 
HETATM   18  C   UNK N   1      34.787  15.065   8.340  0.00  0.00     0.034 A 
BRANCH  16  19
HETATM   19  C   UNK N   1      33.099  17.315   5.765  0.00  0.00     0.311 C 
BRANCH  19  20
HETATM   20  N   UNK N   1      31.757  16.945   5.332  0.00  0.00     0.096 N 
HETATM   21  C   UNK N   1      30.759  17.274   6.337  0.00  0.00     0.303 C 
HETATM   22  C   UNK N   1      29.499  16.482   5.997  0.00  0.00     0.302 C 
HETATM   23  N   UNK N   1      29.024  16.783   4.638  0.00  0.00     0.087 N 
HETATM   24  C   UNK N   1      30.092  16.742   3.620  0.00  0.00     0.302 C 
HETATM   25  C   UNK N   1      28.392  18.093   4.631  0.00  0.00     0.310 C 
HETATM   26  C   UNK N   1      31.355  17.500   4.057  0.00  0.00     0.303 C 
ENDBRANCH  19  20
ENDBRANCH  16  19
BRANCH  17  27
HETATM   27  C   UNK N   1      34.231  17.481   8.590  0.00  0.00     0.418 C 
HETATM   28  F   UNK N   1      32.944  17.929   8.813  0.00  0.00    -0.166 F 
HETATM   29  F   UNK N   1      34.927  18.462   7.899  0.00  0.00    -0.166 F 
HETATM   30  F   UNK N   1      34.865  17.263   9.799  0.00  0.00    -0.166 F 
ENDBRANCH  17  27
ENDBRANCH  10  13
ENDBRANCH   5   9
BRANCH   3  31
HETATM   31  N   UNK N   1      34.145  10.788  12.791  0.00  0.00    -0.190 N 
HETATM   32  C   UNK N   1      34.783  11.812  13.520  0.00  0.00     0.683 A 
HETATM   33  N   UNK N   1      35.651  12.650  12.896  0.00  0.00    -0.202 N 
HETATM   34  N   UNK N   1      34.666  11.838  14.869  0.00  0.00    -0.191 N 
HETATM   35  C   UNK N   1      36.366  13.565  13.585  0.00  0.00     0.108 A 
ATOM     36  HN  UNK N   1      35.765  12.587  11.885  1.00  0.00     0.183 HD
HETATM   37  C   UNK N   1      36.265  13.608  14.962  0.00  0.00     0.048 A 
HETATM   38  C   UNK N   1      35.402  12.715  15.606  0.00  0.00     0.062 A 
ATOM     39  HN  UNK N   1      34.024  11.198  15.335  1.00  0.00     0.184 HD
HETATM   40  H   UNK N   1      33.319  10.378  13.136  0.00  0.00     0.184 HD
BRANCH  38  41
HETATM   41  C   UNK N   1      35.363  12.662  17.072  0.00  0.00     0.007 A 
HETATM   42  C   UNK N   1      35.382  11.428  17.733  0.00  0.00     0.016 A 
HETATM   43  C   UNK N   1      35.290  11.379  19.120  0.00  0.00     0.018 A 
HETATM   44  C   UNK N   1      35.174  12.570  19.837  0.00  0.00     0.087 A 
HETATM   45  N   UNK N   1      35.154  13.764  19.185  0.00  0.00    -0.374 N 
HETATM   46  C   UNK N   1      35.242  13.833  17.829  0.00  0.00     0.101 A 
ATOM     47  HN  UNK N   1      35.072  14.626  19.723  1.00  0.00     0.164 HD
ENDBRANCH  38  41
ENDBRANCH   3  31
TORSDOF 7
ENDMDL
MODEL 6
REMARK VINA RESULT:      -8.7      1.685      2.144
REMARK  7 active torsions:
REMARK  status: ('A' for Active; 'I' for Inactive)
REMARK    1  A    between atoms: C_3  and  N_30 
REMARK    2  A    between atoms: C_5  and  N_9 
REMARK       I    between atoms: N_9  and  C_10 
REMARK    3  A    between atoms: C_10  and  C_12 
REMARK    4  A    between atoms: C_15  and  C_22 
REMARK    5  A    between atoms: C_16  and  C_18 
REMARK    6  A    between atoms: C_22  and  N_23 
REMARK       I    between atoms: N_30  and  C_31 
REMARK    7  A    between atoms: C_36  and  C_39 
ROOT
HETATM    1  C   UNK N   1      37.430  14.082   9.083  0.00  0.00     0.070 C 
HETATM    2  C   UNK N   1      37.111  13.979  10.533  0.00  0.00     0.032 A 
HETATM    3  C   UNK N   1      36.062  14.720  11.125  0.00  0.00     0.073 A 
HETATM    4  C   UNK N   1      35.738  14.485  12.442  0.00  0.00     0.063 A 
HETATM    5  C   UNK N   1      36.441  13.555  13.176  0.00  0.00     0.052 A 
HETATM    6  C   UNK N   1      37.508  12.874  12.584  0.00  0.00     0.117 A 
HETATM    7  N   UNK N   1      37.827  13.109  11.290  0.00  0.00    -0.365 N 
ATOM      8  HN  UNK N   1      38.621  12.621  10.875  1.00  0.00     0.165 HD
ENDROOT
BRANCH   5   9
HETATM    9  N   UNK N   1      35.775  13.049  14.294  0.00  0.00    -0.322 N 
HETATM   10  C   UNK N   1      35.993  13.467  15.558  0.00  0.00     0.256 C 
HETATM   11  O   UNK N   1      36.453  14.575  15.803  0.00  0.00    -0.267 OA
HETATM   12  H   UNK N   1      35.104  12.342  14.151  0.00  0.00     0.169 HD
BRANCH  10  13
HETATM   13  C   UNK N   1      35.886  12.470  16.602  0.00  0.00     0.033 A 
HETATM   14  C   UNK N   1      35.366  12.858  17.837  0.00  0.00     0.017 A 
HETATM   15  C   UNK N   1      35.220  11.937  18.845  0.00  0.00     0.011 A 
HETATM   16  C   UNK N   1      35.603  10.607  18.651  0.00  0.00    -0.015 A 
HETATM   17  C   UNK N   1      36.075  10.189  17.382  0.00  0.00     0.056 A 
HETATM   18  C   UNK N   1      36.194  11.136  16.361  0.00  0.00     0.034 A 
BRANCH  16  19
HETATM   19  C   UNK N   1      35.618   9.731  19.859  0.00  0.00     0.311 C 
BRANCH  19  20
HETATM   20  N   UNK N   1      34.220   9.633  20.261  0.00  0.00     0.096 N 
HETATM   21  C   UNK N   1      33.638   8.360  19.868  0.00  0.00     0.303 C 
HETATM   22  C   UNK N   1      32.121   8.519  19.933  0.00  0.00     0.302 C 
HETATM   23  N   UNK N   1      31.680   8.929  21.275  0.00  0.00     0.087 N 
HETATM   24  C   UNK N   1      32.459  10.053  21.831  0.00  0.00     0.302 C 
HETATM   25  C   UNK N   1      31.756   7.788  22.174  0.00  0.00     0.310 C 
HETATM   26  C   UNK N   1      33.975   9.858  21.669  0.00  0.00     0.303 C 
ENDBRANCH  19  20
ENDBRANCH  16  19
BRANCH  17  27
HETATM   27  C   UNK N   1      36.497   8.776  17.102  0.00  0.00     0.418 C 
HETATM   28  F   UNK N   1      35.387   7.955  17.113  0.00  0.00    -0.166 F 
HETATM   29  F   UNK N   1      37.388   8.329  18.066  0.00  0.00    -0.166 F 
HETATM   30  F   UNK N   1      37.116   8.707  15.868  0.00  0.00    -0.166 F 
ENDBRANCH  17  27
ENDBRANCH  10  13
ENDBRANCH   5   9
BRANCH   3  31
HETATM   31  N   UNK N   1      35.333  15.720  10.450  0.00  0.00    -0.190 N 
HETATM   32  C   UNK N   1      34.218  15.362   9.667  0.00  0.00     0.683 A 
HETATM   33  N   UNK N   1      33.599  14.169   9.870  0.00  0.00    -0.202 N 
HETATM   34  N   UNK N   1      33.885  16.125   8.599  0.00  0.00    -0.191 N 
HETATM   35  C   UNK N   1      32.604  13.744   9.063  0.00  0.00     0.108 A 
ATOM     36  HN  UNK N   1      33.893  13.582  10.651  1.00  0.00     0.183 HD
HETATM   37  C   UNK N   1      32.249  14.505   7.966  0.00  0.00     0.048 A 
HETATM   38  C   UNK N   1      32.917  15.712   7.734  0.00  0.00     0.062 A 
ATOM     39  HN  UNK N   1      34.361  17.012   8.441  1.00  0.00     0.184 HD
HETATM   40  H   UNK N   1      35.601  16.664  10.526  0.00  0.00     0.184 HD
BRANCH  38  41
HETATM   41  C   UNK N   1      32.640  16.481   6.515  0.00  0.00     0.007 A 
HETATM   42  C   UNK N   1      31.319  16.698   6.104  0.00  0.00     0.016 A 
HETATM   43  C   UNK N   1      31.061  17.380   4.920  0.00  0.00     0.018 A 
HETATM   44  C   UNK N   1      32.131  17.836   4.150  0.00  0.00     0.087 A 
HETATM   45  N   UNK N   1      33.411  17.619   4.558  0.00  0.00    -0.374 N 
HETATM   46  C   UNK N   1      33.684  16.954   5.712  0.00  0.00     0.101 A 
ATOM     47  HN  UNK N   1      34.182  17.961   3.985  1.00  0.00     0.164 HD
ENDBRANCH  38  41
ENDBRANCH   3  31
TORSDOF 7
ENDMDL
MODEL 7
REMARK VINA RESULT:      -8.7      7.586     12.866
REMARK  7 active torsions:
REMARK  status: ('A' for Active; 'I' for Inactive)
REMARK    1  A    between atoms: C_3  and  N_30 
REMARK    2  A    between atoms: C_5  and  N_9 
REMARK       I    between atoms: N_9  and  C_10 
REMARK    3  A    between atoms: C_10  and  C_12 
REMARK    4  A    between atoms: C_15  and  C_22 
REMARK    5  A    between atoms: C_16  and  C_18 
REMARK    6  A    between atoms: C_22  and  N_23 
REMARK       I    between atoms: N_30  and  C_31 
REMARK    7  A    between atoms: C_36  and  C_39 
ROOT
HETATM    1  C   UNK N   1      24.161  20.518   3.021  0.00  0.00     0.070 C 
HETATM    2  C   UNK N   1      25.028  19.790   3.987  0.00  0.00     0.032 A 
HETATM    3  C   UNK N   1      24.893  18.401   4.215  0.00  0.00     0.073 A 
HETATM    4  C   UNK N   1      25.806  17.765   5.026  0.00  0.00     0.063 A 
HETATM    5  C   UNK N   1      26.823  18.479   5.621  0.00  0.00     0.052 A 
HETATM    6  C   UNK N   1      26.904  19.859   5.422  0.00  0.00     0.117 A 
HETATM    7  N   UNK N   1      26.003  20.483   4.628  0.00  0.00    -0.365 N 
ATOM      8  HN  UNK N   1      26.059  21.495   4.507  1.00  0.00     0.165 HD
ENDROOT
BRANCH   5   9
HETATM    9  N   UNK N   1      27.933  17.726   6.010  0.00  0.00    -0.322 N 
HETATM   10  C   UNK N   1      28.480  17.765   7.243  0.00  0.00     0.256 C 
HETATM   11  O   UNK N   1      27.837  18.113   8.225  0.00  0.00    -0.267 OA
HETATM   12  H   UNK N   1      28.343  17.129   5.343  0.00  0.00     0.169 HD
BRANCH  10  13
HETATM   13  C   UNK N   1      29.917  17.611   7.324  0.00  0.00     0.033 A 
HETATM   14  C   UNK N   1      30.517  17.664   8.582  0.00  0.00     0.017 A 
HETATM   15  C   UNK N   1      31.874  17.492   8.706  0.00  0.00     0.011 A 
HETATM   16  C   UNK N   1      32.669  17.277   7.577  0.00  0.00    -0.015 A 
HETATM   17  C   UNK N   1      32.061  17.159   6.302  0.00  0.00     0.056 A 
HETATM   18  C   UNK N   1      30.676  17.313   6.199  0.00  0.00     0.034 A 
BRANCH  16  19
HETATM   19  C   UNK N   1      34.146  17.323   7.779  0.00  0.00     0.311 C 
BRANCH  19  20
HETATM   20  N   UNK N   1      34.413  16.307   8.789  0.00  0.00     0.096 N 
HETATM   21  C   UNK N   1      35.091  15.152   8.221  0.00  0.00     0.303 C 
HETATM   22  C   UNK N   1      34.938  14.005   9.217  0.00  0.00     0.302 C 
HETATM   23  N   UNK N   1      35.480  14.361  10.537  0.00  0.00     0.087 N 
HETATM   24  C   UNK N   1      35.031  15.682  11.019  0.00  0.00     0.302 C 
HETATM   25  C   UNK N   1      36.933  14.328  10.483  0.00  0.00     0.310 C 
HETATM   26  C   UNK N   1      35.148  16.775   9.944  0.00  0.00     0.303 C 
ENDBRANCH  19  20
ENDBRANCH  16  19
BRANCH  17  27
HETATM   27  C   UNK N   1      32.852  16.922   5.049  0.00  0.00     0.418 C 
HETATM   28  F   UNK N   1      33.610  18.041   4.767  0.00  0.00    -0.166 F 
HETATM   29  F   UNK N   1      32.009  16.676   3.975  0.00  0.00    -0.166 F 
HETATM   30  F   UNK N   1      33.679  15.827   5.215  0.00  0.00    -0.166 F 
ENDBRANCH  17  27
ENDBRANCH  10  13
ENDBRANCH   5   9
BRANCH   3  31
HETATM   31  N   UNK N   1      23.850  17.618   3.681  0.00  0.00    -0.190 N 
HETATM   32  C   UNK N   1      22.716  17.335   4.468  0.00  0.00     0.683 A 
HETATM   33  N   UNK N   1      22.424  18.113   5.543  0.00  0.00    -0.202 N 
HETATM   34  N   UNK N   1      22.032  16.185   4.257  0.00  0.00    -0.191 N 
HETATM   35  C   UNK N   1      21.415  17.802   6.385  0.00  0.00     0.108 A 
ATOM     36  HN  UNK N   1      22.978  18.951   5.717  1.00  0.00     0.183 HD
HETATM   37  C   UNK N   1      20.705  16.632   6.190  0.00  0.00     0.048 A 
HETATM   38  C   UNK N   1      21.037  15.811   5.107  0.00  0.00     0.062 A 
ATOM     39  HN  UNK N   1      22.264  15.596   3.458  1.00  0.00     0.184 HD
HETATM   40  H   UNK N   1      23.913  17.271   2.762  0.00  0.00     0.184 HD
BRANCH  38  41
HETATM   41  C   UNK N   1      20.377  14.510   4.946  0.00  0.00     0.007 A 
HETATM   42  C   UNK N   1      20.736  13.432   5.763  0.00  0.00     0.016 A 
HETATM   43  C   UNK N   1      20.148  12.186   5.572  0.00  0.00     0.018 A 
HETATM   44  C   UNK N   1      19.206  12.027   4.556  0.00  0.00     0.087 A 
HETATM   45  N   UNK N   1      18.865  13.081   3.765  0.00  0.00    -0.374 N 
HETATM   46  C   UNK N   1      19.429  14.307   3.936  0.00  0.00     0.101 A 
ATOM     47  HN  UNK N   1      18.173  12.949   3.029  1.00  0.00     0.164 HD
ENDBRANCH  38  41
ENDBRANCH   3  31
TORSDOF 7
ENDMDL
MODEL 8
REMARK VINA RESULT:      -8.6      5.007     12.567
REMARK  7 active torsions:
REMARK  status: ('A' for Active; 'I' for Inactive)
REMARK    1  A    between atoms: C_3  and  N_30 
REMARK    2  A    between atoms: C_5  and  N_9 
REMARK       I    between atoms: N_9  and  C_10 
REMARK    3  A    between atoms: C_10  and  C_12 
REMARK    4  A    between atoms: C_15  and  C_22 
REMARK    5  A    between atoms: C_16  and  C_18 
REMARK    6  A    between atoms: C_22  and  N_23 
REMARK       I    between atoms: N_30  and  C_31 
REMARK    7  A    between atoms: C_36  and  C_39 
ROOT
HETATM    1  C   UNK N   1      39.057  12.259   9.908  0.00  0.00     0.070 C 
HETATM    2  C   UNK N   1      37.683  12.762   9.634  0.00  0.00     0.032 A 
HETATM    3  C   UNK N   1      36.889  13.357  10.641  0.00  0.00     0.073 A 
HETATM    4  C   UNK N   1      35.679  13.916  10.295  0.00  0.00     0.063 A 
HETATM    5  C   UNK N   1      35.242  13.875   8.989  0.00  0.00     0.052 A 
HETATM    6  C   UNK N   1      36.021  13.235   8.022  0.00  0.00     0.117 A 
HETATM    7  N   UNK N   1      37.209  12.684   8.365  0.00  0.00    -0.365 N 
ATOM      8  HN  UNK N   1      37.759  12.200   7.654  1.00  0.00     0.165 HD
ENDROOT
BRANCH   5   9
HETATM    9  N   UNK N   1      34.290  14.838   8.648  0.00  0.00    -0.322 N 
HETATM   10  C   UNK N   1      32.994  14.563   8.391  0.00  0.00     0.256 C 
HETATM   11  O   UNK N   1      32.446  13.561   8.830  0.00  0.00    -0.267 OA
HETATM   12  H   UNK N   1      34.583  15.776   8.590  0.00  0.00     0.169 HD
BRANCH  10  13
HETATM   13  C   UNK N   1      32.344  15.372   7.381  0.00  0.00     0.033 A 
HETATM   14  C   UNK N   1      31.211  16.100   7.747  0.00  0.00     0.017 A 
HETATM   15  C   UNK N   1      30.582  16.903   6.828  0.00  0.00     0.011 A 
HETATM   16  C   UNK N   1      31.058  16.991   5.517  0.00  0.00    -0.015 A 
HETATM   17  C   UNK N   1      32.243  16.305   5.153  0.00  0.00     0.056 A 
HETATM   18  C   UNK N   1      32.884  15.510   6.108  0.00  0.00     0.034 A 
BRANCH  16  19
HETATM   19  C   UNK N   1      30.191  17.706   4.536  0.00  0.00     0.311 C 
BRANCH  19  20
HETATM   20  N   UNK N   1      28.943  16.954   4.530  0.00  0.00     0.096 N 
HETATM   21  C   UNK N   1      27.800  17.815   4.268  0.00  0.00     0.303 C 
HETATM   22  C   UNK N   1      26.551  17.051   4.703  0.00  0.00     0.302 C 
HETATM   23  N   UNK N   1      26.436  15.764   4.001  0.00  0.00     0.087 N 
HETATM   24  C   UNK N   1      27.688  14.982   3.999  0.00  0.00     0.302 C 
HETATM   25  C   UNK N   1      26.005  16.002   2.632  0.00  0.00     0.310 C 
HETATM   26  C   UNK N   1      28.913  15.829   3.621  0.00  0.00     0.303 C 
ENDBRANCH  19  20
ENDBRANCH  16  19
BRANCH  17  27
HETATM   27  C   UNK N   1      32.815  16.359   3.766  0.00  0.00     0.418 C 
HETATM   28  F   UNK N   1      31.947  15.741   2.888  0.00  0.00    -0.166 F 
HETATM   29  F   UNK N   1      34.038  15.706   3.713  0.00  0.00    -0.166 F 
HETATM   30  F   UNK N   1      33.004  17.674   3.387  0.00  0.00    -0.166 F 
ENDBRANCH  17  27
ENDBRANCH  10  13
ENDBRANCH   5   9
BRANCH   3  31
HETATM   31  N   UNK N   1      37.248  13.391  12.004  0.00  0.00    -0.190 N 
HETATM   32  C   UNK N   1      36.787  12.382  12.872  0.00  0.00     0.683 A 
HETATM   33  N   UNK N   1      36.362  11.193  12.368  0.00  0.00    -0.202 N 
HETATM   34  N   UNK N   1      36.598  12.669  14.182  0.00  0.00    -0.191 N 
HETATM   35  C   UNK N   1      35.806  10.251  13.158  0.00  0.00     0.108 A 
ATOM     36  HN  UNK N   1      36.467  11.010  11.371  1.00  0.00     0.183 HD
HETATM   37  C   UNK N   1      35.602  10.523  14.498  0.00  0.00     0.048 A 
HETATM   38  C   UNK N   1      36.000  11.764  15.005  0.00  0.00     0.062 A 
ATOM     39  HN  UNK N   1      36.905  13.567  14.554  1.00  0.00     0.184 HD
HETATM   40  H   UNK N   1      37.820  14.115  12.347  0.00  0.00     0.184 HD
BRANCH  38  41
HETATM   41  C   UNK N   1      35.690  12.121  16.394  0.00  0.00     0.007 A 
HETATM   42  C   UNK N   1      35.469  13.458  16.745  0.00  0.00     0.016 A 
HETATM   43  C   UNK N   1      35.228  13.800  18.072  0.00  0.00     0.018 A 
HETATM   44  C   UNK N   1      35.217  12.798  19.041  0.00  0.00     0.087 A 
HETATM   45  N   UNK N   1      35.435  11.501  18.690  0.00  0.00    -0.374 N 
HETATM   46  C   UNK N   1      35.673  11.147  17.399  0.00  0.00     0.101 A 
ATOM     47  HN  UNK N   1      35.421  10.780  19.411  1.00  0.00     0.164 HD
ENDBRANCH  38  41
ENDBRANCH   3  31
TORSDOF 7
ENDMDL
MODEL 9
REMARK VINA RESULT:      -8.5      2.371      3.056
REMARK  7 active torsions:
REMARK  status: ('A' for Active; 'I' for Inactive)
REMARK    1  A    between atoms: C_3  and  N_30 
REMARK    2  A    between atoms: C_5  and  N_9 
REMARK       I    between atoms: N_9  and  C_10 
REMARK    3  A    between atoms: C_10  and  C_12 
REMARK    4  A    between atoms: C_15  and  C_22 
REMARK    5  A    between atoms: C_16  and  C_18 
REMARK    6  A    between atoms: C_22  and  N_23 
REMARK       I    between atoms: N_30  and  C_31 
REMARK    7  A    between atoms: C_36  and  C_39 
ROOT
HETATM    1  C   UNK N   1      37.146  14.575   9.725  0.00  0.00     0.070 C 
HETATM    2  C   UNK N   1      36.687  14.066  11.046  0.00  0.00     0.032 A 
HETATM    3  C   UNK N   1      35.364  14.266  11.507  0.00  0.00     0.073 A 
HETATM    4  C   UNK N   1      34.967  13.662  12.679  0.00  0.00     0.063 A 
HETATM    5  C   UNK N   1      35.853  12.893  13.400  0.00  0.00     0.052 A 
HETATM    6  C   UNK N   1      37.169  12.754  12.951  0.00  0.00     0.117 A 
HETATM    7  N   UNK N   1      37.559  13.351  11.800  0.00  0.00    -0.365 N 
ATOM      8  HN  UNK N   1      38.528  13.260  11.493  1.00  0.00     0.165 HD
ENDROOT
BRANCH   5   9
HETATM    9  N   UNK N   1      35.271  11.967  14.269  0.00  0.00    -0.322 N 
HETATM   10  C   UNK N   1      34.748  12.284  15.472  0.00  0.00     0.256 C 
HETATM   11  O   UNK N   1      34.354  13.413  15.729  0.00  0.00    -0.267 OA
HETATM   12  H   UNK N   1      35.242  11.025  13.987  0.00  0.00     0.169 HD
BRANCH  10  13
HETATM   13  C   UNK N   1      34.889  11.298  16.524  0.00  0.00     0.033 A 
HETATM   14  C   UNK N   1      34.671   9.958  16.207  0.00  0.00     0.017 A 
HETATM   15  C   UNK N   1      34.823   8.988  17.167  0.00  0.00     0.011 A 
HETATM   16  C   UNK N   1      35.185   9.333  18.472  0.00  0.00    -0.015 A 
HETATM   17  C   UNK N   1      35.469  10.685  18.789  0.00  0.00     0.056 A 
HETATM   18  C   UNK N   1      35.331  11.655  17.792  0.00  0.00     0.034 A 
BRANCH  16  19
HETATM   19  C   UNK N   1      35.111   8.250  19.496  0.00  0.00     0.311 C 
BRANCH  19  20
HETATM   20  N   UNK N   1      33.723   7.807  19.465  0.00  0.00     0.096 N 
HETATM   21  C   UNK N   1      33.615   6.371  19.674  0.00  0.00     0.303 C 
HETATM   22  C   UNK N   1      32.224   5.952  19.202  0.00  0.00     0.302 C 
HETATM   23  N   UNK N   1      31.169   6.687  19.916  0.00  0.00     0.087 N 
HETATM   24  C   UNK N   1      31.405   8.143  19.974  0.00  0.00     0.302 C 
HETATM   25  C   UNK N   1      31.044   6.158  21.265  0.00  0.00     0.310 C 
HETATM   26  C   UNK N   1      32.844   8.493  20.387  0.00  0.00     0.303 C 
ENDBRANCH  19  20
ENDBRANCH  16  19
BRANCH  17  27
HETATM   27  C   UNK N   1      35.868  11.125  20.167  0.00  0.00     0.418 C 
HETATM   28  F   UNK N   1      36.036  12.496  20.179  0.00  0.00    -0.166 F 
HETATM   29  F   UNK N   1      37.063  10.531  20.547  0.00  0.00    -0.166 F 
HETATM   30  F   UNK N   1      34.892  10.766  21.076  0.00  0.00    -0.166 F 
ENDBRANCH  17  27
ENDBRANCH  10  13
ENDBRANCH   5   9
BRANCH   3  31
HETATM   31  N   UNK N   1      34.420  15.078  10.848  0.00  0.00    -0.190 N 
HETATM   32  C   UNK N   1      33.764  14.594   9.699  0.00  0.00     0.683 A 
HETATM   33  N   UNK N   1      33.713  13.257   9.458  0.00  0.00    -0.202 N 
HETATM   34  N   UNK N   1      33.350  15.470   8.753  0.00  0.00    -0.191 N 
HETATM   35  C   UNK N   1      33.197  12.767   8.311  0.00  0.00     0.108 A 
ATOM     36  HN  UNK N   1      34.073  12.611  10.159  1.00  0.00     0.183 HD
HETATM   37  C   UNK N   1      32.770  13.643   7.330  0.00  0.00     0.048 A 
HETATM   38  C   UNK N   1      32.863  15.019   7.564  0.00  0.00     0.062 A 
ATOM     39  HN  UNK N   1      33.402  16.472   8.932  1.00  0.00     0.184 HD
HETATM   40  H   UNK N   1      34.218  15.979  11.190  0.00  0.00     0.184 HD
BRANCH  38  41
HETATM   41  C   UNK N   1      32.525  15.967   6.497  0.00  0.00     0.007 A 
HETATM   42  C   UNK N   1      31.195  16.353   6.292  0.00  0.00     0.016 A 
HETATM   43  C   UNK N   1      30.872  17.211   5.245  0.00  0.00     0.018 A 
HETATM   44  C   UNK N   1      31.885  17.672   4.405  0.00  0.00     0.087 A 
HETATM   45  N   UNK N   1      33.175  17.289   4.612  0.00  0.00    -0.374 N 
HETATM   46  C   UNK N   1      33.512  16.451   5.629  0.00  0.00     0.101 A 
ATOM     47  HN  UNK N   1      33.904  17.637   3.990  1.00  0.00     0.164 HD
ENDBRANCH  38  41
ENDBRANCH   3  31
TORSDOF 7
ENDMDL
