REMARK  14 active torsions:
REMARK  status: ('A' for Active; 'I' for Inactive)
REMARK    1  A    between atoms: C_6  and  C_8 
REMARK       I    between atoms: C_8  and  N_10 
REMARK    2  A    between atoms: C_11  and  N_10 
REMARK    3  A    between atoms: C_11  and  C_12 
REMARK    4  A    between atoms: C_11  and  C_15 
REMARK    5  A    between atoms: C_12  and  O_13 
REMARK       I    between atoms: C_15  and  N_17 
REMARK    6  A    between atoms: C_18  and  N_17 
REMARK    7  A    between atoms: C_18  and  C_19 
REMARK    8  A    between atoms: C_18  and  C_22 
REMARK    9  A    between atoms: C_19  and  O_20 
REMARK       I    between atoms: C_22  and  N_24 
REMARK   10  A    between atoms: C_25  and  N_24 
REMARK   11  A    between atoms: C_25  and  C_26 
REMARK   12  A    between atoms: C_25  and  C_33 
REMARK   13  A    between atoms: C_26  and  C_27 
REMARK   14  A    between atoms: C_35  and  C_33 
ROOT
HETATM    1  C   UNK N   1       6.044  -3.865   0.523  0.00  0.00     0.200 C 
ENDROOT
BRANCH   1   2
HETATM    2  N   UNK N   1       4.789  -4.584   0.635  0.00  0.00    -0.344 N 
HETATM    3  C   UNK N   1       3.645  -4.193   0.029  0.00  0.00     0.243 C 
HETATM    4  O   UNK N   1       3.605  -3.133  -0.585  0.00  0.00    -0.271 OA
HETATM    5  H   UNK N   1       4.768  -5.402   1.183  0.00  0.00     0.163 HD
BRANCH   3   6
HETATM    6  C   UNK N   1       2.413  -5.053   0.090  0.00  0.00     0.200 C 
BRANCH   6   7
HETATM    7  N   UNK N   1       1.329  -4.241  -0.385  0.00  0.00    -0.341 N 
HETATM    8  C   UNK N   1       0.140  -4.154   0.234  0.00  0.00     0.260 C 
HETATM    9  O   UNK N   1      -0.221  -5.017   1.027  0.00  0.00    -0.267 OA
HETATM   10  H   UNK N   1       1.465  -3.720  -1.210  0.00  0.00     0.163 HD
BRANCH   8  11
HETATM   11  C   UNK N   1      -0.641  -2.932   0.053  0.00  0.00     0.089 A 
HETATM   12  C   UNK N   1      -0.176  -1.776  -0.598  0.00  0.00     0.113 A 
HETATM   13  N   UNK N   1      -1.023  -0.693  -0.504  0.00  0.00    -0.362 N 
HETATM   14  C   UNK N   1      -2.140  -0.973   0.213  0.00  0.00     0.047 A 
ATOM     15  HN  UNK N   1      -0.831   0.216  -0.926  1.00  0.00     0.165 HD
HETATM   16  C   UNK N   1      -3.214   0.010   0.497  0.00  0.00     0.076 C 
HETATM   17  S   UNK N   1      -2.091  -2.540   0.734  0.00  0.00    -0.070 SA
ENDBRANCH   8  11
ENDBRANCH   6   7
BRANCH   6  18
HETATM   18  C   UNK N   1       2.581  -6.297  -0.773  0.00  0.00     0.202 C 
BRANCH  18  19
HETATM   19  O   UNK N   1       3.409  -7.223  -0.135  0.00  0.00    -0.393 OA
HETATM   20  C   UNK N   1       2.552  -8.256   0.248  0.00  0.00     0.201 C 
ENDBRANCH  18  19
ENDBRANCH   6  18
ENDBRANCH   3   6
ENDBRANCH   1   2
BRANCH   1  21
HETATM   21  C   UNK N   1       6.030  -2.444   1.118  0.00  0.00     0.202 C 
BRANCH  21  22
HETATM   22  O   UNK N   1       5.407  -1.507   0.288  0.00  0.00    -0.393 OA
HETATM   23  C   UNK N   1       6.353  -0.498   0.105  0.00  0.00     0.201 C 
ENDBRANCH  21  22
ENDBRANCH   1  21
BRANCH   1  24
HETATM   24  C   UNK N   1       6.612  -3.982  -0.871  0.00  0.00     0.243 C 
HETATM   25  O   UNK N   1       6.047  -3.445  -1.810  0.00  0.00    -0.271 OA
HETATM   26  N   UNK N   1       7.738  -4.705  -1.100  0.00  0.00    -0.347 N 
HETATM   27  H   UNK N   1       8.047  -4.799  -2.031  0.00  0.00     0.163 HD
BRANCH  26  28
HETATM   28  C   UNK N   1       8.514  -5.348  -0.055  0.00  0.00     0.162 C 
BRANCH  28  29
HETATM   29  C   UNK N   1       7.682  -6.432   0.647  0.00  0.00     0.071 C 
BRANCH  29  30
HETATM   30  C   UNK N   1       7.907  -7.794   0.095  0.00  0.00    -0.056 A 
HETATM   31  C   UNK N   1       9.174  -8.381   0.182  0.00  0.00     0.007 A 
HETATM   32  C   UNK N   1       9.377  -9.680  -0.288  0.00  0.00     0.001 A 
HETATM   33  C   UNK N   1       8.311 -10.399  -0.837  0.00  0.00     0.000 A 
HETATM   34  C   UNK N   1       7.042  -9.818  -0.917  0.00  0.00     0.001 A 
HETATM   35  C   UNK N   1       6.838  -8.516  -0.447  0.00  0.00     0.007 A 
ENDBRANCH  29  30
ENDBRANCH  28  29
BRANCH  28  36
HETATM   36  C   UNK N   1       9.057  -4.347   0.955  0.00  0.00     0.185 C 
HETATM   37  O   UNK N   1       9.130  -4.674   2.131  0.00  0.00    -0.292 OA
BRANCH  36  38
HETATM   38  C   UNK N   1       9.491  -2.945   0.573  0.00  0.00     0.141 A 
HETATM   39  C   UNK N   1       9.398  -2.428  -0.814  0.00  0.00     0.215 A 
HETATM   40  O   UNK N   1      10.582  -2.995  -0.313  0.00  0.00    -0.367 OA
HETATM   41  C   UNK N   1       9.755  -1.927   1.666  0.00  0.00     0.057 C 
ENDBRANCH  36  38
ENDBRANCH  28  36
ENDBRANCH  26  28
ENDBRANCH   1  24
TORSDOF 14
