MODEL 1
REMARK VINA RESULT:      -8.6      0.000      0.000
REMARK  3 active torsions:
REMARK  status: ('A' for Active; 'I' for Inactive)
REMARK    1  A    between atoms: N_7  and  C_8 
REMARK    2  A    between atoms: C_12  and  C_28 
REMARK       I    between atoms: C_18  and  N_21 
REMARK    3  A    between atoms: C_32  and  C_34 
REMARK       I    between atoms: C_34  and  N_36 
ROOT
HETATM    1  C   UNK N   1      34.499  10.879  11.349  0.00  0.00     0.133 A 
HETATM    2  C   UNK N   1      34.649  11.054  12.762  0.00  0.00     0.053 A 
HETATM    3  C   UNK N   1      34.669  10.005  13.704  0.00  0.00     0.021 A 
HETATM    4  C   UNK N   1      34.810  10.270  15.074  0.00  0.00     0.031 A 
HETATM    5  C   UNK N   1      34.937  11.599  15.496  0.00  0.00     0.044 A 
HETATM    6  N   UNK N   1      34.933  12.590  14.572  0.00  0.00    -0.341 N 
ATOM      7  HN  UNK N   1      35.035  13.554  14.891  1.00  0.00     0.167 HD
HETATM    8  C   UNK N   1      34.797  12.362  13.251  0.00  0.00     0.135 A 
HETATM    9  N   UNK N   1      34.814  13.411  12.410  0.00  0.00    -0.175 N 
ATOM     10  HN  UNK N   1      34.936  14.349  12.791  1.00  0.00     0.186 HD
HETATM   11  C   UNK N   1      34.672  13.257  11.077  0.00  0.00     0.684 A 
HETATM   12  N   UNK N   1      34.507  12.003  10.560  0.00  0.00    -0.176 N 
ATOM     13  HN  UNK N   1      34.385  11.898   9.553  1.00  0.00     0.186 HD
HETATM   14  N   UNK N   1      34.728  14.416  10.240  0.00  0.00    -0.209 N 
HETATM   15  C   UNK N   1      34.995  15.701  10.888  0.00  0.00     0.168 C 
HETATM   16  C   UNK N   1      35.056  16.861   9.903  0.00  0.00     0.188 C 
HETATM   17  O   UNK N   1      34.049  16.701   8.950  0.00  0.00    -0.388 OA
HETATM   18  C   UNK N   1      34.538  15.696   8.113  0.00  0.00     0.193 C 
HETATM   19  C   UNK N   1      34.450  14.330   8.804  0.00  0.00     0.122 C 
HETATM   20  C   UNK N   1      35.438  13.415   8.107  0.00  0.00     0.035 C 
ENDROOT
BRANCH   5  21
HETATM   21  C   UNK N   1      35.054  11.988  16.912  0.00  0.00    -0.009 A 
HETATM   22  C   UNK N   1      35.013  13.318  17.352  0.00  0.00     0.014 A 
HETATM   23  C   UNK N   1      35.155  13.600  18.719  0.00  0.00     0.002 A 
HETATM   24  C   UNK N   1      35.345  12.559  19.643  0.00  0.00     0.017 A 
HETATM   25  C   UNK N   1      35.388  11.229  19.199  0.00  0.00     0.032 A 
HETATM   26  C   UNK N   1      35.241  10.966  17.843  0.00  0.00     0.030 A 
BRANCH  25  27
HETATM   27  C   UNK N   1      35.594  10.095  20.124  0.00  0.00     0.251 C 
HETATM   28  O   UNK N   1      36.097   9.055  19.721  0.00  0.00    -0.268 OA
HETATM   29  N   UNK N   1      35.216  10.216  21.423  0.00  0.00    -0.361 N 
HETATM   30  C   UNK N   1      35.381   9.152  22.380  0.00  0.00     0.149 C 
HETATM   31  H   UNK N   1      34.813  11.063  21.722  0.00  0.00     0.162 HD
ENDBRANCH  25  27
ENDBRANCH   5  21
BRANCH   1  32
HETATM   32  N   UNK N   1      34.373   9.573  10.725  0.00  0.00    -0.358 N 
HETATM   33  C   UNK N   1      33.062   8.942  10.618  0.00  0.00     0.151 C 
HETATM   34  C   UNK N   1      33.177   7.439  10.426  0.00  0.00     0.187 C 
HETATM   35  O   UNK N   1      33.987   7.199   9.314  0.00  0.00    -0.388 OA
HETATM   36  C   UNK N   1      35.285   7.475   9.753  0.00  0.00     0.192 C 
HETATM   37  C   UNK N   1      35.492   8.983   9.965  0.00  0.00     0.105 C 
HETATM   38  C   UNK N   1      36.816   9.084  10.699  0.00  0.00     0.034 C 
ENDBRANCH   1  32
TORSDOF 3
ENDMDL
MODEL 2
REMARK VINA RESULT:      -8.2     10.116     14.219
REMARK  3 active torsions:
REMARK  status: ('A' for Active; 'I' for Inactive)
REMARK    1  A    between atoms: N_7  and  C_8 
REMARK    2  A    between atoms: C_12  and  C_28 
REMARK       I    between atoms: C_18  and  N_21 
REMARK    3  A    between atoms: C_32  and  C_34 
REMARK       I    between atoms: C_34  and  N_36 
ROOT
HETATM    1  C   UNK N   1      23.236  15.428   5.730  0.00  0.00     0.133 A 
HETATM    2  C   UNK N   1      24.602  15.823   5.562  0.00  0.00     0.053 A 
HETATM    3  C   UNK N   1      25.074  16.664   4.532  0.00  0.00     0.021 A 
HETATM    4  C   UNK N   1      26.434  16.991   4.436  0.00  0.00     0.031 A 
HETATM    5  C   UNK N   1      27.323  16.474   5.386  0.00  0.00     0.044 A 
HETATM    6  N   UNK N   1      26.845  15.682   6.377  0.00  0.00    -0.341 N 
ATOM      7  HN  UNK N   1      27.501  15.318   7.068  1.00  0.00     0.167 HD
HETATM    8  C   UNK N   1      25.544  15.351   6.490  0.00  0.00     0.135 A 
HETATM    9  N   UNK N   1      25.165  14.566   7.513  0.00  0.00    -0.175 N 
ATOM     10  HN  UNK N   1      25.867  14.248   8.181  1.00  0.00     0.186 HD
HETATM   11  C   UNK N   1      23.880  14.187   7.682  0.00  0.00     0.684 A 
HETATM   12  N   UNK N   1      22.934  14.608   6.791  0.00  0.00    -0.176 N 
ATOM     13  HN  UNK N   1      21.969  14.304   6.917  1.00  0.00     0.186 HD
HETATM   14  N   UNK N   1      23.545  13.373   8.810  0.00  0.00    -0.209 N 
HETATM   15  C   UNK N   1      24.620  13.050   9.749  0.00  0.00     0.168 C 
HETATM   16  C   UNK N   1      24.147  12.202  10.922  0.00  0.00     0.188 C 
HETATM   17  O   UNK N   1      23.250  11.239  10.455  0.00  0.00    -0.388 OA
HETATM   18  C   UNK N   1      22.073  11.959  10.235  0.00  0.00     0.193 C 
HETATM   19  C   UNK N   1      22.197  12.821   8.973  0.00  0.00     0.122 C 
HETATM   20  C   UNK N   1      21.163  13.923   9.086  0.00  0.00     0.035 C 
ENDROOT
BRANCH   5  21
HETATM   21  C   UNK N   1      28.773  16.726   5.356  0.00  0.00    -0.009 A 
HETATM   22  C   UNK N   1      29.469  17.094   4.196  0.00  0.00     0.014 A 
HETATM   23  C   UNK N   1      30.857  17.293   4.253  0.00  0.00     0.002 A 
HETATM   24  C   UNK N   1      31.549  17.119   5.463  0.00  0.00     0.017 A 
HETATM   25  C   UNK N   1      30.850  16.749   6.622  0.00  0.00     0.032 A 
HETATM   26  C   UNK N   1      29.476  16.560   6.550  0.00  0.00     0.030 A 
BRANCH  25  27
HETATM   27  C   UNK N   1      31.528  16.544   7.920  0.00  0.00     0.251 C 
HETATM   28  O   UNK N   1      31.595  17.457   8.730  0.00  0.00    -0.268 OA
HETATM   29  N   UNK N   1      32.077  15.334   8.203  0.00  0.00    -0.361 N 
HETATM   30  C   UNK N   1      32.755  15.063   9.443  0.00  0.00     0.149 C 
HETATM   31  H   UNK N   1      32.009  14.616   7.533  0.00  0.00     0.162 HD
ENDBRANCH  25  27
ENDBRANCH   5  21
BRANCH   1  32
HETATM   32  N   UNK N   1      22.170  15.880   4.855  0.00  0.00    -0.358 N 
HETATM   33  C   UNK N   1      21.924  15.191   3.593  0.00  0.00     0.151 C 
HETATM   34  C   UNK N   1      21.161  16.069   2.614  0.00  0.00     0.187 C 
HETATM   35  O   UNK N   1      19.987  16.501   3.234  0.00  0.00    -0.388 OA
HETATM   36  C   UNK N   1      20.404  17.478   4.143  0.00  0.00     0.192 C 
HETATM   37  C   UNK N   1      21.164  16.852   5.323  0.00  0.00     0.105 C 
HETATM   38  C   UNK N   1      21.782  18.035   6.044  0.00  0.00     0.034 C 
ENDBRANCH   1  32
TORSDOF 3
ENDMDL
MODEL 3
REMARK VINA RESULT:      -8.2     10.935     14.386
REMARK  3 active torsions:
REMARK  status: ('A' for Active; 'I' for Inactive)
REMARK    1  A    between atoms: N_7  and  C_8 
REMARK    2  A    between atoms: C_12  and  C_28 
REMARK       I    between atoms: C_18  and  N_21 
REMARK    3  A    between atoms: C_32  and  C_34 
REMARK       I    between atoms: C_34  and  N_36 
ROOT
HETATM    1  C   UNK N   1      23.069  15.658   5.801  0.00  0.00     0.133 A 
HETATM    2  C   UNK N   1      24.493  15.806   5.773  0.00  0.00     0.053 A 
HETATM    3  C   UNK N   1      25.407  14.898   6.349  0.00  0.00     0.021 A 
HETATM    4  C   UNK N   1      26.789  15.129   6.284  0.00  0.00     0.031 A 
HETATM    5  C   UNK N   1      27.253  16.276   5.631  0.00  0.00     0.044 A 
HETATM    6  N   UNK N   1      26.358  17.127   5.070  0.00  0.00    -0.341 N 
ATOM      7  HN  UNK N   1      26.710  17.955   4.589  1.00  0.00     0.167 HD
HETATM    8  C   UNK N   1      25.026  16.929   5.120  0.00  0.00     0.135 A 
HETATM    9  N   UNK N   1      24.219  17.825   4.526  0.00  0.00    -0.175 N 
ATOM     10  HN  UNK N   1      24.633  18.624   4.047  1.00  0.00     0.186 HD
HETATM   11  C   UNK N   1      22.876  17.695   4.546  0.00  0.00     0.684 A 
HETATM   12  N   UNK N   1      22.314  16.628   5.186  0.00  0.00    -0.176 N 
ATOM     13  HN  UNK N   1      21.297  16.546   5.210  1.00  0.00     0.186 HD
HETATM   14  N   UNK N   1      22.079  18.672   3.868  0.00  0.00    -0.209 N 
HETATM   15  C   UNK N   1      22.786  19.728   3.141  0.00  0.00     0.168 C 
HETATM   16  C   UNK N   1      21.844  20.697   2.438  0.00  0.00     0.188 C 
HETATM   17  O   UNK N   1      20.760  20.965   3.277  0.00  0.00    -0.388 OA
HETATM   18  C   UNK N   1      19.975  19.813   3.185  0.00  0.00     0.193 C 
HETATM   19  C   UNK N   1      20.617  18.660   3.966  0.00  0.00     0.122 C 
HETATM   20  C   UNK N   1      20.041  17.373   3.411  0.00  0.00     0.035 C 
ENDROOT
BRANCH   5  21
HETATM   21  C   UNK N   1      28.679  16.630   5.537  0.00  0.00    -0.009 A 
HETATM   22  C   UNK N   1      29.290  17.066   4.353  0.00  0.00     0.014 A 
HETATM   23  C   UNK N   1      30.662  17.361   4.349  0.00  0.00     0.002 A 
HETATM   24  C   UNK N   1      31.423  17.215   5.521  0.00  0.00     0.017 A 
HETATM   25  C   UNK N   1      30.809  16.776   6.704  0.00  0.00     0.032 A 
HETATM   26  C   UNK N   1      29.450  16.493   6.693  0.00  0.00     0.030 A 
BRANCH  25  27
HETATM   27  C   UNK N   1      31.562  16.596   7.963  0.00  0.00     0.251 C 
HETATM   28  O   UNK N   1      31.751  17.548   8.708  0.00  0.00    -0.268 OA
HETATM   29  N   UNK N   1      32.042  15.367   8.284  0.00  0.00    -0.361 N 
HETATM   30  C   UNK N   1      32.787  15.118   9.491  0.00  0.00     0.149 C 
HETATM   31  H   UNK N   1      31.876  14.618   7.667  0.00  0.00     0.162 HD
ENDBRANCH  25  27
ENDBRANCH   5  21
BRANCH   1  32
HETATM   32  N   UNK N   1      22.406  14.523   6.416  0.00  0.00    -0.358 N 
HETATM   33  C   UNK N   1      22.107  14.541   7.843  0.00  0.00     0.151 C 
HETATM   34  C   UNK N   1      21.899  13.138   8.391  0.00  0.00     0.187 C 
HETATM   35  O   UNK N   1      20.904  12.515   7.636  0.00  0.00    -0.388 OA
HETATM   36  C   UNK N   1      21.522  12.200   6.423  0.00  0.00     0.192 C 
HETATM   37  C   UNK N   1      21.794  13.463   5.592  0.00  0.00     0.105 C 
HETATM   38  C   UNK N   1      22.704  12.991   4.473  0.00  0.00     0.034 C 
ENDBRANCH   1  32
TORSDOF 3
ENDMDL
MODEL 4
REMARK VINA RESULT:      -8.1      2.450      3.225
REMARK  3 active torsions:
REMARK  status: ('A' for Active; 'I' for Inactive)
REMARK    1  A    between atoms: N_7  and  C_8 
REMARK    2  A    between atoms: C_12  and  C_28 
REMARK       I    between atoms: C_18  and  N_21 
REMARK    3  A    between atoms: C_32  and  C_34 
REMARK       I    between atoms: C_34  and  N_36 
ROOT
HETATM    1  C   UNK N   1      36.187  12.566   9.654  0.00  0.00     0.133 A 
HETATM    2  C   UNK N   1      36.346  12.921  11.032  0.00  0.00     0.053 A 
HETATM    3  C   UNK N   1      36.851  12.060  12.030  0.00  0.00     0.021 A 
HETATM    4  C   UNK N   1      36.963  12.489  13.360  0.00  0.00     0.031 A 
HETATM    5  C   UNK N   1      36.571  13.792  13.687  0.00  0.00     0.044 A 
HETATM    6  N   UNK N   1      36.105  14.608  12.709  0.00  0.00    -0.341 N 
ATOM      7  HN  UNK N   1      35.830  15.558  12.958  1.00  0.00     0.167 HD
HETATM    8  C   UNK N   1      35.986  14.220  11.424  0.00  0.00     0.135 A 
HETATM    9  N   UNK N   1      35.521  15.104  10.524  0.00  0.00    -0.175 N 
ATOM     10  HN  UNK N   1      35.278  16.045  10.833  1.00  0.00     0.186 HD
HETATM   11  C   UNK N   1      35.366  14.780   9.223  0.00  0.00     0.684 A 
HETATM   12  N   UNK N   1      35.687  13.521   8.802  0.00  0.00    -0.176 N 
ATOM     13  HN  UNK N   1      35.552  13.280   7.820  1.00  0.00     0.186 HD
HETATM   14  N   UNK N   1      34.892  15.780   8.316  0.00  0.00    -0.209 N 
HETATM   15  C   UNK N   1      34.660  17.121   8.856  0.00  0.00     0.168 C 
HETATM   16  C   UNK N   1      34.182  18.111   7.801  0.00  0.00     0.188 C 
HETATM   17  O   UNK N   1      33.263  17.474   6.964  0.00  0.00    -0.388 OA
HETATM   18  C   UNK N   1      34.061  16.671   6.145  0.00  0.00     0.193 C 
HETATM   19  C   UNK N   1      34.578  15.454   6.923  0.00  0.00     0.122 C 
HETATM   20  C   UNK N   1      35.803  14.946   6.188  0.00  0.00     0.035 C 
ENDROOT
BRANCH   5  21
HETATM   21  C   UNK N   1      36.614  14.329  15.057  0.00  0.00    -0.009 A 
HETATM   22  C   UNK N   1      37.229  15.544  15.392  0.00  0.00     0.014 A 
HETATM   23  C   UNK N   1      37.243  15.968  16.729  0.00  0.00     0.002 A 
HETATM   24  C   UNK N   1      36.651  15.181  17.730  0.00  0.00     0.017 A 
HETATM   25  C   UNK N   1      36.038  13.965  17.393  0.00  0.00     0.032 A 
HETATM   26  C   UNK N   1      36.029  13.560  16.064  0.00  0.00     0.030 A 
BRANCH  25  27
HETATM   27  C   UNK N   1      35.407  13.092  18.405  0.00  0.00     0.251 C 
HETATM   28  O   UNK N   1      34.894  13.578  19.403  0.00  0.00    -0.268 OA
HETATM   29  N   UNK N   1      35.405  11.746  18.219  0.00  0.00    -0.361 N 
HETATM   30  C   UNK N   1      34.813  10.835  19.163  0.00  0.00     0.149 C 
HETATM   31  H   UNK N   1      35.824  11.381  17.406  0.00  0.00     0.162 HD
ENDBRANCH  25  27
ENDBRANCH   5  21
BRANCH   1  32
HETATM   32  N   UNK N   1      36.557  11.266   9.126  0.00  0.00    -0.358 N 
HETATM   33  C   UNK N   1      35.603  10.164   9.169  0.00  0.00     0.151 C 
HETATM   34  C   UNK N   1      36.296   8.816   9.062  0.00  0.00     0.187 C 
HETATM   35  O   UNK N   1      37.075   8.813   7.903  0.00  0.00    -0.388 OA
HETATM   36  C   UNK N   1      38.177   9.615   8.214  0.00  0.00     0.192 C 
HETATM   37  C   UNK N   1      37.777  11.096   8.313  0.00  0.00     0.105 C 
HETATM   38  C   UNK N   1      38.989  11.774   8.926  0.00  0.00     0.034 C 
ENDBRANCH   1  32
TORSDOF 3
ENDMDL
MODEL 5
REMARK VINA RESULT:      -8.1      3.632      5.636
REMARK  3 active torsions:
REMARK  status: ('A' for Active; 'I' for Inactive)
REMARK    1  A    between atoms: N_7  and  C_8 
REMARK    2  A    between atoms: C_12  and  C_28 
REMARK       I    between atoms: C_18  and  N_21 
REMARK    3  A    between atoms: C_32  and  C_34 
REMARK       I    between atoms: C_34  and  N_36 
ROOT
HETATM    1  C   UNK N   1      33.127  14.219   7.355  0.00  0.00     0.133 A 
HETATM    2  C   UNK N   1      33.745  14.041   8.635  0.00  0.00     0.053 A 
HETATM    3  C   UNK N   1      34.822  13.167   8.892  0.00  0.00     0.021 A 
HETATM    4  C   UNK N   1      35.360  13.049  10.182  0.00  0.00     0.031 A 
HETATM    5  C   UNK N   1      34.814  13.819  11.216  0.00  0.00     0.044 A 
HETATM    6  N   UNK N   1      33.791  14.665  10.942  0.00  0.00    -0.341 N 
ATOM      7  HN  UNK N   1      33.408  15.227  11.702  1.00  0.00     0.167 HD
HETATM    8  C   UNK N   1      33.256  14.796   9.712  0.00  0.00     0.135 A 
HETATM    9  N   UNK N   1      32.248  15.669   9.538  0.00  0.00    -0.175 N 
ATOM     10  HN  UNK N   1      31.920  16.214  10.335  1.00  0.00     0.186 HD
HETATM   11  C   UNK N   1      31.658  15.843   8.337  0.00  0.00     0.684 A 
HETATM   12  N   UNK N   1      32.090  15.116   7.264  0.00  0.00    -0.176 N 
ATOM     13  HN  UNK N   1      31.628  15.243   6.364  1.00  0.00     0.186 HD
HETATM   14  N   UNK N   1      30.609  16.810   8.218  0.00  0.00    -0.209 N 
HETATM   15  C   UNK N   1      30.282  17.595   9.409  0.00  0.00     0.168 C 
HETATM   16  C   UNK N   1      29.172  18.609   9.165  0.00  0.00     0.188 C 
HETATM   17  O   UNK N   1      28.189  18.021   8.365  0.00  0.00    -0.388 OA
HETATM   18  C   UNK N   1      28.754  18.024   7.087  0.00  0.00     0.193 C 
HETATM   19  C   UNK N   1      29.843  16.950   6.977  0.00  0.00     0.122 C 
HETATM   20  C   UNK N   1      30.739  17.343   5.820  0.00  0.00     0.035 C 
ENDROOT
BRANCH   5  21
HETATM   21  C   UNK N   1      35.281  13.744  12.611  0.00  0.00    -0.009 A 
HETATM   22  C   UNK N   1      36.166  14.669  13.179  0.00  0.00     0.014 A 
HETATM   23  C   UNK N   1      36.576  14.508  14.512  0.00  0.00     0.002 A 
HETATM   24  C   UNK N   1      36.109  13.424  15.272  0.00  0.00     0.017 A 
HETATM   25  C   UNK N   1      35.223  12.497  14.699  0.00  0.00     0.032 A 
HETATM   26  C   UNK N   1      34.824  12.673  13.381  0.00  0.00     0.030 A 
BRANCH  25  27
HETATM   27  C   UNK N   1      34.706  11.333  15.449  0.00  0.00     0.251 C 
HETATM   28  O   UNK N   1      33.774  10.679  15.002  0.00  0.00    -0.268 OA
HETATM   29  N   UNK N   1      35.271  11.000  16.638  0.00  0.00    -0.361 N 
HETATM   30  C   UNK N   1      34.817   9.882  17.425  0.00  0.00     0.149 C 
HETATM   31  H   UNK N   1      36.020  11.543  16.975  0.00  0.00     0.162 HD
ENDBRANCH  25  27
ENDBRANCH   5  21
BRANCH   1  32
HETATM   32  N   UNK N   1      33.569  13.520   6.162  0.00  0.00    -0.358 N 
HETATM   33  C   UNK N   1      33.026  12.204   5.846  0.00  0.00     0.151 C 
HETATM   34  C   UNK N   1      33.934  11.433   4.901  0.00  0.00     0.187 C 
HETATM   35  O   UNK N   1      34.152  12.217   3.766  0.00  0.00    -0.388 OA
HETATM   36  C   UNK N   1      35.043  13.209   4.184  0.00  0.00     0.192 C 
HETATM   37  C   UNK N   1      34.357  14.213   5.124  0.00  0.00     0.105 C 
HETATM   38  C   UNK N   1      35.497  15.030   5.702  0.00  0.00     0.034 C 
ENDBRANCH   1  32
TORSDOF 3
ENDMDL
MODEL 6
REMARK VINA RESULT:      -8.1      9.779     14.699
REMARK  3 active torsions:
REMARK  status: ('A' for Active; 'I' for Inactive)
REMARK    1  A    between atoms: N_7  and  C_8 
REMARK    2  A    between atoms: C_12  and  C_28 
REMARK       I    between atoms: C_18  and  N_21 
REMARK    3  A    between atoms: C_32  and  C_34 
REMARK       I    between atoms: C_34  and  N_36 
ROOT
HETATM    1  C   UNK N   1      30.420  16.269   5.086  0.00  0.00     0.133 A 
HETATM    2  C   UNK N   1      29.245  17.041   4.812  0.00  0.00     0.053 A 
HETATM    3  C   UNK N   1      28.895  18.234   5.477  0.00  0.00     0.021 A 
HETATM    4  C   UNK N   1      27.716  18.921   5.150  0.00  0.00     0.031 A 
HETATM    5  C   UNK N   1      26.890  18.406   4.145  0.00  0.00     0.044 A 
HETATM    6  N   UNK N   1      27.255  17.267   3.507  0.00  0.00    -0.341 N 
ATOM      7  HN  UNK N   1      26.649  16.906   2.770  1.00  0.00     0.167 HD
HETATM    8  C   UNK N   1      28.381  16.588   3.803  0.00  0.00     0.135 A 
HETATM    9  N   UNK N   1      28.663  15.472   3.108  0.00  0.00    -0.175 N 
ATOM     10  HN  UNK N   1      28.024  15.172   2.372  1.00  0.00     0.186 HD
HETATM   11  C   UNK N   1      29.766  14.737   3.359  0.00  0.00     0.684 A 
HETATM   12  N   UNK N   1      30.626  15.131   4.345  0.00  0.00    -0.176 N 
ATOM     13  HN  UNK N   1      31.449  14.561   4.538  1.00  0.00     0.186 HD
HETATM   14  N   UNK N   1      30.017  13.576   2.561  0.00  0.00    -0.209 N 
HETATM   15  C   UNK N   1      29.078  13.292   1.475  0.00  0.00     0.168 C 
HETATM   16  C   UNK N   1      29.452  12.050   0.676  0.00  0.00     0.188 C 
HETATM   17  O   UNK N   1      29.897  11.061   1.556  0.00  0.00    -0.388 OA
HETATM   18  C   UNK N   1      31.184  11.478   1.902  0.00  0.00     0.193 C 
HETATM   19  C   UNK N   1      31.123  12.667   2.869  0.00  0.00     0.122 C 
HETATM   20  C   UNK N   1      32.459  13.378   2.783  0.00  0.00     0.035 C 
ENDROOT
BRANCH   5  21
HETATM   21  C   UNK N   1      25.615  19.028   3.750  0.00  0.00    -0.009 A 
HETATM   22  C   UNK N   1      25.532  20.212   3.005  0.00  0.00     0.014 A 
HETATM   23  C   UNK N   1      24.273  20.747   2.692  0.00  0.00     0.002 A 
HETATM   24  C   UNK N   1      23.101  20.107   3.127  0.00  0.00     0.017 A 
HETATM   25  C   UNK N   1      23.188  18.922   3.875  0.00  0.00     0.032 A 
HETATM   26  C   UNK N   1      24.441  18.403   4.173  0.00  0.00     0.030 A 
BRANCH  25  27
HETATM   27  C   UNK N   1      21.989  18.211   4.367  0.00  0.00     0.251 C 
HETATM   28  O   UNK N   1      21.846  18.000   5.563  0.00  0.00    -0.268 OA
HETATM   29  N   UNK N   1      21.051  17.790   3.479  0.00  0.00    -0.361 N 
HETATM   30  C   UNK N   1      19.861  17.088   3.884  0.00  0.00     0.149 C 
HETATM   31  H   UNK N   1      21.191  17.972   2.521  0.00  0.00     0.162 HD
ENDBRANCH  25  27
ENDBRANCH   5  21
BRANCH   1  32
HETATM   32  N   UNK N   1      31.404  16.657   6.082  0.00  0.00    -0.358 N 
HETATM   33  C   UNK N   1      31.074  16.577   7.500  0.00  0.00     0.151 C 
HETATM   34  C   UNK N   1      31.978  17.467   8.338  0.00  0.00     0.187 C 
HETATM   35  O   UNK N   1      33.304  17.123   8.069  0.00  0.00    -0.388 OA
HETATM   36  C   UNK N   1      33.561  17.658   6.804  0.00  0.00     0.192 C 
HETATM   37  C   UNK N   1      32.814  16.882   5.709  0.00  0.00     0.105 C 
HETATM   38  C   UNK N   1      32.961  17.743   4.468  0.00  0.00     0.034 C 
ENDBRANCH   1  32
TORSDOF 3
ENDMDL
MODEL 7
REMARK VINA RESULT:      -7.8     11.362     14.804
REMARK  3 active torsions:
REMARK  status: ('A' for Active; 'I' for Inactive)
REMARK    1  A    between atoms: N_7  and  C_8 
REMARK    2  A    between atoms: C_12  and  C_28 
REMARK       I    between atoms: C_18  and  N_21 
REMARK    3  A    between atoms: C_32  and  C_34 
REMARK       I    between atoms: C_34  and  N_36 
ROOT
HETATM    1  C   UNK N   1      22.770  14.871   5.053  0.00  0.00     0.133 A 
HETATM    2  C   UNK N   1      24.066  15.220   5.554  0.00  0.00     0.053 A 
HETATM    3  C   UNK N   1      24.954  14.320   6.180  0.00  0.00     0.021 A 
HETATM    4  C   UNK N   1      26.202  14.752   6.651  0.00  0.00     0.031 A 
HETATM    5  C   UNK N   1      26.560  16.095   6.486  0.00  0.00     0.044 A 
HETATM    6  N   UNK N   1      25.698  16.939   5.866  0.00  0.00    -0.341 N 
ATOM      7  HN  UNK N   1      25.974  17.913   5.744  1.00  0.00     0.167 HD
HETATM    8  C   UNK N   1      24.493  16.549   5.406  0.00  0.00     0.135 A 
HETATM    9  N   UNK N   1      23.711  17.458   4.797  0.00  0.00    -0.175 N 
ATOM     10  HN  UNK N   1      24.051  18.413   4.692  1.00  0.00     0.186 HD
HETATM   11  C   UNK N   1      22.489  17.140   4.322  0.00  0.00     0.684 A 
HETATM   12  N   UNK N   1      22.025  15.862   4.461  0.00  0.00    -0.176 N 
ATOM     13  HN  UNK N   1      21.094  15.635   4.113  1.00  0.00     0.186 HD
HETATM   14  N   UNK N   1      21.723  18.151   3.660  0.00  0.00    -0.209 N 
HETATM   15  C   UNK N   1      22.348  19.464   3.489  0.00  0.00     0.168 C 
HETATM   16  C   UNK N   1      21.456  20.455   2.752  0.00  0.00     0.188 C 
HETATM   17  O   UNK N   1      20.143  20.307   3.204  0.00  0.00    -0.388 OA
HETATM   18  C   UNK N   1      19.707  19.135   2.580  0.00  0.00     0.193 C 
HETATM   19  C   UNK N   1      20.340  17.905   3.242  0.00  0.00     0.122 C 
HETATM   20  C   UNK N   1      20.264  16.772   2.238  0.00  0.00     0.035 C 
ENDROOT
BRANCH   5  21
HETATM   21  C   UNK N   1      27.830  16.658   6.975  0.00  0.00    -0.009 A 
HETATM   22  C   UNK N   1      27.980  17.235   8.244  0.00  0.00     0.014 A 
HETATM   23  C   UNK N   1      29.222  17.769   8.620  0.00  0.00     0.002 A 
HETATM   24  C   UNK N   1      30.309  17.733   7.731  0.00  0.00     0.017 A 
HETATM   25  C   UNK N   1      30.155  17.156   6.460  0.00  0.00     0.032 A 
HETATM   26  C   UNK N   1      28.920  16.629   6.105  0.00  0.00     0.030 A 
BRANCH  25  27
HETATM   27  C   UNK N   1      31.260  17.098   5.481  0.00  0.00     0.251 C 
HETATM   28  O   UNK N   1      31.175  17.700   4.420  0.00  0.00    -0.268 OA
HETATM   29  N   UNK N   1      32.370  16.369   5.768  0.00  0.00    -0.361 N 
HETATM   30  C   UNK N   1      33.483  16.263   4.862  0.00  0.00     0.149 C 
HETATM   31  H   UNK N   1      32.413  15.894   6.630  0.00  0.00     0.162 HD
ENDBRANCH  25  27
ENDBRANCH   5  21
BRANCH   1  32
HETATM   32  N   UNK N   1      22.236  13.523   5.118  0.00  0.00    -0.358 N 
HETATM   33  C   UNK N   1      22.411  12.616   3.989  0.00  0.00     0.151 C 
HETATM   34  C   UNK N   1      21.393  11.487   4.012  0.00  0.00     0.187 C 
HETATM   35  O   UNK N   1      21.483  10.840   5.247  0.00  0.00    -0.388 OA
HETATM   36  C   UNK N   1      20.877  11.717   6.152  0.00  0.00     0.192 C 
HETATM   37  C   UNK N   1      21.747  12.960   6.391  0.00  0.00     0.105 C 
HETATM   38  C   UNK N   1      20.842  13.916   7.146  0.00  0.00     0.034 C 
ENDBRANCH   1  32
TORSDOF 3
ENDMDL
MODEL 8
REMARK VINA RESULT:      -7.7     10.373     15.385
REMARK  3 active torsions:
REMARK  status: ('A' for Active; 'I' for Inactive)
REMARK    1  A    between atoms: N_7  and  C_8 
REMARK    2  A    between atoms: C_12  and  C_28 
REMARK       I    between atoms: C_18  and  N_21 
REMARK    3  A    between atoms: C_32  and  C_34 
REMARK       I    between atoms: C_34  and  N_36 
ROOT
HETATM    1  C   UNK N   1      25.713  17.242   4.605  0.00  0.00     0.133 A 
HETATM    2  C   UNK N   1      26.127  16.135   3.797  0.00  0.00     0.053 A 
HETATM    3  C   UNK N   1      25.417  15.644   2.682  0.00  0.00     0.021 A 
HETATM    4  C   UNK N   1      25.894  14.545   1.953  0.00  0.00     0.031 A 
HETATM    5  C   UNK N   1      27.094  13.941   2.345  0.00  0.00     0.044 A 
HETATM    6  N   UNK N   1      27.768  14.440   3.410  0.00  0.00    -0.341 N 
ATOM      7  HN  UNK N   1      28.646  13.997   3.681  1.00  0.00     0.167 HD
HETATM    8  C   UNK N   1      27.332  15.494   4.128  0.00  0.00     0.135 A 
HETATM    9  N   UNK N   1      28.076  15.922   5.163  0.00  0.00    -0.175 N 
ATOM     10  HN  UNK N   1      28.953  15.445   5.373  1.00  0.00     0.186 HD
HETATM   11  C   UNK N   1      27.694  16.964   5.931  0.00  0.00     0.684 A 
HETATM   12  N   UNK N   1      26.520  17.606   5.656  0.00  0.00    -0.176 N 
ATOM     13  HN  UNK N   1      26.231  18.382   6.251  1.00  0.00     0.186 HD
HETATM   14  N   UNK N   1      28.550  17.382   6.998  0.00  0.00    -0.209 N 
HETATM   15  C   UNK N   1      29.825  16.681   7.152  0.00  0.00     0.168 C 
HETATM   16  C   UNK N   1      30.666  17.222   8.301  0.00  0.00     0.188 C 
HETATM   17  O   UNK N   1      29.830  17.497   9.385  0.00  0.00    -0.388 OA
HETATM   18  C   UNK N   1      29.191  18.685   9.021  0.00  0.00     0.193 C 
HETATM   19  C   UNK N   1      28.130  18.418   7.946  0.00  0.00     0.122 C 
HETATM   20  C   UNK N   1      27.871  19.735   7.242  0.00  0.00     0.035 C 
ENDROOT
BRANCH   5  21
HETATM   21  C   UNK N   1      27.662  12.761   1.672  0.00  0.00    -0.009 A 
HETATM   22  C   UNK N   1      26.984  11.541   1.550  0.00  0.00     0.014 A 
HETATM   23  C   UNK N   1      27.612  10.460   0.911  0.00  0.00     0.002 A 
HETATM   24  C   UNK N   1      28.913  10.595   0.401  0.00  0.00     0.017 A 
HETATM   25  C   UNK N   1      29.590  11.818   0.526  0.00  0.00     0.032 A 
HETATM   26  C   UNK N   1      28.954  12.880   1.158  0.00  0.00     0.030 A 
BRANCH  25  27
HETATM   27  C   UNK N   1      30.964  12.016   0.017  0.00  0.00     0.251 C 
HETATM   28  O   UNK N   1      31.895  12.155   0.796  0.00  0.00    -0.268 OA
HETATM   29  N   UNK N   1      31.181  12.044  -1.324  0.00  0.00    -0.361 N 
HETATM   30  C   UNK N   1      32.490  12.235  -1.892  0.00  0.00     0.149 C 
HETATM   31  H   UNK N   1      30.413  11.929  -1.930  0.00  0.00     0.162 HD
ENDBRANCH  25  27
ENDBRANCH   5  21
BRANCH   1  32
HETATM   32  N   UNK N   1      24.505  18.004   4.340  0.00  0.00    -0.358 N 
HETATM   33  C   UNK N   1      23.202  17.437   4.663  0.00  0.00     0.151 C 
HETATM   34  C   UNK N   1      22.086  18.111   3.881  0.00  0.00     0.187 C 
HETATM   35  O   UNK N   1      22.153  19.486   4.115  0.00  0.00    -0.388 OA
HETATM   36  C   UNK N   1      23.253  19.920   3.370  0.00  0.00     0.192 C 
HETATM   37  C   UNK N   1      24.572  19.437   3.992  0.00  0.00     0.105 C 
HETATM   38  C   UNK N   1      25.620  19.735   2.935  0.00  0.00     0.034 C 
ENDBRANCH   1  32
TORSDOF 3
ENDMDL
MODEL 9
REMARK VINA RESULT:      -7.6      7.681     13.172
REMARK  3 active torsions:
REMARK  status: ('A' for Active; 'I' for Inactive)
REMARK    1  A    between atoms: N_7  and  C_8 
REMARK    2  A    between atoms: C_12  and  C_28 
REMARK       I    between atoms: C_18  and  N_21 
REMARK    3  A    between atoms: C_32  and  C_34 
REMARK       I    between atoms: C_34  and  N_36 
ROOT
HETATM    1  C   UNK N   1      31.103  14.175   4.542  0.00  0.00     0.133 A 
HETATM    2  C   UNK N   1      30.223  15.305   4.557  0.00  0.00     0.053 A 
HETATM    3  C   UNK N   1      29.209  15.546   3.606  0.00  0.00     0.021 A 
HETATM    4  C   UNK N   1      28.398  16.687   3.693  0.00  0.00     0.031 A 
HETATM    5  C   UNK N   1      28.605  17.586   4.745  0.00  0.00     0.044 A 
HETATM    6  N   UNK N   1      29.574  17.326   5.657  0.00  0.00    -0.341 N 
ATOM      7  HN  UNK N   1      29.710  17.984   6.424  1.00  0.00     0.167 HD
HETATM    8  C   UNK N   1      30.367  16.238   5.596  0.00  0.00     0.135 A 
HETATM    9  N   UNK N   1      31.295  16.062   6.553  0.00  0.00    -0.175 N 
ATOM     10  HN  UNK N   1      31.370  16.749   7.303  1.00  0.00     0.186 HD
HETATM   11  C   UNK N   1      32.130  15.002   6.548  0.00  0.00     0.684 A 
HETATM   12  N   UNK N   1      32.036  14.078   5.545  0.00  0.00    -0.176 N 
ATOM     13  HN  UNK N   1      32.682  13.288   5.541  1.00  0.00     0.186 HD
HETATM   14  N   UNK N   1      33.074  14.864   7.614  0.00  0.00    -0.209 N 
HETATM   15  C   UNK N   1      33.032  15.863   8.682  0.00  0.00     0.168 C 
HETATM   16  C   UNK N   1      34.062  15.607   9.775  0.00  0.00     0.188 C 
HETATM   17  O   UNK N   1      35.259  15.196   9.184  0.00  0.00    -0.388 OA
HETATM   18  C   UNK N   1      35.012  13.870   8.820  0.00  0.00     0.193 C 
HETATM   19  C   UNK N   1      34.092  13.810   7.594  0.00  0.00     0.122 C 
HETATM   20  C   UNK N   1      33.458  12.434   7.582  0.00  0.00     0.035 C 
ENDROOT
BRANCH   5  21
HETATM   21  C   UNK N   1      27.835  18.831   4.907  0.00  0.00    -0.009 A 
HETATM   22  C   UNK N   1      28.080  19.763   5.924  0.00  0.00     0.014 A 
HETATM   23  C   UNK N   1      27.280  20.913   6.018  0.00  0.00     0.002 A 
HETATM   24  C   UNK N   1      26.237  21.128   5.103  0.00  0.00     0.017 A 
HETATM   25  C   UNK N   1      25.993  20.192   4.087  0.00  0.00     0.032 A 
HETATM   26  C   UNK N   1      26.795  19.061   4.005  0.00  0.00     0.030 A 
BRANCH  25  27
HETATM   27  C   UNK N   1      24.903  20.362   3.102  0.00  0.00     0.251 C 
HETATM   28  O   UNK N   1      25.151  20.765   1.974  0.00  0.00    -0.268 OA
HETATM   29  N   UNK N   1      23.627  20.071   3.462  0.00  0.00    -0.361 N 
HETATM   30  C   UNK N   1      22.515  20.216   2.558  0.00  0.00     0.149 C 
HETATM   31  H   UNK N   1      23.455  19.748   4.376  0.00  0.00     0.162 HD
ENDBRANCH  25  27
ENDBRANCH   5  21
BRANCH   1  32
HETATM   32  N   UNK N   1      31.025  13.128   3.539  0.00  0.00    -0.358 N 
HETATM   33  C   UNK N   1      31.836  13.218   2.330  0.00  0.00     0.151 C 
HETATM   34  C   UNK N   1      31.273  12.356   1.212  0.00  0.00     0.187 C 
HETATM   35  O   UNK N   1      31.147  11.048   1.685  0.00  0.00    -0.388 OA
HETATM   36  C   UNK N   1      30.036  11.082   2.532  0.00  0.00     0.192 C 
HETATM   37  C   UNK N   1      30.346  11.850   3.827  0.00  0.00     0.105 C 
HETATM   38  C   UNK N   1      28.993  12.041   4.486  0.00  0.00     0.034 C 
ENDBRANCH   1  32
TORSDOF 3
ENDMDL
