MODEL 1
REMARK VINA RESULT:      -6.9      0.000      0.000
REMARK  14 active torsions:
REMARK  status: ('A' for Active; 'I' for Inactive)
REMARK    1  A    between atoms: C_6  and  C_8 
REMARK       I    between atoms: C_8  and  N_10 
REMARK    2  A    between atoms: C_11  and  N_10 
REMARK    3  A    between atoms: C_11  and  C_12 
REMARK    4  A    between atoms: C_11  and  C_15 
REMARK    5  A    between atoms: C_12  and  O_13 
REMARK       I    between atoms: C_15  and  N_17 
REMARK    6  A    between atoms: C_18  and  N_17 
REMARK    7  A    between atoms: C_18  and  C_19 
REMARK    8  A    between atoms: C_18  and  C_22 
REMARK    9  A    between atoms: C_19  and  O_20 
REMARK       I    between atoms: C_22  and  N_24 
REMARK   10  A    between atoms: C_25  and  N_24 
REMARK   11  A    between atoms: C_25  and  C_26 
REMARK   12  A    between atoms: C_25  and  C_33 
REMARK   13  A    between atoms: C_26  and  C_27 
REMARK   14  A    between atoms: C_35  and  C_33 
ROOT
HETATM    1  C   UNK N   1      20.106  15.777   6.230  0.00  0.00     0.200 C 
ENDROOT
BRANCH   1   2
HETATM    2  N   UNK N   1      20.620  14.439   6.008  0.00  0.00    -0.344 N 
HETATM    3  C   UNK N   1      21.936  14.155   5.877  0.00  0.00     0.243 C 
HETATM    4  O   UNK N   1      22.762  15.060   5.852  0.00  0.00    -0.271 OA
HETATM    5  H   UNK N   1      19.977  13.696   5.949  0.00  0.00     0.163 HD
BRANCH   3   6
HETATM    6  C   UNK N   1      22.405  12.730   5.771  0.00  0.00     0.200 C 
BRANCH   6   7
HETATM    7  N   UNK N   1      22.616  12.272   7.115  0.00  0.00    -0.341 N 
HETATM    8  C   UNK N   1      23.815  12.274   7.720  0.00  0.00     0.260 C 
HETATM    9  O   UNK N   1      24.851  12.325   7.064  0.00  0.00    -0.267 OA
HETATM   10  H   UNK N   1      21.839  11.939   7.620  0.00  0.00     0.163 HD
BRANCH   8  11
HETATM   11  C   UNK N   1      23.849  12.366   9.178  0.00  0.00     0.089 A 
HETATM   12  C   UNK N   1      24.960  12.795   9.925  0.00  0.00     0.113 A 
HETATM   13  N   UNK N   1      24.819  12.643  11.288  0.00  0.00    -0.362 N 
HETATM   14  C   UNK N   1      23.624  12.096  11.625  0.00  0.00     0.047 A 
ATOM     15  HN  UNK N   1      25.533  12.911  11.966  1.00  0.00     0.165 HD
HETATM   16  C   UNK N   1      23.210  11.795  13.017  0.00  0.00     0.076 C 
HETATM   17  S   UNK N   1      22.742  11.797  10.260  0.00  0.00    -0.070 SA
ENDBRANCH   8  11
ENDBRANCH   6   7
BRANCH   6  18
HETATM   18  C   UNK N   1      21.366  11.872   5.060  0.00  0.00     0.202 C 
BRANCH  18  19
HETATM   19  O   UNK N   1      20.368  11.478   5.953  0.00  0.00    -0.393 OA
HETATM   20  C   UNK N   1      19.513  10.677   5.194  0.00  0.00     0.201 C 
ENDBRANCH  18  19
ENDBRANCH   6  18
ENDBRANCH   3   6
ENDBRANCH   1   2
BRANCH   1  21
HETATM   21  C   UNK N   1      19.904  16.155   7.710  0.00  0.00     0.202 C 
BRANCH  21  22
HETATM   22  O   UNK N   1      20.525  17.357   8.060  0.00  0.00    -0.393 OA
HETATM   23  C   UNK N   1      19.607  18.016   8.878  0.00  0.00     0.201 C 
ENDBRANCH  21  22
ENDBRANCH   1  21
BRANCH   1  24
HETATM   24  C   UNK N   1      18.937  16.065   5.319  0.00  0.00     0.243 C 
HETATM   25  O   UNK N   1      17.800  15.803   5.679  0.00  0.00    -0.271 OA
HETATM   26  N   UNK N   1      19.137  16.592   4.084  0.00  0.00    -0.347 N 
HETATM   27  H   UNK N   1      18.352  16.717   3.501  0.00  0.00     0.163 HD
BRANCH  26  28
HETATM   28  C   UNK N   1      20.437  16.982   3.571  0.00  0.00     0.162 C 
BRANCH  28  29
HETATM   29  C   UNK N   1      20.573  18.513   3.548  0.00  0.00     0.071 C 
BRANCH  29  30
HETATM   30  C   UNK N   1      21.985  18.977   3.575  0.00  0.00    -0.056 A 
HETATM   31  C   UNK N   1      22.355  20.124   2.865  0.00  0.00     0.007 A 
HETATM   32  C   UNK N   1      23.669  20.594   2.930  0.00  0.00     0.001 A 
HETATM   33  C   UNK N   1      24.612  19.923   3.714  0.00  0.00     0.000 A 
HETATM   34  C   UNK N   1      24.243  18.782   4.432  0.00  0.00     0.001 A 
HETATM   35  C   UNK N   1      22.927  18.310   4.366  0.00  0.00     0.007 A 
ENDBRANCH  29  30
ENDBRANCH  28  29
BRANCH  28  36
HETATM   36  C   UNK N   1      20.710  16.397   2.192  0.00  0.00     0.185 C 
HETATM   37  O   UNK N   1      20.444  17.065   1.203  0.00  0.00    -0.292 OA
BRANCH  36  38
HETATM   38  C   UNK N   1      21.275  15.005   1.986  0.00  0.00     0.141 A 
HETATM   39  C   UNK N   1      20.514  13.922   1.318  0.00  0.00     0.215 A 
HETATM   40  O   UNK N   1      20.530  14.061   2.716  0.00  0.00    -0.367 OA
HETATM   41  C   UNK N   1      22.759  14.769   2.195  0.00  0.00     0.057 C 
ENDBRANCH  36  38
ENDBRANCH  28  36
ENDBRANCH  26  28
ENDBRANCH   1  24
TORSDOF 14
ENDMDL
MODEL 2
REMARK VINA RESULT:      -6.3      6.011      7.906
REMARK  14 active torsions:
REMARK  status: ('A' for Active; 'I' for Inactive)
REMARK    1  A    between atoms: C_6  and  C_8 
REMARK       I    between atoms: C_8  and  N_10 
REMARK    2  A    between atoms: C_11  and  N_10 
REMARK    3  A    between atoms: C_11  and  C_12 
REMARK    4  A    between atoms: C_11  and  C_15 
REMARK    5  A    between atoms: C_12  and  O_13 
REMARK       I    between atoms: C_15  and  N_17 
REMARK    6  A    between atoms: C_18  and  N_17 
REMARK    7  A    between atoms: C_18  and  C_19 
REMARK    8  A    between atoms: C_18  and  C_22 
REMARK    9  A    between atoms: C_19  and  O_20 
REMARK       I    between atoms: C_22  and  N_24 
REMARK   10  A    between atoms: C_25  and  N_24 
REMARK   11  A    between atoms: C_25  and  C_26 
REMARK   12  A    between atoms: C_25  and  C_33 
REMARK   13  A    between atoms: C_26  and  C_27 
REMARK   14  A    between atoms: C_35  and  C_33 
ROOT
HETATM    1  C   UNK N   1      27.832  17.872   6.089  0.00  0.00     0.200 C 
ENDROOT
BRANCH   1   2
HETATM    2  N   UNK N   1      26.542  17.295   5.758  0.00  0.00    -0.344 N 
HETATM    3  C   UNK N   1      26.304  15.965   5.720  0.00  0.00     0.243 C 
HETATM    4  O   UNK N   1      27.222  15.170   5.883  0.00  0.00    -0.271 OA
HETATM    5  H   UNK N   1      25.799  17.907   5.549  0.00  0.00     0.163 HD
BRANCH   3   6
HETATM    6  C   UNK N   1      24.913  15.442   5.489  0.00  0.00     0.200 C 
BRANCH   6   7
HETATM    7  N   UNK N   1      24.382  15.117   6.782  0.00  0.00    -0.341 N 
HETATM    8  C   UNK N   1      23.920  13.899   7.110  0.00  0.00     0.260 C 
HETATM    9  O   UNK N   1      23.592  13.096   6.244  0.00  0.00    -0.267 OA
HETATM   10  H   UNK N   1      24.356  15.826   7.465  0.00  0.00     0.163 HD
BRANCH   8  11
HETATM   11  C   UNK N   1      23.963  13.504   8.517  0.00  0.00     0.089 A 
HETATM   12  C   UNK N   1      25.138  13.399   9.281  0.00  0.00     0.113 A 
HETATM   13  N   UNK N   1      24.953  12.852  10.533  0.00  0.00    -0.362 N 
HETATM   14  C   UNK N   1      23.658  12.519  10.763  0.00  0.00     0.047 A 
ATOM     15  HN  UNK N   1      25.705  12.712  11.208  1.00  0.00     0.165 HD
HETATM   16  C   UNK N   1      23.172  11.889  12.015  0.00  0.00     0.076 C 
HETATM   17  S   UNK N   1      22.742  12.890   9.440  0.00  0.00    -0.070 SA
ENDBRANCH   8  11
ENDBRANCH   6   7
BRANCH   6  18
HETATM   18  C   UNK N   1      24.052  16.489   4.794  0.00  0.00     0.202 C 
BRANCH  18  19
HETATM   19  O   UNK N   1      23.363  17.255   5.736  0.00  0.00    -0.393 OA
HETATM   20  C   UNK N   1      22.487  18.037   4.982  0.00  0.00     0.201 C 
ENDBRANCH  18  19
ENDBRANCH   6  18
ENDBRANCH   3   6
ENDBRANCH   1   2
BRANCH   1  21
HETATM   21  C   UNK N   1      27.905  18.538   7.476  0.00  0.00     0.202 C 
BRANCH  21  22
HETATM   22  O   UNK N   1      28.251  17.648   8.497  0.00  0.00    -0.393 OA
HETATM   23  C   UNK N   1      28.941  18.418   9.433  0.00  0.00     0.201 C 
ENDBRANCH  21  22
ENDBRANCH   1  21
BRANCH   1  24
HETATM   24  C   UNK N   1      28.368  18.694   4.942  0.00  0.00     0.243 C 
HETATM   25  O   UNK N   1      27.807  19.727   4.614  0.00  0.00    -0.271 OA
HETATM   26  N   UNK N   1      29.459  18.282   4.248  0.00  0.00    -0.347 N 
HETATM   27  H   UNK N   1      29.746  18.821   3.474  0.00  0.00     0.163 HD
BRANCH  26  28
HETATM   28  C   UNK N   1      30.229  17.096   4.577  0.00  0.00     0.162 C 
BRANCH  28  29
HETATM   29  C   UNK N   1      31.732  17.412   4.585  0.00  0.00     0.071 C 
BRANCH  29  30
HETATM   30  C   UNK N   1      32.330  17.386   5.946  0.00  0.00    -0.056 A 
HETATM   31  C   UNK N   1      31.531  17.078   7.052  0.00  0.00     0.007 A 
HETATM   32  C   UNK N   1      32.099  17.002   8.325  0.00  0.00     0.001 A 
HETATM   33  C   UNK N   1      33.470  17.222   8.494  0.00  0.00     0.000 A 
HETATM   34  C   UNK N   1      34.272  17.521   7.388  0.00  0.00     0.001 A 
HETATM   35  C   UNK N   1      33.703  17.599   6.112  0.00  0.00     0.007 A 
ENDBRANCH  29  30
ENDBRANCH  28  29
BRANCH  28  36
HETATM   36  C   UNK N   1      29.926  15.937   3.637  0.00  0.00     0.185 C 
HETATM   37  O   UNK N   1      29.083  16.088   2.764  0.00  0.00    -0.292 OA
BRANCH  36  38
HETATM   38  C   UNK N   1      30.608  14.587   3.750  0.00  0.00     0.141 A 
HETATM   39  C   UNK N   1      31.781  14.211   2.924  0.00  0.00     0.215 A 
HETATM   40  O   UNK N   1      30.471  13.869   2.549  0.00  0.00    -0.367 OA
HETATM   41  C   UNK N   1      30.288  13.691   4.931  0.00  0.00     0.057 C 
ENDBRANCH  36  38
ENDBRANCH  28  36
ENDBRANCH  26  28
ENDBRANCH   1  24
TORSDOF 14
ENDMDL
MODEL 3
REMARK VINA RESULT:      -6.2      9.917     13.158
REMARK  14 active torsions:
REMARK  status: ('A' for Active; 'I' for Inactive)
REMARK    1  A    between atoms: C_6  and  C_8 
REMARK       I    between atoms: C_8  and  N_10 
REMARK    2  A    between atoms: C_11  and  N_10 
REMARK    3  A    between atoms: C_11  and  C_12 
REMARK    4  A    between atoms: C_11  and  C_15 
REMARK    5  A    between atoms: C_12  and  O_13 
REMARK       I    between atoms: C_15  and  N_17 
REMARK    6  A    between atoms: C_18  and  N_17 
REMARK    7  A    between atoms: C_18  and  C_19 
REMARK    8  A    between atoms: C_18  and  C_22 
REMARK    9  A    between atoms: C_19  and  O_20 
REMARK       I    between atoms: C_22  and  N_24 
REMARK   10  A    between atoms: C_25  and  N_24 
REMARK   11  A    between atoms: C_25  and  C_26 
REMARK   12  A    between atoms: C_25  and  C_33 
REMARK   13  A    between atoms: C_26  and  C_27 
REMARK   14  A    between atoms: C_35  and  C_33 
ROOT
HETATM    1  C   UNK N   1      33.522  14.062   6.702  0.00  0.00     0.200 C 
ENDROOT
BRANCH   1   2
HETATM    2  N   UNK N   1      34.106  12.942   7.417  0.00  0.00    -0.344 N 
HETATM    3  C   UNK N   1      33.592  12.434   8.560  0.00  0.00     0.243 C 
HETATM    4  O   UNK N   1      32.634  12.976   9.099  0.00  0.00    -0.271 OA
HETATM    5  H   UNK N   1      34.921  12.529   7.050  0.00  0.00     0.163 HD
BRANCH   3   6
HETATM    6  C   UNK N   1      34.180  11.196   9.180  0.00  0.00     0.200 C 
BRANCH   6   7
HETATM    7  N   UNK N   1      34.221  11.433  10.595  0.00  0.00    -0.341 N 
HETATM    8  C   UNK N   1      35.206  10.991  11.393  0.00  0.00     0.260 C 
HETATM    9  O   UNK N   1      35.935  10.070  11.041  0.00  0.00    -0.267 OA
HETATM   10  H   UNK N   1      33.485  11.947  11.002  0.00  0.00     0.163 HD
BRANCH   8  11
HETATM   11  C   UNK N   1      35.481  11.734  12.621  0.00  0.00     0.089 A 
HETATM   12  C   UNK N   1      34.528  12.012  13.617  0.00  0.00     0.113 A 
HETATM   13  N   UNK N   1      34.971  12.867  14.603  0.00  0.00    -0.362 N 
HETATM   14  C   UNK N   1      36.250  13.270  14.399  0.00  0.00     0.047 A 
ATOM     15  HN  UNK N   1      34.401  13.162  15.396  1.00  0.00     0.165 HD
HETATM   16  C   UNK N   1      36.978  14.210  15.287  0.00  0.00     0.076 C 
HETATM   17  S   UNK N   1      36.837  12.587  13.014  0.00  0.00    -0.070 SA
ENDBRANCH   8  11
ENDBRANCH   6   7
BRANCH   6  18
HETATM   18  C   UNK N   1      33.329   9.976   8.856  0.00  0.00     0.202 C 
BRANCH  18  19
HETATM   19  O   UNK N   1      32.817  10.070   7.560  0.00  0.00    -0.393 OA
HETATM   20  C   UNK N   1      31.935   8.993   7.450  0.00  0.00     0.201 C 
ENDBRANCH  18  19
ENDBRANCH   6  18
ENDBRANCH   3   6
ENDBRANCH   1   2
BRANCH   1  21
HETATM   21  C   UNK N   1      32.497  13.674   5.620  0.00  0.00     0.202 C 
BRANCH  21  22
HETATM   22  O   UNK N   1      31.174  13.746   6.066  0.00  0.00    -0.393 OA
HETATM   23  C   UNK N   1      30.396  13.670   4.910  0.00  0.00     0.201 C 
ENDBRANCH  21  22
ENDBRANCH   1  21
BRANCH   1  24
HETATM   24  C   UNK N   1      34.587  15.041   6.269  0.00  0.00     0.243 C 
HETATM   25  O   UNK N   1      35.269  14.810   5.284  0.00  0.00    -0.271 OA
HETATM   26  N   UNK N   1      34.816  16.173   6.983  0.00  0.00    -0.347 N 
HETATM   27  H   UNK N   1      35.553  16.761   6.697  0.00  0.00     0.163 HD
BRANCH  26  28
HETATM   28  C   UNK N   1      34.038  16.570   8.143  0.00  0.00     0.162 C 
BRANCH  28  29
HETATM   29  C   UNK N   1      33.293  17.885   7.871  0.00  0.00     0.071 C 
BRANCH  29  30
HETATM   30  C   UNK N   1      31.818  17.718   7.790  0.00  0.00    -0.056 A 
HETATM   31  C   UNK N   1      31.005  18.180   8.831  0.00  0.00     0.007 A 
HETATM   32  C   UNK N   1      29.617  18.072   8.735  0.00  0.00     0.001 A 
HETATM   33  C   UNK N   1      29.036  17.511   7.593  0.00  0.00     0.000 A 
HETATM   34  C   UNK N   1      29.846  17.056   6.548  0.00  0.00     0.001 A 
HETATM   35  C   UNK N   1      31.237  17.163   6.644  0.00  0.00     0.007 A 
ENDBRANCH  29  30
ENDBRANCH  28  29
BRANCH  28  36
HETATM   36  C   UNK N   1      34.895  16.686   9.396  0.00  0.00     0.185 C 
HETATM   37  O   UNK N   1      35.302  17.788   9.734  0.00  0.00    -0.292 OA
BRANCH  36  38
HETATM   38  C   UNK N   1      35.292  15.487  10.236  0.00  0.00     0.141 A 
HETATM   39  C   UNK N   1      34.449  14.968  11.340  0.00  0.00     0.215 A 
HETATM   40  O   UNK N   1      35.498  15.873  11.573  0.00  0.00    -0.367 OA
HETATM   41  C   UNK N   1      36.431  14.600   9.770  0.00  0.00     0.057 C 
ENDBRANCH  36  38
ENDBRANCH  28  36
ENDBRANCH  26  28
ENDBRANCH   1  24
TORSDOF 14
ENDMDL
MODEL 4
REMARK VINA RESULT:      -6.2     14.787     16.613
REMARK  14 active torsions:
REMARK  status: ('A' for Active; 'I' for Inactive)
REMARK    1  A    between atoms: C_6  and  C_8 
REMARK       I    between atoms: C_8  and  N_10 
REMARK    2  A    between atoms: C_11  and  N_10 
REMARK    3  A    between atoms: C_11  and  C_12 
REMARK    4  A    between atoms: C_11  and  C_15 
REMARK    5  A    between atoms: C_12  and  O_13 
REMARK       I    between atoms: C_15  and  N_17 
REMARK    6  A    between atoms: C_18  and  N_17 
REMARK    7  A    between atoms: C_18  and  C_19 
REMARK    8  A    between atoms: C_18  and  C_22 
REMARK    9  A    between atoms: C_19  and  O_20 
REMARK       I    between atoms: C_22  and  N_24 
REMARK   10  A    between atoms: C_25  and  N_24 
REMARK   11  A    between atoms: C_25  and  C_26 
REMARK   12  A    between atoms: C_25  and  C_33 
REMARK   13  A    between atoms: C_26  and  C_27 
REMARK   14  A    between atoms: C_35  and  C_33 
ROOT
HETATM    1  C   UNK N   1      28.171  24.725  -4.287  0.00  0.00     0.200 C 
ENDROOT
BRANCH   1   2
HETATM    2  N   UNK N   1      29.009  23.565  -4.047  0.00  0.00    -0.344 N 
HETATM    3  C   UNK N   1      29.990  23.164  -4.886  0.00  0.00     0.243 C 
HETATM    4  O   UNK N   1      30.154  23.733  -5.959  0.00  0.00    -0.271 OA
HETATM    5  H   UNK N   1      28.854  23.040  -3.228  0.00  0.00     0.163 HD
BRANCH   3   6
HETATM    6  C   UNK N   1      30.898  22.024  -4.514  0.00  0.00     0.200 C 
BRANCH   6   7
HETATM    7  N   UNK N   1      31.368  21.461  -5.748  0.00  0.00    -0.341 N 
HETATM    8  C   UNK N   1      31.491  20.141  -5.961  0.00  0.00     0.260 C 
HETATM    9  O   UNK N   1      31.555  19.355  -5.022  0.00  0.00    -0.267 OA
HETATM   10  H   UNK N   1      31.613  22.077  -6.476  0.00  0.00     0.163 HD
BRANCH   8  11
HETATM   11  C   UNK N   1      31.395  19.655  -7.336  0.00  0.00     0.089 A 
HETATM   12  C   UNK N   1      32.402  19.798  -8.306  0.00  0.00     0.113 A 
HETATM   13  N   UNK N   1      32.026  19.412  -9.575  0.00  0.00    -0.362 N 
HETATM   14  C   UNK N   1      30.743  18.977  -9.622  0.00  0.00     0.047 A 
ATOM     15  HN  UNK N   1      32.644  19.451 -10.386  1.00  0.00     0.165 HD
HETATM   16  C   UNK N   1      30.063  18.523 -10.860  0.00  0.00     0.076 C 
HETATM   17  S   UNK N   1      30.067  19.066  -8.117  0.00  0.00    -0.070 SA
ENDBRANCH   8  11
ENDBRANCH   6   7
BRANCH   6  18
HETATM   18  C   UNK N   1      32.061  22.518  -3.663  0.00  0.00     0.202 C 
BRANCH  18  19
HETATM   19  O   UNK N   1      32.228  21.699  -2.545  0.00  0.00    -0.393 OA
HETATM   20  C   UNK N   1      33.435  21.036  -2.772  0.00  0.00     0.201 C 
ENDBRANCH  18  19
ENDBRANCH   6  18
ENDBRANCH   3   6
ENDBRANCH   1   2
BRANCH   1  21
HETATM   21  C   UNK N   1      28.694  26.038  -3.673  0.00  0.00     0.202 C 
BRANCH  21  22
HETATM   22  O   UNK N   1      30.060  26.000  -3.376  0.00  0.00    -0.393 OA
HETATM   23  C   UNK N   1      30.519  27.296  -3.612  0.00  0.00     0.201 C 
ENDBRANCH  21  22
ENDBRANCH   1  21
BRANCH   1  24
HETATM   24  C   UNK N   1      26.720  24.411  -4.014  0.00  0.00     0.243 C 
HETATM   25  O   UNK N   1      26.388  23.937  -2.939  0.00  0.00    -0.271 OA
HETATM   26  N   UNK N   1      25.775  24.625  -4.965  0.00  0.00    -0.347 N 
HETATM   27  H   UNK N   1      24.848  24.358  -4.765  0.00  0.00     0.163 HD
BRANCH  26  28
HETATM   28  C   UNK N   1      26.050  25.222  -6.259  0.00  0.00     0.162 C 
BRANCH  28  29
HETATM   29  C   UNK N   1      25.318  26.565  -6.401  0.00  0.00     0.071 C 
BRANCH  29  30
HETATM   30  C   UNK N   1      26.003  27.684  -5.700  0.00  0.00    -0.056 A 
HETATM   31  C   UNK N   1      25.569  28.080  -4.431  0.00  0.00     0.007 A 
HETATM   32  C   UNK N   1      26.242  29.095  -3.747  0.00  0.00     0.001 A 
HETATM   33  C   UNK N   1      27.356  29.709  -4.328  0.00  0.00     0.000 A 
HETATM   34  C   UNK N   1      27.796  29.309  -5.592  0.00  0.00     0.001 A 
HETATM   35  C   UNK N   1      27.122  28.292  -6.278  0.00  0.00     0.007 A 
ENDBRANCH  29  30
ENDBRANCH  28  29
BRANCH  28  36
HETATM   36  C   UNK N   1      25.694  24.291  -7.409  0.00  0.00     0.185 C 
HETATM   37  O   UNK N   1      25.216  24.766  -8.429  0.00  0.00    -0.292 OA
BRANCH  36  38
HETATM   38  C   UNK N   1      25.883  22.787  -7.340  0.00  0.00     0.141 A 
HETATM   39  C   UNK N   1      24.799  21.828  -7.663  0.00  0.00     0.215 A 
HETATM   40  O   UNK N   1      25.057  22.236  -6.344  0.00  0.00    -0.367 OA
HETATM   41  C   UNK N   1      27.286  22.221  -7.224  0.00  0.00     0.057 C 
ENDBRANCH  36  38
ENDBRANCH  28  36
ENDBRANCH  26  28
ENDBRANCH   1  24
TORSDOF 14
ENDMDL
MODEL 5
REMARK VINA RESULT:      -6.2      5.854      8.457
REMARK  14 active torsions:
REMARK  status: ('A' for Active; 'I' for Inactive)
REMARK    1  A    between atoms: C_6  and  C_8 
REMARK       I    between atoms: C_8  and  N_10 
REMARK    2  A    between atoms: C_11  and  N_10 
REMARK    3  A    between atoms: C_11  and  C_12 
REMARK    4  A    between atoms: C_11  and  C_15 
REMARK    5  A    between atoms: C_12  and  O_13 
REMARK       I    between atoms: C_15  and  N_17 
REMARK    6  A    between atoms: C_18  and  N_17 
REMARK    7  A    between atoms: C_18  and  C_19 
REMARK    8  A    between atoms: C_18  and  C_22 
REMARK    9  A    between atoms: C_19  and  O_20 
REMARK       I    between atoms: C_22  and  N_24 
REMARK   10  A    between atoms: C_25  and  N_24 
REMARK   11  A    between atoms: C_25  and  C_26 
REMARK   12  A    between atoms: C_25  and  C_33 
REMARK   13  A    between atoms: C_26  and  C_27 
REMARK   14  A    between atoms: C_35  and  C_33 
ROOT
HETATM    1  C   UNK N   1      28.005  18.295   6.514  0.00  0.00     0.200 C 
ENDROOT
BRANCH   1   2
HETATM    2  N   UNK N   1      26.802  17.485   6.473  0.00  0.00    -0.344 N 
HETATM    3  C   UNK N   1      26.786  16.154   6.713  0.00  0.00     0.243 C 
HETATM    4  O   UNK N   1      27.837  15.549   6.893  0.00  0.00    -0.271 OA
HETATM    5  H   UNK N   1      25.950  17.928   6.257  0.00  0.00     0.163 HD
BRANCH   3   6
HETATM    6  C   UNK N   1      25.486  15.402   6.772  0.00  0.00     0.200 C 
BRANCH   6   7
HETATM    7  N   UNK N   1      24.628  15.999   5.788  0.00  0.00    -0.341 N 
HETATM    8  C   UNK N   1      23.325  16.252   5.995  0.00  0.00     0.260 C 
HETATM    9  O   UNK N   1      22.705  15.676   6.883  0.00  0.00    -0.267 OA
HETATM   10  H   UNK N   1      25.017  16.236   4.915  0.00  0.00     0.163 HD
BRANCH   8  11
HETATM   11  C   UNK N   1      22.707  17.337   5.236  0.00  0.00     0.089 A 
HETATM   12  C   UNK N   1      21.333  17.432   4.953  0.00  0.00     0.113 A 
HETATM   13  N   UNK N   1      21.003  18.450   4.084  0.00  0.00    -0.362 N 
HETATM   14  C   UNK N   1      22.089  19.151   3.674  0.00  0.00     0.047 A 
ATOM     15  HN  UNK N   1      20.049  18.652   3.784  1.00  0.00     0.165 HD
HETATM   16  C   UNK N   1      22.035  20.285   2.719  0.00  0.00     0.076 C 
HETATM   17  S   UNK N   1      23.452  18.526   4.369  0.00  0.00    -0.070 SA
ENDBRANCH   8  11
ENDBRANCH   6   7
BRANCH   6  18
HETATM   18  C   UNK N   1      25.705  13.923   6.479  0.00  0.00     0.202 C 
BRANCH  18  19
HETATM   19  O   UNK N   1      24.785  13.146   7.186  0.00  0.00    -0.393 OA
HETATM   20  C   UNK N   1      25.009  13.467   8.526  0.00  0.00     0.201 C 
ENDBRANCH  18  19
ENDBRANCH   6  18
ENDBRANCH   3   6
ENDBRANCH   1   2
BRANCH   1  21
HETATM   21  C   UNK N   1      28.178  19.130   7.798  0.00  0.00     0.202 C 
BRANCH  21  22
HETATM   22  O   UNK N   1      28.089  18.366   8.966  0.00  0.00    -0.393 OA
HETATM   23  C   UNK N   1      29.328  18.511   9.590  0.00  0.00     0.201 C 
ENDBRANCH  21  22
ENDBRANCH   1  21
BRANCH   1  24
HETATM   24  C   UNK N   1      28.198  19.045   5.218  0.00  0.00     0.243 C 
HETATM   25  O   UNK N   1      27.620  20.104   5.031  0.00  0.00    -0.271 OA
HETATM   26  N   UNK N   1      28.991  18.540   4.239  0.00  0.00    -0.347 N 
HETATM   27  H   UNK N   1      29.049  19.035   3.389  0.00  0.00     0.163 HD
BRANCH  26  28
HETATM   28  C   UNK N   1      29.758  17.314   4.369  0.00  0.00     0.162 C 
BRANCH  28  29
HETATM   29  C   UNK N   1      31.261  17.622   4.437  0.00  0.00     0.071 C 
BRANCH  29  30
HETATM   30  C   UNK N   1      31.890  17.198   5.716  0.00  0.00    -0.056 A 
HETATM   31  C   UNK N   1      33.229  17.512   5.973  0.00  0.00     0.007 A 
HETATM   32  C   UNK N   1      33.808  17.161   7.194  0.00  0.00     0.001 A 
HETATM   33  C   UNK N   1      33.047  16.504   8.165  0.00  0.00     0.000 A 
HETATM   34  C   UNK N   1      31.706  16.197   7.915  0.00  0.00     0.001 A 
HETATM   35  C   UNK N   1      31.125  16.548   6.691  0.00  0.00     0.007 A 
ENDBRANCH  29  30
ENDBRANCH  28  29
BRANCH  28  36
HETATM   36  C   UNK N   1      29.460  16.329   3.248  0.00  0.00     0.185 C 
HETATM   37  O   UNK N   1      30.219  16.275   2.291  0.00  0.00    -0.292 OA
BRANCH  36  38
HETATM   38  C   UNK N   1      28.244  15.422   3.250  0.00  0.00     0.141 A 
HETATM   39  C   UNK N   1      27.066  15.661   2.381  0.00  0.00     0.215 A 
HETATM   40  O   UNK N   1      27.113  16.122   3.707  0.00  0.00    -0.367 OA
HETATM   41  C   UNK N   1      28.329  14.070   3.931  0.00  0.00     0.057 C 
ENDBRANCH  36  38
ENDBRANCH  28  36
ENDBRANCH  26  28
ENDBRANCH   1  24
TORSDOF 14
ENDMDL
MODEL 6
REMARK VINA RESULT:      -6.2      2.406      3.625
REMARK  14 active torsions:
REMARK  status: ('A' for Active; 'I' for Inactive)
REMARK    1  A    between atoms: C_6  and  C_8 
REMARK       I    between atoms: C_8  and  N_10 
REMARK    2  A    between atoms: C_11  and  N_10 
REMARK    3  A    between atoms: C_11  and  C_12 
REMARK    4  A    between atoms: C_11  and  C_15 
REMARK    5  A    between atoms: C_12  and  O_13 
REMARK       I    between atoms: C_15  and  N_17 
REMARK    6  A    between atoms: C_18  and  N_17 
REMARK    7  A    between atoms: C_18  and  C_19 
REMARK    8  A    between atoms: C_18  and  C_22 
REMARK    9  A    between atoms: C_19  and  O_20 
REMARK       I    between atoms: C_22  and  N_24 
REMARK   10  A    between atoms: C_25  and  N_24 
REMARK   11  A    between atoms: C_25  and  C_26 
REMARK   12  A    between atoms: C_25  and  C_33 
REMARK   13  A    between atoms: C_26  and  C_27 
REMARK   14  A    between atoms: C_35  and  C_33 
ROOT
HETATM    1  C   UNK N   1      19.961  15.943   6.391  0.00  0.00     0.200 C 
ENDROOT
BRANCH   1   2
HETATM    2  N   UNK N   1      20.519  14.605   6.343  0.00  0.00    -0.344 N 
HETATM    3  C   UNK N   1      21.823  14.329   6.572  0.00  0.00     0.243 C 
HETATM    4  O   UNK N   1      22.624  15.240   6.748  0.00  0.00    -0.271 OA
HETATM    5  H   UNK N   1      19.916  13.855   6.131  0.00  0.00     0.163 HD
BRANCH   3   6
HETATM    6  C   UNK N   1      22.307  12.906   6.626  0.00  0.00     0.200 C 
BRANCH   6   7
HETATM    7  N   UNK N   1      23.678  12.929   6.202  0.00  0.00    -0.341 N 
HETATM    8  C   UNK N   1      24.080  12.582   4.968  0.00  0.00     0.260 C 
HETATM    9  O   UNK N   1      23.367  11.894   4.245  0.00  0.00    -0.267 OA
HETATM   10  H   UNK N   1      24.361  13.214   6.852  0.00  0.00     0.163 HD
BRANCH   8  11
HETATM   11  C   UNK N   1      25.315  13.171   4.456  0.00  0.00     0.089 A 
HETATM   12  C   UNK N   1      26.198  13.961   5.215  0.00  0.00     0.113 A 
HETATM   13  N   UNK N   1      27.209  14.544   4.482  0.00  0.00    -0.362 N 
HETATM   14  C   UNK N   1      27.135  14.234   3.164  0.00  0.00     0.047 A 
ATOM     15  HN  UNK N   1      27.931  15.141   4.887  1.00  0.00     0.165 HD
HETATM   16  C   UNK N   1      28.077  14.741   2.136  0.00  0.00     0.076 C 
HETATM   17  S   UNK N   1      25.834  13.253   2.893  0.00  0.00    -0.070 SA
ENDBRANCH   8  11
ENDBRANCH   6   7
BRANCH   6  18
HETATM   18  C   UNK N   1      22.183  12.347   8.038  0.00  0.00     0.202 C 
BRANCH  18  19
HETATM   19  O   UNK N   1      20.976  12.748   8.614  0.00  0.00    -0.393 OA
HETATM   20  C   UNK N   1      21.243  12.809   9.983  0.00  0.00     0.201 C 
ENDBRANCH  18  19
ENDBRANCH   6  18
ENDBRANCH   3   6
ENDBRANCH   1   2
BRANCH   1  21
HETATM   21  C   UNK N   1      19.693  16.481   7.809  0.00  0.00     0.202 C 
BRANCH  21  22
HETATM   22  O   UNK N   1      20.282  17.727   8.044  0.00  0.00    -0.393 OA
HETATM   23  C   UNK N   1      19.574  18.266   9.119  0.00  0.00     0.201 C 
ENDBRANCH  21  22
ENDBRANCH   1  21
BRANCH   1  24
HETATM   24  C   UNK N   1      18.819  16.088   5.413  0.00  0.00     0.243 C 
HETATM   25  O   UNK N   1      17.678  15.835   5.762  0.00  0.00    -0.271 OA
HETATM   26  N   UNK N   1      19.052  16.473   4.132  0.00  0.00    -0.347 N 
HETATM   27  H   UNK N   1      18.286  16.506   3.512  0.00  0.00     0.163 HD
BRANCH  26  28
HETATM   28  C   UNK N   1      20.360  16.840   3.621  0.00  0.00     0.162 C 
BRANCH  28  29
HETATM   29  C   UNK N   1      20.502  18.367   3.545  0.00  0.00     0.071 C 
BRANCH  29  30
HETATM   30  C   UNK N   1      21.915  18.828   3.582  0.00  0.00    -0.056 A 
HETATM   31  C   UNK N   1      22.284  20.003   2.917  0.00  0.00     0.007 A 
HETATM   32  C   UNK N   1      23.598  20.467   2.993  0.00  0.00     0.001 A 
HETATM   33  C   UNK N   1      24.546  19.763   3.743  0.00  0.00     0.000 A 
HETATM   34  C   UNK N   1      24.178  18.594   4.416  0.00  0.00     0.001 A 
HETATM   35  C   UNK N   1      22.861  18.127   4.339  0.00  0.00     0.007 A 
ENDBRANCH  29  30
ENDBRANCH  28  29
BRANCH  28  36
HETATM   36  C   UNK N   1      20.647  16.203   2.269  0.00  0.00     0.185 C 
HETATM   37  O   UNK N   1      20.422  16.846   1.253  0.00  0.00    -0.292 OA
BRANCH  36  38
HETATM   38  C   UNK N   1      21.179  14.791   2.119  0.00  0.00     0.141 A 
HETATM   39  C   UNK N   1      20.312  13.592   2.239  0.00  0.00     0.215 A 
HETATM   40  O   UNK N   1      21.046  14.088   3.330  0.00  0.00    -0.367 OA
HETATM   41  C   UNK N   1      22.565  14.577   1.544  0.00  0.00     0.057 C 
ENDBRANCH  36  38
ENDBRANCH  28  36
ENDBRANCH  26  28
ENDBRANCH   1  24
TORSDOF 14
ENDMDL
MODEL 7
REMARK VINA RESULT:      -6.1      3.259      6.093
REMARK  14 active torsions:
REMARK  status: ('A' for Active; 'I' for Inactive)
REMARK    1  A    between atoms: C_6  and  C_8 
REMARK       I    between atoms: C_8  and  N_10 
REMARK    2  A    between atoms: C_11  and  N_10 
REMARK    3  A    between atoms: C_11  and  C_12 
REMARK    4  A    between atoms: C_11  and  C_15 
REMARK    5  A    between atoms: C_12  and  O_13 
REMARK       I    between atoms: C_15  and  N_17 
REMARK    6  A    between atoms: C_18  and  N_17 
REMARK    7  A    between atoms: C_18  and  C_19 
REMARK    8  A    between atoms: C_18  and  C_22 
REMARK    9  A    between atoms: C_19  and  O_20 
REMARK       I    between atoms: C_22  and  N_24 
REMARK   10  A    between atoms: C_25  and  N_24 
REMARK   11  A    between atoms: C_25  and  C_26 
REMARK   12  A    between atoms: C_25  and  C_33 
REMARK   13  A    between atoms: C_26  and  C_27 
REMARK   14  A    between atoms: C_35  and  C_33 
ROOT
HETATM    1  C   UNK N   1      20.572  14.070   5.212  0.00  0.00     0.200 C 
ENDROOT
BRANCH   1   2
HETATM    2  N   UNK N   1      21.485  14.655   4.249  0.00  0.00    -0.344 N 
HETATM    3  C   UNK N   1      22.828  14.502   4.301  0.00  0.00     0.243 C 
HETATM    4  O   UNK N   1      23.344  13.916   5.246  0.00  0.00    -0.271 OA
HETATM    5  H   UNK N   1      21.108  15.195   3.517  0.00  0.00     0.163 HD
BRANCH   3   6
HETATM    6  C   UNK N   1      23.704  15.035   3.201  0.00  0.00     0.200 C 
BRANCH   6   7
HETATM    7  N   UNK N   1      25.051  14.977   3.692  0.00  0.00    -0.341 N 
HETATM    8  C   UNK N   1      25.901  16.016   3.654  0.00  0.00     0.260 C 
HETATM    9  O   UNK N   1      25.711  16.956   2.889  0.00  0.00    -0.267 OA
HETATM   10  H   UNK N   1      25.369  14.128   4.078  0.00  0.00     0.163 HD
BRANCH   8  11
HETATM   11  C   UNK N   1      26.968  16.068   4.651  0.00  0.00     0.089 A 
HETATM   12  C   UNK N   1      26.801  16.498   5.979  0.00  0.00     0.113 A 
HETATM   13  N   UNK N   1      27.976  16.619   6.688  0.00  0.00    -0.362 N 
HETATM   14  C   UNK N   1      29.063  16.300   5.942  0.00  0.00     0.047 A 
ATOM     15  HN  UNK N   1      28.022  16.915   7.663  1.00  0.00     0.165 HD
HETATM   16  C   UNK N   1      30.460  16.363   6.438  0.00  0.00     0.076 C 
HETATM   17  S   UNK N   1      28.589  15.874   4.418  0.00  0.00    -0.070 SA
ENDBRANCH   8  11
ENDBRANCH   6   7
BRANCH   6  18
HETATM   18  C   UNK N   1      23.548  14.201   1.936  0.00  0.00     0.202 C 
BRANCH  18  19
HETATM   19  O   UNK N   1      22.198  14.072   1.602  0.00  0.00    -0.393 OA
HETATM   20  C   UNK N   1      22.188  13.209   0.504  0.00  0.00     0.201 C 
ENDBRANCH  18  19
ENDBRANCH   6  18
ENDBRANCH   3   6
ENDBRANCH   1   2
BRANCH   1  21
HETATM   21  C   UNK N   1      20.256  12.580   4.980  0.00  0.00     0.202 C 
BRANCH  21  22
HETATM   22  O   UNK N   1      20.288  11.822   6.154  0.00  0.00    -0.393 OA
HETATM   23  C   UNK N   1      21.433  11.033   6.046  0.00  0.00     0.201 C 
ENDBRANCH  21  22
ENDBRANCH   1  21
BRANCH   1  24
HETATM   24  C   UNK N   1      19.374  14.963   5.433  0.00  0.00     0.243 C 
HETATM   25  O   UNK N   1      18.306  14.696   4.908  0.00  0.00    -0.271 OA
HETATM   26  N   UNK N   1      19.479  16.082   6.195  0.00  0.00    -0.347 N 
HETATM   27  H   UNK N   1      18.688  16.665   6.272  0.00  0.00     0.163 HD
BRANCH  26  28
HETATM   28  C   UNK N   1      20.686  16.471   6.901  0.00  0.00     0.162 C 
BRANCH  28  29
HETATM   29  C   UNK N   1      20.513  16.277   8.415  0.00  0.00     0.071 C 
BRANCH  29  30
HETATM   30  C   UNK N   1      20.946  14.936   8.888  0.00  0.00    -0.056 A 
HETATM   31  C   UNK N   1      22.137  14.379   8.410  0.00  0.00     0.007 A 
HETATM   32  C   UNK N   1      22.574  13.143   8.891  0.00  0.00     0.001 A 
HETATM   33  C   UNK N   1      21.826  12.465   9.858  0.00  0.00     0.000 A 
HETATM   34  C   UNK N   1      20.639  13.023  10.343  0.00  0.00     0.001 A 
HETATM   35  C   UNK N   1      20.200  14.262   9.861  0.00  0.00     0.007 A 
ENDBRANCH  29  30
ENDBRANCH  28  29
BRANCH  28  36
HETATM   36  C   UNK N   1      21.099  17.902   6.585  0.00  0.00     0.185 C 
HETATM   37  O   UNK N   1      20.853  18.782   7.398  0.00  0.00    -0.292 OA
BRANCH  36  38
HETATM   38  C   UNK N   1      21.783  18.294   5.290  0.00  0.00     0.141 A 
HETATM   39  C   UNK N   1      21.102  19.075   4.228  0.00  0.00     0.215 A 
HETATM   40  O   UNK N   1      21.155  17.671   4.196  0.00  0.00    -0.367 OA
HETATM   41  C   UNK N   1      23.289  18.152   5.174  0.00  0.00     0.057 C 
ENDBRANCH  36  38
ENDBRANCH  28  36
ENDBRANCH  26  28
ENDBRANCH   1  24
TORSDOF 14
ENDMDL
MODEL 8
REMARK VINA RESULT:      -6.0      3.352      6.244
REMARK  14 active torsions:
REMARK  status: ('A' for Active; 'I' for Inactive)
REMARK    1  A    between atoms: C_6  and  C_8 
REMARK       I    between atoms: C_8  and  N_10 
REMARK    2  A    between atoms: C_11  and  N_10 
REMARK    3  A    between atoms: C_11  and  C_12 
REMARK    4  A    between atoms: C_11  and  C_15 
REMARK    5  A    between atoms: C_12  and  O_13 
REMARK       I    between atoms: C_15  and  N_17 
REMARK    6  A    between atoms: C_18  and  N_17 
REMARK    7  A    between atoms: C_18  and  C_19 
REMARK    8  A    between atoms: C_18  and  C_22 
REMARK    9  A    between atoms: C_19  and  O_20 
REMARK       I    between atoms: C_22  and  N_24 
REMARK   10  A    between atoms: C_25  and  N_24 
REMARK   11  A    between atoms: C_25  and  C_26 
REMARK   12  A    between atoms: C_25  and  C_33 
REMARK   13  A    between atoms: C_26  and  C_27 
REMARK   14  A    between atoms: C_35  and  C_33 
ROOT
HETATM    1  C   UNK N   1      20.365  14.068   5.163  0.00  0.00     0.200 C 
ENDROOT
BRANCH   1   2
HETATM    2  N   UNK N   1      21.054  14.438   3.942  0.00  0.00    -0.344 N 
HETATM    3  C   UNK N   1      22.398  14.558   3.847  0.00  0.00     0.243 C 
HETATM    4  O   UNK N   1      23.098  14.441   4.846  0.00  0.00    -0.271 OA
HETATM    5  H   UNK N   1      20.515  14.613   3.137  0.00  0.00     0.163 HD
BRANCH   3   6
HETATM    6  C   UNK N   1      23.052  14.827   2.520  0.00  0.00     0.200 C 
BRANCH   6   7
HETATM    7  N   UNK N   1      24.221  13.997   2.470  0.00  0.00    -0.341 N 
HETATM    8  C   UNK N   1      25.467  14.478   2.325  0.00  0.00     0.260 C 
HETATM    9  O   UNK N   1      25.659  15.602   1.874  0.00  0.00    -0.267 OA
HETATM   10  H   UNK N   1      24.103  13.022   2.546  0.00  0.00     0.163 HD
BRANCH   8  11
HETATM   11  C   UNK N   1      26.575  13.688   2.859  0.00  0.00     0.089 A 
HETATM   12  C   UNK N   1      26.963  13.668   4.210  0.00  0.00     0.113 A 
HETATM   13  N   UNK N   1      28.134  12.982   4.454  0.00  0.00    -0.362 N 
HETATM   14  C   UNK N   1      28.676  12.469   3.321  0.00  0.00     0.047 A 
ATOM     15  HN  UNK N   1      28.545  12.873   5.381  1.00  0.00     0.165 HD
HETATM   16  C   UNK N   1      29.947  11.706   3.279  0.00  0.00     0.076 C 
HETATM   17  S   UNK N   1      27.728  12.856   2.024  0.00  0.00    -0.070 SA
ENDBRANCH   8  11
ENDBRANCH   6   7
BRANCH   6  18
HETATM   18  C   UNK N   1      22.101  14.499   1.375  0.00  0.00     0.202 C 
BRANCH  18  19
HETATM   19  O   UNK N   1      21.389  15.638   0.994  0.00  0.00    -0.393 OA
HETATM   20  C   UNK N   1      20.094  15.177   0.751  0.00  0.00     0.201 C 
ENDBRANCH  18  19
ENDBRANCH   6  18
ENDBRANCH   3   6
ENDBRANCH   1   2
BRANCH   1  21
HETATM   21  C   UNK N   1      20.042  12.567   5.293  0.00  0.00     0.202 C 
BRANCH  21  22
HETATM   22  O   UNK N   1      20.495  12.009   6.493  0.00  0.00    -0.393 OA
HETATM   23  C   UNK N   1      21.463  11.078   6.117  0.00  0.00     0.201 C 
ENDBRANCH  21  22
ENDBRANCH   1  21
BRANCH   1  24
HETATM   24  C   UNK N   1      19.217  15.008   5.443  0.00  0.00     0.243 C 
HETATM   25  O   UNK N   1      18.113  14.784   4.972  0.00  0.00    -0.271 OA
HETATM   26  N   UNK N   1      19.403  16.122   6.195  0.00  0.00    -0.347 N 
HETATM   27  H   UNK N   1      18.641  16.736   6.312  0.00  0.00     0.163 HD
BRANCH  26  28
HETATM   28  C   UNK N   1      20.659  16.463   6.839  0.00  0.00     0.162 C 
BRANCH  28  29
HETATM   29  C   UNK N   1      20.555  16.274   8.360  0.00  0.00     0.071 C 
BRANCH  29  30
HETATM   30  C   UNK N   1      21.046  14.948   8.821  0.00  0.00    -0.056 A 
HETATM   31  C   UNK N   1      22.267  14.454   8.350  0.00  0.00     0.007 A 
HETATM   32  C   UNK N   1      22.757  13.234   8.820  0.00  0.00     0.001 A 
HETATM   33  C   UNK N   1      22.031  12.509   9.770  0.00  0.00     0.000 A 
HETATM   34  C   UNK N   1      20.815  13.005  10.250  0.00  0.00     0.001 A 
HETATM   35  C   UNK N   1      20.323  14.227   9.778  0.00  0.00     0.007 A 
ENDBRANCH  29  30
ENDBRANCH  28  29
BRANCH  28  36
HETATM   36  C   UNK N   1      21.111  17.877   6.502  0.00  0.00     0.185 C 
HETATM   37  O   UNK N   1      20.913  18.770   7.313  0.00  0.00    -0.292 OA
BRANCH  36  38
HETATM   38  C   UNK N   1      21.778  18.237   5.188  0.00  0.00     0.141 A 
HETATM   39  C   UNK N   1      21.101  19.039   4.140  0.00  0.00     0.215 A 
HETATM   40  O   UNK N   1      21.099  17.634   4.114  0.00  0.00    -0.367 OA
HETATM   41  C   UNK N   1      23.274  18.035   5.036  0.00  0.00     0.057 C 
ENDBRANCH  36  38
ENDBRANCH  28  36
ENDBRANCH  26  28
ENDBRANCH   1  24
TORSDOF 14
ENDMDL
MODEL 9
REMARK VINA RESULT:      -6.0      3.438      6.907
REMARK  14 active torsions:
REMARK  status: ('A' for Active; 'I' for Inactive)
REMARK    1  A    between atoms: C_6  and  C_8 
REMARK       I    between atoms: C_8  and  N_10 
REMARK    2  A    between atoms: C_11  and  N_10 
REMARK    3  A    between atoms: C_11  and  C_12 
REMARK    4  A    between atoms: C_11  and  C_15 
REMARK    5  A    between atoms: C_12  and  O_13 
REMARK       I    between atoms: C_15  and  N_17 
REMARK    6  A    between atoms: C_18  and  N_17 
REMARK    7  A    between atoms: C_18  and  C_19 
REMARK    8  A    between atoms: C_18  and  C_22 
REMARK    9  A    between atoms: C_19  and  O_20 
REMARK       I    between atoms: C_22  and  N_24 
REMARK   10  A    between atoms: C_25  and  N_24 
REMARK   11  A    between atoms: C_25  and  C_26 
REMARK   12  A    between atoms: C_25  and  C_33 
REMARK   13  A    between atoms: C_26  and  C_27 
REMARK   14  A    between atoms: C_35  and  C_33 
ROOT
HETATM    1  C   UNK N   1      22.106  12.844   6.175  0.00  0.00     0.200 C 
ENDROOT
BRANCH   1   2
HETATM    2  N   UNK N   1      22.911  13.310   5.062  0.00  0.00    -0.344 N 
HETATM    3  C   UNK N   1      24.094  13.949   5.209  0.00  0.00     0.243 C 
HETATM    4  O   UNK N   1      24.499  14.246   6.327  0.00  0.00    -0.271 OA
HETATM    5  H   UNK N   1      22.578  13.154   4.148  0.00  0.00     0.163 HD
BRANCH   3   6
HETATM    6  C   UNK N   1      24.932  14.295   4.009  0.00  0.00     0.200 C 
BRANCH   6   7
HETATM    7  N   UNK N   1      25.917  15.237   4.461  0.00  0.00    -0.341 N 
HETATM    8  C   UNK N   1      26.190  16.388   3.825  0.00  0.00     0.260 C 
HETATM    9  O   UNK N   1      25.884  16.545   2.648  0.00  0.00    -0.267 OA
HETATM   10  H   UNK N   1      26.419  15.026   5.282  0.00  0.00     0.163 HD
BRANCH   8  11
HETATM   11  C   UNK N   1      26.722  17.498   4.613  0.00  0.00     0.089 A 
HETATM   12  C   UNK N   1      27.130  17.402   5.955  0.00  0.00     0.113 A 
HETATM   13  N   UNK N   1      27.440  18.610   6.541  0.00  0.00    -0.362 N 
HETATM   14  C   UNK N   1      27.277  19.653   5.689  0.00  0.00     0.047 A 
ATOM     15  HN  UNK N   1      27.756  18.708   7.507  1.00  0.00     0.165 HD
HETATM   16  C   UNK N   1      27.513  21.071   6.056  0.00  0.00     0.076 C 
HETATM   17  S   UNK N   1      26.752  19.101   4.224  0.00  0.00    -0.070 SA
ENDBRANCH   8  11
ENDBRANCH   6   7
BRANCH   6  18
HETATM   18  C   UNK N   1      25.593  13.048   3.436  0.00  0.00     0.202 C 
BRANCH  18  19
HETATM   19  O   UNK N   1      25.957  13.259   2.104  0.00  0.00    -0.393 OA
HETATM   20  C   UNK N   1      27.310  12.922   2.052  0.00  0.00     0.201 C 
ENDBRANCH  18  19
ENDBRANCH   6  18
ENDBRANCH   3   6
ENDBRANCH   1   2
BRANCH   1  21
HETATM   21  C   UNK N   1      22.306  11.361   6.540  0.00  0.00     0.202 C 
BRANCH  21  22
HETATM   22  O   UNK N   1      22.851  10.607   5.497  0.00  0.00    -0.393 OA
HETATM   23  C   UNK N   1      21.871   9.667   5.177  0.00  0.00     0.201 C 
ENDBRANCH  21  22
ENDBRANCH   1  21
BRANCH   1  24
HETATM   24  C   UNK N   1      20.672  13.293   6.030  0.00  0.00     0.243 C 
HETATM   25  O   UNK N   1      19.880  12.617   5.393  0.00  0.00    -0.271 OA
HETATM   26  N   UNK N   1      20.253  14.460   6.582  0.00  0.00    -0.347 N 
HETATM   27  H   UNK N   1      19.323  14.742   6.421  0.00  0.00     0.163 HD
BRANCH  26  28
HETATM   28  C   UNK N   1      21.096  15.319   7.395  0.00  0.00     0.162 C 
BRANCH  28  29
HETATM   29  C   UNK N   1      20.646  15.284   8.863  0.00  0.00     0.071 C 
BRANCH  29  30
HETATM   30  C   UNK N   1      21.229  14.151   9.629  0.00  0.00    -0.056 A 
HETATM   31  C   UNK N   1      20.398  13.324  10.393  0.00  0.00     0.007 A 
HETATM   32  C   UNK N   1      20.933  12.228  11.071  0.00  0.00     0.001 A 
HETATM   33  C   UNK N   1      22.300  11.949  10.979  0.00  0.00     0.000 A 
HETATM   34  C   UNK N   1      23.131  12.768  10.209  0.00  0.00     0.001 A 
HETATM   35  C   UNK N   1      22.595  13.867   9.530  0.00  0.00     0.007 A 
ENDBRANCH  29  30
ENDBRANCH  28  29
BRANCH  28  36
HETATM   36  C   UNK N   1      21.128  16.750   6.875  0.00  0.00     0.185 C 
HETATM   37  O   UNK N   1      20.701  17.647   7.588  0.00  0.00    -0.292 OA
BRANCH  36  38
HETATM   38  C   UNK N   1      21.644  17.113   5.497  0.00  0.00     0.141 A 
HETATM   39  C   UNK N   1      20.750  17.287   4.327  0.00  0.00     0.215 A 
HETATM   40  O   UNK N   1      21.396  16.068   4.590  0.00  0.00    -0.367 OA
HETATM   41  C   UNK N   1      23.071  17.605   5.346  0.00  0.00     0.057 C 
ENDBRANCH  36  38
ENDBRANCH  28  36
ENDBRANCH  26  28
ENDBRANCH   1  24
TORSDOF 14
ENDMDL
