MODEL 1
REMARK VINA RESULT:      -8.3      0.000      0.000
REMARK  10 active torsions:
REMARK  status: ('A' for Active; 'I' for Inactive)
REMARK    1  A    between atoms: C_4  and  C_2 
REMARK    2  A    between atoms: C_8  and  C_36 
REMARK    3  A    between atoms: C_16  and  C_32 
REMARK    4  A    between atoms: C_20  and  C_25 
REMARK    5  A    between atoms: C_25  and  C_26 
REMARK    6  A    between atoms: C_32  and  C_33 
REMARK    7  A    between atoms: C_33  and  O_35 
REMARK    8  A    between atoms: C_36  and  C_37 
REMARK    9  A    between atoms: C_37  and  C_38 
REMARK   10  A    between atoms: C_38  and  N_39 
REMARK       I    between atoms: N_39  and  C_40 
REMARK       I    between atoms: C_40  and  N_43 
ROOT
HETATM    1  C   UNK N   1      22.383  13.445   3.393  0.00  0.00     0.182 C 
HETATM    2  C   UNK N   1      21.740  14.805   3.489  0.00  0.00     0.241 C 
HETATM    3  O   UNK N   1      22.017  15.674   2.675  0.00  0.00    -0.271 OA
HETATM    4  N   UNK N   1      21.078  15.111   4.625  0.00  0.00    -0.346 N 
HETATM    5  C   UNK N   1      20.884  16.458   5.122  0.00  0.00     0.176 C 
HETATM    6  C   UNK N   1      20.159  16.377   6.422  0.00  0.00     0.240 C 
HETATM    7  O   UNK N   1      18.995  16.007   6.461  0.00  0.00    -0.271 OA
HETATM    8  N   UNK N   1      20.866  16.554   7.559  0.00  0.00    -0.351 N 
HETATM    9  C   UNK N   1      20.351  16.177   8.849  0.00  0.00     0.225 C 
HETATM   10  C   UNK N   1      20.609  14.713   9.052  0.00  0.00     0.236 C 
HETATM   11  O   UNK N   1      19.716  13.989   9.468  0.00  0.00    -0.272 OA
HETATM   12  N   UNK N   1      21.845  14.215   8.793  0.00  0.00    -0.346 N 
HETATM   13  C   UNK N   1      22.213  12.840   9.027  0.00  0.00     0.186 C 
HETATM   14  C   UNK N   1      23.071  12.340   7.875  0.00  0.00     0.241 C 
HETATM   15  O   UNK N   1      24.254  12.090   8.073  0.00  0.00    -0.271 OA
HETATM   16  N   UNK N   1      22.549  12.169   6.628  0.00  0.00    -0.346 N 
HETATM   17  C   UNK N   1      23.418  11.711   5.561  0.00  0.00     0.181 C 
HETATM   18  C   UNK N   1      24.226  12.790   4.901  0.00  0.00     0.243 C 
HETATM   19  O   UNK N   1      25.374  12.952   5.300  0.00  0.00    -0.271 OA
HETATM   20  N   UNK N   1      23.760  13.553   3.870  0.00  0.00    -0.341 N 
HETATM   21  C   UNK N   1      24.641  14.536   3.276  0.00  0.00     0.153 C 
HETATM   22  H   UNK N   1      20.701  14.369   5.151  0.00  0.00     0.163 HD
HETATM   23  H   UNK N   1      21.763  16.955   7.503  0.00  0.00     0.163 HD
HETATM   24  H   UNK N   1      22.525  14.824   8.424  0.00  0.00     0.163 HD
HETATM   25  H   UNK N   1      21.598  12.354   6.454  0.00  0.00     0.163 HD
ENDROOT
BRANCH   5  26
HETATM   26  C   UNK N   1      20.370  17.486   4.113  0.00  0.00     0.036 C 
BRANCH  26  27
HETATM   27  C   UNK N   1      20.924  18.876   4.311  0.00  0.00     0.023 C 
BRANCH  27  28
HETATM   28  C   UNK N   1      21.954  19.142   3.235  0.00  0.00     0.138 C 
BRANCH  28  29
HETATM   29  N   UNK N   1      21.548  20.295   2.483  0.00  0.00    -0.227 N 
HETATM   30  C   UNK N   1      20.750  20.168   1.321  0.00  0.00     0.665 C 
HETATM   31  N   UNK N   1      20.316  21.218   0.733  0.00  0.00    -0.235 N 
HETATM   32  N   UNK N   1      20.393  18.891   0.827  0.00  0.00    -0.235 N 
HETATM   33  H   UNK N   1      19.904  22.016   1.137  0.00  0.00     0.174 HD
ATOM     34  HN  UNK N   1      20.409  21.231  -0.284  1.00  0.00     0.174 HD
HETATM   35  H   UNK N   1      19.824  18.210   0.402  0.00  0.00     0.174 HD
HETATM   36  H   UNK N   1      21.202  18.368   1.035  0.00  0.00     0.174 HD
HETATM   37  H   UNK N   1      21.830  21.191   2.780  0.00  0.00     0.177 HD
ENDBRANCH  28  29
ENDBRANCH  27  28
ENDBRANCH  26  27
ENDBRANCH   5  26
BRANCH   1  38
HETATM   38  C   UNK N   1      22.288  12.754   2.016  0.00  0.00     0.009 C 
HETATM   39  C   UNK N   1      22.770  13.607   0.855  0.00  0.00     0.012 C 
HETATM   40  C   UNK N   1      20.891  12.236   1.732  0.00  0.00     0.012 C 
ENDBRANCH   1  38
BRANCH  17  41
HETATM   41  C   UNK N   1      22.944  10.538   4.701  0.00  0.00     0.073 C 
BRANCH  41  42
HETATM   42  C   UNK N   1      23.117   9.264   5.484  0.00  0.00    -0.056 A 
HETATM   43  C   UNK N   1      24.261   9.071   6.267  0.00  0.00     0.007 A 
HETATM   44  C   UNK N   1      24.390   7.919   7.052  0.00  0.00     0.001 A 
HETATM   45  C   UNK N   1      23.372   6.960   7.063  0.00  0.00     0.000 A 
HETATM   46  C   UNK N   1      22.230   7.146   6.281  0.00  0.00     0.001 A 
HETATM   47  C   UNK N   1      22.101   8.295   5.494  0.00  0.00     0.007 A 
ENDBRANCH  41  42
ENDBRANCH  17  41
BRANCH  13  48
HETATM   48  C   UNK N   1      22.980  12.827  10.358  0.00  0.00     0.144 C 
BRANCH  48  49
HETATM   49  C   UNK N   1      22.285  12.160  11.510  0.00  0.00     0.141 C 
HETATM   50  O   UNK N   1      22.897  11.834  12.515  0.00  0.00    -0.650 OA
BRANCH  49  51
HETATM   51  O   UNK N   1      20.962  11.931  11.432  0.00  0.00    -0.776 OA
HETATM   52  H   UNK N   1      20.412  12.254  10.745  0.00  0.00     0.167 HD
ENDBRANCH  49  51
ENDBRANCH  48  49
ENDBRANCH  13  48
TORSDOF 10
ENDMDL
MODEL 2
REMARK VINA RESULT:      -8.1      2.780      6.613
REMARK  10 active torsions:
REMARK  status: ('A' for Active; 'I' for Inactive)
REMARK    1  A    between atoms: C_4  and  C_2 
REMARK    2  A    between atoms: C_8  and  C_36 
REMARK    3  A    between atoms: C_16  and  C_32 
REMARK    4  A    between atoms: C_20  and  C_25 
REMARK    5  A    between atoms: C_25  and  C_26 
REMARK    6  A    between atoms: C_32  and  C_33 
REMARK    7  A    between atoms: C_33  and  O_35 
REMARK    8  A    between atoms: C_36  and  C_37 
REMARK    9  A    between atoms: C_37  and  C_38 
REMARK   10  A    between atoms: C_38  and  N_39 
REMARK       I    between atoms: N_39  and  C_40 
REMARK       I    between atoms: C_40  and  N_43 
ROOT
HETATM    1  C   UNK N   1      21.501  17.041   4.762  0.00  0.00     0.182 C 
HETATM    2  C   UNK N   1      22.541  16.307   3.954  0.00  0.00     0.241 C 
HETATM    3  O   UNK N   1      22.426  16.218   2.740  0.00  0.00    -0.271 OA
HETATM    4  N   UNK N   1      23.431  15.540   4.619  0.00  0.00    -0.346 N 
HETATM    5  C   UNK N   1      24.107  14.390   4.053  0.00  0.00     0.176 C 
HETATM    6  C   UNK N   1      24.961  13.781   5.110  0.00  0.00     0.240 C 
HETATM    7  O   UNK N   1      25.945  14.372   5.531  0.00  0.00    -0.271 OA
HETATM    8  N   UNK N   1      24.527  12.650   5.708  0.00  0.00    -0.351 N 
HETATM    9  C   UNK N   1      25.091  12.170   6.942  0.00  0.00     0.225 C 
HETATM   10  C   UNK N   1      24.426  12.890   8.079  0.00  0.00     0.236 C 
HETATM   11  O   UNK N   1      25.103  13.361   8.981  0.00  0.00    -0.272 OA
HETATM   12  N   UNK N   1      23.072  12.988   8.101  0.00  0.00    -0.346 N 
HETATM   13  C   UNK N   1      22.337  13.593   9.184  0.00  0.00     0.186 C 
HETATM   14  C   UNK N   1      21.201  14.432   8.620  0.00  0.00     0.241 C 
HETATM   15  O   UNK N   1      20.043  14.071   8.798  0.00  0.00    -0.271 OA
HETATM   16  N   UNK N   1      21.446  15.574   7.919  0.00  0.00    -0.346 N 
HETATM   17  C   UNK N   1      20.326  16.324   7.385  0.00  0.00     0.181 C 
HETATM   18  C   UNK N   1      19.800  15.820   6.073  0.00  0.00     0.243 C 
HETATM   19  O   UNK N   1      18.834  15.066   6.109  0.00  0.00    -0.271 OA
HETATM   20  N   UNK N   1      20.317  16.193   4.865  0.00  0.00    -0.341 N 
HETATM   21  C   UNK N   1      19.703  15.682   3.657  0.00  0.00     0.153 C 
HETATM   22  H   UNK N   1      23.635  15.778   5.553  0.00  0.00     0.163 HD
HETATM   23  H   UNK N   1      23.801  12.138   5.286  0.00  0.00     0.163 HD
HETATM   24  H   UNK N   1      22.567  12.628   7.337  0.00  0.00     0.163 HD
HETATM   25  H   UNK N   1      22.369  15.884   7.777  0.00  0.00     0.163 HD
ENDROOT
BRANCH   5  26
HETATM   26  C   UNK N   1      24.753  14.592   2.681  0.00  0.00     0.036 C 
BRANCH  26  27
HETATM   27  C   UNK N   1      26.262  14.575   2.700  0.00  0.00     0.023 C 
BRANCH  27  28
HETATM   28  C   UNK N   1      26.761  16.000   2.613  0.00  0.00     0.138 C 
BRANCH  28  29
HETATM   29  N   UNK N   1      26.990  16.491   3.943  0.00  0.00    -0.227 N 
HETATM   30  C   UNK N   1      26.436  17.720   4.375  0.00  0.00     0.665 C 
HETATM   31  N   UNK N   1      26.569  18.079   5.596  0.00  0.00    -0.235 N 
HETATM   32  N   UNK N   1      25.704  18.535   3.480  0.00  0.00    -0.235 N 
HETATM   33  H   UNK N   1      26.437  17.537   6.408  0.00  0.00     0.174 HD
ATOM     34  HN  UNK N   1      26.845  19.050   5.748  1.00  0.00     0.174 HD
HETATM   35  H   UNK N   1      25.002  19.162   3.193  0.00  0.00     0.174 HD
HETATM   36  H   UNK N   1      26.188  18.382   2.636  0.00  0.00     0.174 HD
HETATM   37  H   UNK N   1      27.541  15.963   4.565  0.00  0.00     0.177 HD
ENDBRANCH  28  29
ENDBRANCH  27  28
ENDBRANCH  26  27
ENDBRANCH   5  26
BRANCH   1  38
HETATM   38  C   UNK N   1      21.165  18.469   4.283  0.00  0.00     0.009 C 
HETATM   39  C   UNK N   1      20.116  18.529   3.185  0.00  0.00     0.012 C 
HETATM   40  C   UNK N   1      22.404  19.234   3.857  0.00  0.00     0.012 C 
ENDBRANCH   1  38
BRANCH  17  41
HETATM   41  C   UNK N   1      20.275  17.829   7.652  0.00  0.00     0.073 C 
BRANCH  41  42
HETATM   42  C   UNK N   1      19.371  18.082   8.827  0.00  0.00    -0.056 A 
HETATM   43  C   UNK N   1      19.675  19.099   9.742  0.00  0.00     0.007 A 
HETATM   44  C   UNK N   1      18.797  19.384  10.794  0.00  0.00     0.001 A 
HETATM   45  C   UNK N   1      17.609  18.659  10.932  0.00  0.00     0.000 A 
HETATM   46  C   UNK N   1      17.302  17.643  10.025  0.00  0.00     0.001 A 
HETATM   47  C   UNK N   1      18.180  17.355   8.975  0.00  0.00     0.007 A 
ENDBRANCH  41  42
ENDBRANCH  17  41
BRANCH  13  48
HETATM   48  C   UNK N   1      21.817  12.432  10.044  0.00  0.00     0.144 C 
BRANCH  48  49
HETATM   49  C   UNK N   1      22.533  12.207  11.345  0.00  0.00     0.141 C 
HETATM   50  O   UNK N   1      21.937  11.815  12.336  0.00  0.00    -0.650 OA
BRANCH  49  51
HETATM   51  O   UNK N   1      23.858  12.429  11.410  0.00  0.00    -0.776 OA
HETATM   52  H   UNK N   1      24.272  13.222  11.129  0.00  0.00     0.167 HD
ENDBRANCH  49  51
ENDBRANCH  48  49
ENDBRANCH  13  48
TORSDOF 10
ENDMDL
MODEL 3
REMARK VINA RESULT:      -8.0      3.108      8.222
REMARK  10 active torsions:
REMARK  status: ('A' for Active; 'I' for Inactive)
REMARK    1  A    between atoms: C_4  and  C_2 
REMARK    2  A    between atoms: C_8  and  C_36 
REMARK    3  A    between atoms: C_16  and  C_32 
REMARK    4  A    between atoms: C_20  and  C_25 
REMARK    5  A    between atoms: C_25  and  C_26 
REMARK    6  A    between atoms: C_32  and  C_33 
REMARK    7  A    between atoms: C_33  and  O_35 
REMARK    8  A    between atoms: C_36  and  C_37 
REMARK    9  A    between atoms: C_37  and  C_38 
REMARK   10  A    between atoms: C_38  and  N_39 
REMARK       I    between atoms: N_39  and  C_40 
REMARK       I    between atoms: C_40  and  N_43 
ROOT
HETATM    1  C   UNK N   1      25.049  14.545   5.903  0.00  0.00     0.182 C 
HETATM    2  C   UNK N   1      24.058  14.516   7.039  0.00  0.00     0.241 C 
HETATM    3  O   UNK N   1      24.226  13.756   7.982  0.00  0.00    -0.271 OA
HETATM    4  N   UNK N   1      22.873  15.138   6.858  0.00  0.00    -0.346 N 
HETATM    5  C   UNK N   1      21.648  14.783   7.546  0.00  0.00     0.176 C 
HETATM    6  C   UNK N   1      20.556  15.659   7.038  0.00  0.00     0.240 C 
HETATM    7  O   UNK N   1      20.554  16.857   7.286  0.00  0.00    -0.271 OA
HETATM    8  N   UNK N   1      19.672  15.134   6.162  0.00  0.00    -0.351 N 
HETATM    9  C   UNK N   1      18.797  15.958   5.369  0.00  0.00     0.225 C 
HETATM   10  C   UNK N   1      19.551  16.418   4.156  0.00  0.00     0.236 C 
HETATM   11  O   UNK N   1      19.509  17.593   3.822  0.00  0.00    -0.272 OA
HETATM   12  N   UNK N   1      20.255  15.513   3.428  0.00  0.00    -0.346 N 
HETATM   13  C   UNK N   1      20.950  15.842   2.208  0.00  0.00     0.186 C 
HETATM   14  C   UNK N   1      22.294  15.132   2.181  0.00  0.00     0.241 C 
HETATM   15  O   UNK N   1      22.482  14.233   1.370  0.00  0.00    -0.271 OA
HETATM   16  N   UNK N   1      23.291  15.473   3.045  0.00  0.00    -0.346 N 
HETATM   17  C   UNK N   1      24.545  14.748   2.991  0.00  0.00     0.181 C 
HETATM   18  C   UNK N   1      24.555  13.451   3.744  0.00  0.00     0.243 C 
HETATM   19  O   UNK N   1      24.333  12.430   3.103  0.00  0.00    -0.271 OA
HETATM   20  N   UNK N   1      24.835  13.359   5.077  0.00  0.00    -0.341 N 
HETATM   21  C   UNK N   1      24.862  12.050   5.696  0.00  0.00     0.153 C 
HETATM   22  H   UNK N   1      22.840  15.885   6.217  0.00  0.00     0.163 HD
HETATM   23  H   UNK N   1      19.624  14.156   6.063  0.00  0.00     0.163 HD
HETATM   24  H   UNK N   1      20.294  14.585   3.752  0.00  0.00     0.163 HD
HETATM   25  H   UNK N   1      23.161  16.200   3.695  0.00  0.00     0.163 HD
ENDROOT
BRANCH   5  26
HETATM   26  C   UNK N   1      21.746  14.618   9.063  0.00  0.00     0.036 C 
BRANCH  26  27
HETATM   27  C   UNK N   1      20.618  13.818   9.671  0.00  0.00     0.023 C 
BRANCH  27  28
HETATM   28  C   UNK N   1      21.206  12.609  10.365  0.00  0.00     0.138 C 
BRANCH  28  29
HETATM   29  N   UNK N   1      22.636  12.726  10.366  0.00  0.00    -0.227 N 
HETATM   30  C   UNK N   1      23.413  12.202  11.426  0.00  0.00     0.665 C 
HETATM   31  N   UNK N   1      24.690  12.228  11.348  0.00  0.00    -0.235 N 
HETATM   32  N   UNK N   1      22.792  11.614  12.553  0.00  0.00    -0.235 N 
HETATM   33  H   UNK N   1      25.258  11.982  10.583  0.00  0.00     0.174 HD
ATOM     34  HN  UNK N   1      25.182  12.542  12.185  1.00  0.00     0.174 HD
HETATM   35  H   UNK N   1      22.679  10.982  13.299  0.00  0.00     0.174 HD
HETATM   36  H   UNK N   1      21.986  12.173  12.646  0.00  0.00     0.174 HD
HETATM   37  H   UNK N   1      23.085  13.178   9.615  0.00  0.00     0.177 HD
ENDBRANCH  28  29
ENDBRANCH  27  28
ENDBRANCH  26  27
ENDBRANCH   5  26
BRANCH   1  38
HETATM   38  C   UNK N   1      26.528  14.724   6.307  0.00  0.00     0.009 C 
HETATM   39  C   UNK N   1      26.893  16.138   6.726  0.00  0.00     0.012 C 
HETATM   40  C   UNK N   1      27.477  14.243   5.227  0.00  0.00     0.012 C 
ENDBRANCH   1  38
BRANCH  17  41
HETATM   41  C   UNK N   1      25.842  15.558   2.933  0.00  0.00     0.073 C 
BRANCH  41  42
HETATM   42  C   UNK N   1      25.577  16.935   3.479  0.00  0.00    -0.056 A 
HETATM   43  C   UNK N   1      24.388  17.201   4.168  0.00  0.00     0.007 A 
HETATM   44  C   UNK N   1      24.172  18.461   4.739  0.00  0.00     0.001 A 
HETATM   45  C   UNK N   1      25.148  19.457   4.630  0.00  0.00     0.000 A 
HETATM   46  C   UNK N   1      26.334  19.198   3.940  0.00  0.00     0.001 A 
HETATM   47  C   UNK N   1      26.550  17.941   3.367  0.00  0.00     0.007 A 
ENDBRANCH  41  42
ENDBRANCH  17  41
BRANCH  13  48
HETATM   48  C   UNK N   1      20.037  15.379   1.063  0.00  0.00     0.144 C 
BRANCH  48  49
HETATM   49  C   UNK N   1      19.538  16.458   0.144  0.00  0.00     0.141 C 
HETATM   50  O   UNK N   1      20.294  17.301  -0.311  0.00  0.00    -0.650 OA
BRANCH  49  51
HETATM   51  O   UNK N   1      18.235  16.481  -0.191  0.00  0.00    -0.776 OA
HETATM   52  H   UNK N   1      17.534  16.556   0.428  0.00  0.00     0.167 HD
ENDBRANCH  49  51
ENDBRANCH  48  49
ENDBRANCH  13  48
TORSDOF 10
ENDMDL
MODEL 4
REMARK VINA RESULT:      -7.8      9.254     13.364
REMARK  10 active torsions:
REMARK  status: ('A' for Active; 'I' for Inactive)
REMARK    1  A    between atoms: C_4  and  C_2 
REMARK    2  A    between atoms: C_8  and  C_36 
REMARK    3  A    between atoms: C_16  and  C_32 
REMARK    4  A    between atoms: C_20  and  C_25 
REMARK    5  A    between atoms: C_25  and  C_26 
REMARK    6  A    between atoms: C_32  and  C_33 
REMARK    7  A    between atoms: C_33  and  O_35 
REMARK    8  A    between atoms: C_36  and  C_37 
REMARK    9  A    between atoms: C_37  and  C_38 
REMARK   10  A    between atoms: C_38  and  N_39 
REMARK       I    between atoms: N_39  and  C_40 
REMARK       I    between atoms: C_40  and  N_43 
ROOT
HETATM    1  C   UNK N   1      31.345  16.420   8.486  0.00  0.00     0.182 C 
HETATM    2  C   UNK N   1      32.431  15.545   9.059  0.00  0.00     0.241 C 
HETATM    3  O   UNK N   1      33.334  16.040   9.720  0.00  0.00    -0.271 OA
HETATM    4  N   UNK N   1      32.526  14.277   8.604  0.00  0.00    -0.346 N 
HETATM    5  C   UNK N   1      33.747  13.498   8.597  0.00  0.00     0.176 C 
HETATM    6  C   UNK N   1      33.456  12.178   7.971  0.00  0.00     0.240 C 
HETATM    7  O   UNK N   1      32.735  11.368   8.537  0.00  0.00    -0.271 OA
HETATM    8  N   UNK N   1      33.863  11.971   6.700  0.00  0.00    -0.351 N 
HETATM    9  C   UNK N   1      33.358  10.886   5.900  0.00  0.00     0.225 C 
HETATM   10  C   UNK N   1      32.055  11.313   5.292  0.00  0.00     0.236 C 
HETATM   11  O   UNK N   1      31.089  10.564   5.331  0.00  0.00    -0.272 OA
HETATM   12  N   UNK N   1      31.972  12.523   4.683  0.00  0.00    -0.346 N 
HETATM   13  C   UNK N   1      30.788  12.993   4.005  0.00  0.00     0.186 C 
HETATM   14  C   UNK N   1      30.573  14.465   4.319  0.00  0.00     0.241 C 
HETATM   15  O   UNK N   1      30.714  15.295   3.429  0.00  0.00    -0.271 OA
HETATM   16  N   UNK N   1      30.229  14.877   5.571  0.00  0.00    -0.346 N 
HETATM   17  C   UNK N   1      30.058  16.295   5.821  0.00  0.00     0.181 C 
HETATM   18  C   UNK N   1      31.329  17.044   6.096  0.00  0.00     0.243 C 
HETATM   19  O   UNK N   1      31.852  17.624   5.151  0.00  0.00    -0.271 OA
HETATM   20  N   UNK N   1      31.892  17.137   7.337  0.00  0.00    -0.341 N 
HETATM   21  C   UNK N   1      33.096  17.924   7.499  0.00  0.00     0.153 C 
HETATM   22  H   UNK N   1      31.709  13.853   8.254  0.00  0.00     0.163 HD
HETATM   23  H   UNK N   1      34.528  12.582   6.308  0.00  0.00     0.163 HD
HETATM   24  H   UNK N   1      32.760  13.112   4.706  0.00  0.00     0.163 HD
HETATM   25  H   UNK N   1      30.100  14.223   6.295  0.00  0.00     0.163 HD
ENDROOT
BRANCH   5  26
HETATM   26  C   UNK N   1      34.546  13.478   9.901  0.00  0.00     0.036 C 
BRANCH  26  27
HETATM   27  C   UNK N   1      36.042  13.550   9.711  0.00  0.00     0.023 C 
BRANCH  27  28
HETATM   28  C   UNK N   1      36.710  12.895  10.899  0.00  0.00     0.138 C 
BRANCH  28  29
HETATM   29  N   UNK N   1      37.047  13.909  11.857  0.00  0.00    -0.227 N 
HETATM   30  C   UNK N   1      36.385  13.987  13.105  0.00  0.00     0.665 C 
HETATM   31  N   UNK N   1      36.780  14.834  13.980  0.00  0.00    -0.235 N 
HETATM   32  N   UNK N   1      35.318  13.109  13.412  0.00  0.00    -0.235 N 
HETATM   33  H   UNK N   1      37.702  15.032  14.262  0.00  0.00     0.174 HD
ATOM     34  HN  UNK N   1      36.046  15.372  14.442  1.00  0.00     0.174 HD
HETATM   35  H   UNK N   1      34.748  12.537  13.973  0.00  0.00     0.174 HD
HETATM   36  H   UNK N   1      34.887  13.012  12.531  0.00  0.00     0.174 HD
HETATM   37  H   UNK N   1      37.752  14.563  11.642  0.00  0.00     0.177 HD
ENDBRANCH  28  29
ENDBRANCH  27  28
ENDBRANCH  26  27
ENDBRANCH   5  26
BRANCH   1  38
HETATM   38  C   UNK N   1      30.643  17.360   9.489  0.00  0.00     0.009 C 
HETATM   39  C   UNK N   1      29.279  16.874   9.949  0.00  0.00     0.012 C 
HETATM   40  C   UNK N   1      30.537  18.779   8.964  0.00  0.00     0.012 C 
ENDBRANCH   1  38
BRANCH  17  41
HETATM   41  C   UNK N   1      28.784  16.751   6.535  0.00  0.00     0.073 C 
BRANCH  41  42
HETATM   42  C   UNK N   1      28.315  18.038   5.913  0.00  0.00    -0.056 A 
HETATM   43  C   UNK N   1      28.177  18.137   4.523  0.00  0.00     0.007 A 
HETATM   44  C   UNK N   1      27.670  19.309   3.949  0.00  0.00     0.001 A 
HETATM   45  C   UNK N   1      27.293  20.383   4.761  0.00  0.00     0.000 A 
HETATM   46  C   UNK N   1      27.432  20.291   6.148  0.00  0.00     0.001 A 
HETATM   47  C   UNK N   1      27.940  19.122   6.723  0.00  0.00     0.007 A 
ENDBRANCH  41  42
ENDBRANCH  17  41
BRANCH  13  48
HETATM   48  C   UNK N   1      31.036  12.759   2.507  0.00  0.00     0.144 C 
BRANCH  48  49
HETATM   49  C   UNK N   1      32.474  12.755   2.073  0.00  0.00     0.141 C 
HETATM   50  O   UNK N   1      33.042  11.716   1.776  0.00  0.00    -0.650 OA
BRANCH  49  51
HETATM   51  O   UNK N   1      33.139  13.922   1.999  0.00  0.00    -0.776 OA
HETATM   52  H   UNK N   1      33.068  14.609   2.633  0.00  0.00     0.167 HD
ENDBRANCH  49  51
ENDBRANCH  48  49
ENDBRANCH  13  48
TORSDOF 10
ENDMDL
MODEL 5
REMARK VINA RESULT:      -7.8      3.338      8.484
REMARK  10 active torsions:
REMARK  status: ('A' for Active; 'I' for Inactive)
REMARK    1  A    between atoms: C_4  and  C_2 
REMARK    2  A    between atoms: C_8  and  C_36 
REMARK    3  A    between atoms: C_16  and  C_32 
REMARK    4  A    between atoms: C_20  and  C_25 
REMARK    5  A    between atoms: C_25  and  C_26 
REMARK    6  A    between atoms: C_32  and  C_33 
REMARK    7  A    between atoms: C_33  and  O_35 
REMARK    8  A    between atoms: C_36  and  C_37 
REMARK    9  A    between atoms: C_37  and  C_38 
REMARK   10  A    between atoms: C_38  and  N_39 
REMARK       I    between atoms: N_39  and  C_40 
REMARK       I    between atoms: C_40  and  N_43 
ROOT
HETATM    1  C   UNK N   1      21.134  15.315   5.787  0.00  0.00     0.182 C 
HETATM    2  C   UNK N   1      22.142  14.513   6.571  0.00  0.00     0.241 C 
HETATM    3  O   UNK N   1      21.842  14.044   7.660  0.00  0.00    -0.271 OA
HETATM    4  N   UNK N   1      23.431  14.557   6.172  0.00  0.00    -0.346 N 
HETATM    5  C   UNK N   1      24.567  14.337   7.044  0.00  0.00     0.176 C 
HETATM    6  C   UNK N   1      25.812  14.525   6.248  0.00  0.00     0.240 C 
HETATM    7  O   UNK N   1      26.112  13.731   5.368  0.00  0.00    -0.271 OA
HETATM    8  N   UNK N   1      26.502  15.676   6.404  0.00  0.00    -0.351 N 
HETATM    9  C   UNK N   1      27.510  16.099   5.467  0.00  0.00     0.225 C 
HETATM   10  C   UNK N   1      26.831  16.795   4.325  0.00  0.00     0.236 C 
HETATM   11  O   UNK N   1      27.137  16.519   3.174  0.00  0.00    -0.272 OA
HETATM   12  N   UNK N   1      25.898  17.746   4.587  0.00  0.00    -0.346 N 
HETATM   13  C   UNK N   1      25.244  18.523   3.562  0.00  0.00     0.186 C 
HETATM   14  C   UNK N   1      23.770  18.673   3.901  0.00  0.00     0.241 C 
HETATM   15  O   UNK N   1      23.334  19.776   4.209  0.00  0.00    -0.271 OA
HETATM   16  N   UNK N   1      22.926  17.604   3.871  0.00  0.00    -0.346 N 
HETATM   17  C   UNK N   1      21.533  17.799   4.225  0.00  0.00     0.181 C 
HETATM   18  C   UNK N   1      21.249  17.780   5.698  0.00  0.00     0.243 C 
HETATM   19  O   UNK N   1      21.190  18.863   6.271  0.00  0.00    -0.271 OA
HETATM   20  N   UNK N   1      21.019  16.634   6.404  0.00  0.00    -0.341 N 
HETATM   21  C   UNK N   1      20.709  16.734   7.814  0.00  0.00     0.153 C 
HETATM   22  H   UNK N   1      23.612  14.752   5.224  0.00  0.00     0.163 HD
HETATM   23  H   UNK N   1      26.310  16.243   7.185  0.00  0.00     0.163 HD
HETATM   24  H   UNK N   1      25.653  17.912   5.526  0.00  0.00     0.163 HD
HETATM   25  H   UNK N   1      23.256  16.713   3.615  0.00  0.00     0.163 HD
ENDROOT
BRANCH   5  26
HETATM   26  C   UNK N   1      24.505  13.098   7.939  0.00  0.00     0.036 C 
BRANCH  26  27
HETATM   27  C   UNK N   1      24.842  13.364   9.386  0.00  0.00     0.023 C 
BRANCH  27  28
HETATM   28  C   UNK N   1      24.775  12.056  10.144  0.00  0.00     0.138 C 
BRANCH  28  29
HETATM   29  N   UNK N   1      24.663  12.340  11.546  0.00  0.00    -0.227 N 
HETATM   30  C   UNK N   1      23.479  12.042  12.262  0.00  0.00     0.665 C 
HETATM   31  N   UNK N   1      23.447  12.208  13.530  0.00  0.00    -0.235 N 
HETATM   32  N   UNK N   1      22.343  11.525  11.594  0.00  0.00    -0.235 N 
HETATM   33  H   UNK N   1      24.120  11.940  14.196  0.00  0.00     0.174 HD
ATOM     34  HN  UNK N   1      22.618  12.677  13.898  1.00  0.00     0.174 HD
HETATM   35  H   UNK N   1      21.534  10.980  11.472  0.00  0.00     0.174 HD
HETATM   36  H   UNK N   1      22.396  11.993  10.728  0.00  0.00     0.174 HD
HETATM   37  H   UNK N   1      25.424  12.748  12.020  0.00  0.00     0.177 HD
ENDBRANCH  28  29
ENDBRANCH  27  28
ENDBRANCH  26  27
ENDBRANCH   5  26
BRANCH   1  38
HETATM   38  C   UNK N   1      19.762  14.641   5.573  0.00  0.00     0.009 C 
HETATM   39  C   UNK N   1      19.771  13.517   4.551  0.00  0.00     0.012 C 
HETATM   40  C   UNK N   1      18.680  15.647   5.227  0.00  0.00     0.012 C 
ENDBRANCH   1  38
BRANCH  17  41
HETATM   41  C   UNK N   1      20.466  17.246   3.278  0.00  0.00     0.073 C 
BRANCH  41  42
HETATM   42  C   UNK N   1      21.071  16.134   2.465  0.00  0.00    -0.056 A 
HETATM   43  C   UNK N   1      22.313  15.596   2.824  0.00  0.00     0.007 A 
HETATM   44  C   UNK N   1      22.843  14.513   2.113  0.00  0.00     0.001 A 
HETATM   45  C   UNK N   1      22.130  13.959   1.045  0.00  0.00     0.000 A 
HETATM   46  C   UNK N   1      20.892  14.493   0.680  0.00  0.00     0.001 A 
HETATM   47  C   UNK N   1      20.363  15.577   1.388  0.00  0.00     0.007 A 
ENDBRANCH  41  42
ENDBRANCH  17  41
BRANCH  13  48
HETATM   48  C   UNK N   1      25.965  19.879   3.534  0.00  0.00     0.144 C 
BRANCH  48  49
HETATM   49  C   UNK N   1      27.000  20.094   4.601  0.00  0.00     0.141 C 
HETATM   50  O   UNK N   1      26.683  20.431   5.731  0.00  0.00    -0.650 OA
BRANCH  49  51
HETATM   51  O   UNK N   1      28.297  19.898   4.304  0.00  0.00    -0.776 OA
HETATM   52  H   UNK N   1      28.913  19.491   4.882  0.00  0.00     0.167 HD
ENDBRANCH  49  51
ENDBRANCH  48  49
ENDBRANCH  13  48
TORSDOF 10
ENDMDL
MODEL 6
REMARK VINA RESULT:      -7.8     15.624     19.021
REMARK  10 active torsions:
REMARK  status: ('A' for Active; 'I' for Inactive)
REMARK    1  A    between atoms: C_4  and  C_2 
REMARK    2  A    between atoms: C_8  and  C_36 
REMARK    3  A    between atoms: C_16  and  C_32 
REMARK    4  A    between atoms: C_20  and  C_25 
REMARK    5  A    between atoms: C_25  and  C_26 
REMARK    6  A    between atoms: C_32  and  C_33 
REMARK    7  A    between atoms: C_33  and  O_35 
REMARK    8  A    between atoms: C_36  and  C_37 
REMARK    9  A    between atoms: C_37  and  C_38 
REMARK   10  A    between atoms: C_38  and  N_39 
REMARK       I    between atoms: N_39  and  C_40 
REMARK       I    between atoms: C_40  and  N_43 
ROOT
HETATM    1  C   UNK N   1      27.060  23.500  -9.102  0.00  0.00     0.182 C 
HETATM    2  C   UNK N   1      27.783  22.211  -9.397  0.00  0.00     0.241 C 
HETATM    3  O   UNK N   1      27.186  21.275  -9.909  0.00  0.00    -0.271 OA
HETATM    4  N   UNK N   1      29.003  22.032  -8.846  0.00  0.00    -0.346 N 
HETATM    5  C   UNK N   1      29.589  20.739  -8.555  0.00  0.00     0.176 C 
HETATM    6  C   UNK N   1      30.911  20.960  -7.905  0.00  0.00     0.240 C 
HETATM    7  O   UNK N   1      31.842  21.434  -8.539  0.00  0.00    -0.271 OA
HETATM    8  N   UNK N   1      31.002  20.785  -6.569  0.00  0.00    -0.351 N 
HETATM    9  C   UNK N   1      32.117  21.281  -5.806  0.00  0.00     0.225 C 
HETATM   10  C   UNK N   1      31.866  22.726  -5.485  0.00  0.00     0.236 C 
HETATM   11  O   UNK N   1      32.753  23.550  -5.653  0.00  0.00    -0.272 OA
HETATM   12  N   UNK N   1      30.659  23.095  -4.988  0.00  0.00    -0.346 N 
HETATM   13  C   UNK N   1      30.345  24.443  -4.579  0.00  0.00     0.186 C 
HETATM   14  C   UNK N   1      28.937  24.796  -5.029  0.00  0.00     0.241 C 
HETATM   15  O   UNK N   1      28.059  24.950  -4.189  0.00  0.00    -0.271 OA
HETATM   16  N   UNK N   1      28.633  24.940  -6.350  0.00  0.00    -0.346 N 
HETATM   17  C   UNK N   1      27.268  25.256  -6.725  0.00  0.00     0.181 C 
HETATM   18  C   UNK N   1      26.348  24.073  -6.807  0.00  0.00     0.243 C 
HETATM   19  O   UNK N   1      25.658  23.832  -5.823  0.00  0.00    -0.271 OA
HETATM   20  N   UNK N   1      26.222  23.296  -7.922  0.00  0.00    -0.341 N 
HETATM   21  C   UNK N   1      25.270  22.205  -7.909  0.00  0.00     0.153 C 
HETATM   22  H   UNK N   1      29.531  22.834  -8.628  0.00  0.00     0.163 HD
HETATM   23  H   UNK N   1      30.282  20.303  -6.102  0.00  0.00     0.163 HD
HETATM   24  H   UNK N   1      29.960  22.407  -4.903  0.00  0.00     0.163 HD
HETATM   25  H   UNK N   1      29.328  24.832  -7.038  0.00  0.00     0.163 HD
ENDROOT
BRANCH   5  26
HETATM   26  C   UNK N   1      29.541  19.705  -9.681  0.00  0.00     0.036 C 
BRANCH  26  27
HETATM   27  C   UNK N   1      30.053  18.340  -9.288  0.00  0.00     0.023 C 
BRANCH  27  28
HETATM   28  C   UNK N   1      30.786  17.741 -10.468  0.00  0.00     0.138 C 
BRANCH  28  29
HETATM   29  N   UNK N   1      31.318  16.466 -10.083  0.00  0.00    -0.227 N 
HETATM   30  C   UNK N   1      32.617  16.350  -9.533  0.00  0.00     0.665 C 
HETATM   31  N   UNK N   1      33.023  15.216  -9.101  0.00  0.00    -0.235 N 
HETATM   32  N   UNK N   1      33.456  17.484  -9.419  0.00  0.00    -0.235 N 
HETATM   33  H   UNK N   1      32.540  14.572  -8.534  0.00  0.00     0.174 HD
ATOM     34  HN  UNK N   1      33.967  14.945  -9.378  1.00  0.00     0.174 HD
HETATM   35  H   UNK N   1      34.135  18.073  -9.019  0.00  0.00     0.174 HD
HETATM   36  H   UNK N   1      33.212  17.990 -10.229  0.00  0.00     0.174 HD
HETATM   37  H   UNK N   1      30.770  15.656 -10.202  0.00  0.00     0.177 HD
ENDBRANCH  28  29
ENDBRANCH  27  28
ENDBRANCH  26  27
ENDBRANCH   5  26
BRANCH   1  38
HETATM   38  C   UNK N   1      26.278  24.116 -10.282  0.00  0.00     0.009 C 
HETATM   39  C   UNK N   1      27.133  24.927 -11.241  0.00  0.00     0.012 C 
HETATM   40  C   UNK N   1      25.097  24.945  -9.813  0.00  0.00     0.012 C 
ENDBRANCH   1  38
BRANCH  17  41
HETATM   41  C   UNK N   1      27.039  26.415  -7.696  0.00  0.00     0.073 C 
BRANCH  41  42
HETATM   42  C   UNK N   1      27.354  27.707  -6.991  0.00  0.00    -0.056 A 
HETATM   43  C   UNK N   1      26.704  28.030  -5.793  0.00  0.00     0.007 A 
HETATM   44  C   UNK N   1      27.048  29.195  -5.098  0.00  0.00     0.001 A 
HETATM   45  C   UNK N   1      28.048  30.038  -5.594  0.00  0.00     0.000 A 
HETATM   46  C   UNK N   1      28.698  29.723  -6.790  0.00  0.00     0.001 A 
HETATM   47  C   UNK N   1      28.353  28.560  -7.487  0.00  0.00     0.007 A 
ENDBRANCH  41  42
ENDBRANCH  17  41
BRANCH  13  48
HETATM   48  C   UNK N   1      30.478  24.464  -3.049  0.00  0.00     0.144 C 
BRANCH  48  49
HETATM   49  C   UNK N   1      30.246  23.153  -2.352  0.00  0.00     0.141 C 
HETATM   50  O   UNK N   1      31.179  22.470  -1.963  0.00  0.00    -0.650 OA
BRANCH  49  51
HETATM   51  O   UNK N   1      28.983  22.738  -2.144  0.00  0.00    -0.776 OA
HETATM   52  H   UNK N   1      28.650  21.907  -2.423  0.00  0.00     0.167 HD
ENDBRANCH  49  51
ENDBRANCH  48  49
ENDBRANCH  13  48
TORSDOF 10
ENDMDL
MODEL 7
REMARK VINA RESULT:      -7.6      5.322      8.631
REMARK  10 active torsions:
REMARK  status: ('A' for Active; 'I' for Inactive)
REMARK    1  A    between atoms: C_4  and  C_2 
REMARK    2  A    between atoms: C_8  and  C_36 
REMARK    3  A    between atoms: C_16  and  C_32 
REMARK    4  A    between atoms: C_20  and  C_25 
REMARK    5  A    between atoms: C_25  and  C_26 
REMARK    6  A    between atoms: C_32  and  C_33 
REMARK    7  A    between atoms: C_33  and  O_35 
REMARK    8  A    between atoms: C_36  and  C_37 
REMARK    9  A    between atoms: C_37  and  C_38 
REMARK   10  A    between atoms: C_38  and  N_39 
REMARK       I    between atoms: N_39  and  C_40 
REMARK       I    between atoms: C_40  and  N_43 
ROOT
HETATM    1  C   UNK N   1      27.437  14.364   3.666  0.00  0.00     0.182 C 
HETATM    2  C   UNK N   1      28.350  15.159   4.565  0.00  0.00     0.241 C 
HETATM    3  O   UNK N   1      29.116  14.584   5.326  0.00  0.00    -0.271 OA
HETATM    4  N   UNK N   1      28.110  16.481   4.699  0.00  0.00    -0.346 N 
HETATM    5  C   UNK N   1      28.479  17.267   5.858  0.00  0.00     0.176 C 
HETATM    6  C   UNK N   1      27.996  18.661   5.652  0.00  0.00     0.240 C 
HETATM    7  O   UNK N   1      28.499  19.371   4.792  0.00  0.00    -0.271 OA
HETATM    8  N   UNK N   1      26.887  19.057   6.312  0.00  0.00    -0.351 N 
HETATM    9  C   UNK N   1      26.156  20.241   5.943  0.00  0.00     0.225 C 
HETATM   10  C   UNK N   1      25.224  19.892   4.820  0.00  0.00     0.236 C 
HETATM   11  O   UNK N   1      25.157  20.616   3.837  0.00  0.00    -0.272 OA
HETATM   12  N   UNK N   1      24.448  18.783   4.922  0.00  0.00    -0.346 N 
HETATM   13  C   UNK N   1      23.469  18.404   3.933  0.00  0.00     0.186 C 
HETATM   14  C   UNK N   1      23.519  16.900   3.720  0.00  0.00     0.241 C 
HETATM   15  O   UNK N   1      22.574  16.210   4.084  0.00  0.00    -0.271 OA
HETATM   16  N   UNK N   1      24.596  16.304   3.134  0.00  0.00    -0.346 N 
HETATM   17  C   UNK N   1      24.600  14.863   2.975  0.00  0.00     0.181 C 
HETATM   18  C   UNK N   1      25.038  14.098   4.189  0.00  0.00     0.243 C 
HETATM   19  O   UNK N   1      24.159  13.668   4.927  0.00  0.00    -0.271 OA
HETATM   20  N   UNK N   1      26.346  13.830   4.477  0.00  0.00    -0.341 N 
HETATM   21  C   UNK N   1      26.655  13.042   5.652  0.00  0.00     0.153 C 
HETATM   22  H   UNK N   1      27.653  16.942   3.959  0.00  0.00     0.163 HD
HETATM   23  H   UNK N   1      26.568  18.518   7.071  0.00  0.00     0.163 HD
HETATM   24  H   UNK N   1      24.560  18.208   5.712  0.00  0.00     0.163 HD
HETATM   25  H   UNK N   1      25.358  16.844   2.825  0.00  0.00     0.163 HD
ENDROOT
BRANCH   5  26
HETATM   26  C   UNK N   1      29.916  17.105   6.358  0.00  0.00     0.036 C 
BRANCH  26  27
HETATM   27  C   UNK N   1      30.089  17.362   7.836  0.00  0.00     0.023 C 
BRANCH  27  28
HETATM   28  C   UNK N   1      31.419  16.787   8.271  0.00  0.00     0.138 C 
BRANCH  28  29
HETATM   29  N   UNK N   1      32.444  17.763   8.033  0.00  0.00    -0.227 N 
HETATM   30  C   UNK N   1      33.698  17.681   8.683  0.00  0.00     0.665 C 
HETATM   31  N   UNK N   1      34.628  18.503   8.370  0.00  0.00    -0.235 N 
HETATM   32  N   UNK N   1      33.947  16.675   9.646  0.00  0.00    -0.235 N 
HETATM   33  H   UNK N   1      34.919  18.779   7.471  0.00  0.00     0.174 HD
ATOM     34  HN  UNK N   1      35.131  18.926   9.151  1.00  0.00     0.174 HD
HETATM   35  H   UNK N   1      34.470  16.007  10.145  0.00  0.00     0.174 HD
HETATM   36  H   UNK N   1      33.065  16.594  10.076  0.00  0.00     0.174 HD
HETATM   37  H   UNK N   1      32.272  18.502   7.405  0.00  0.00     0.177 HD
ENDBRANCH  28  29
ENDBRANCH  27  28
ENDBRANCH  26  27
ENDBRANCH   5  26
BRANCH   1  38
HETATM   38  C   UNK N   1      28.121  13.279   2.807  0.00  0.00     0.009 C 
HETATM   39  C   UNK N   1      28.728  13.798   1.514  0.00  0.00     0.012 C 
HETATM   40  C   UNK N   1      27.193  12.116   2.513  0.00  0.00     0.012 C 
ENDBRANCH   1  38
BRANCH  17  41
HETATM   41  C   UNK N   1      24.948  14.292   1.599  0.00  0.00     0.073 C 
BRANCH  41  42
HETATM   42  C   UNK N   1      23.838  13.376   1.160  0.00  0.00    -0.056 A 
HETATM   43  C   UNK N   1      22.502  13.772   1.303  0.00  0.00     0.007 A 
HETATM   44  C   UNK N   1      21.471  12.953   0.829  0.00  0.00     0.001 A 
HETATM   45  C   UNK N   1      21.771  11.738   0.203  0.00  0.00     0.000 A 
HETATM   46  C   UNK N   1      23.102  11.337   0.060  0.00  0.00     0.001 A 
HETATM   47  C   UNK N   1      24.133  12.153   0.537  0.00  0.00     0.007 A 
ENDBRANCH  41  42
ENDBRANCH  17  41
BRANCH  13  48
HETATM   48  C   UNK N   1      22.110  18.858   4.486  0.00  0.00     0.144 C 
BRANCH  48  49
HETATM   49  C   UNK N   1      21.235  19.622   3.533  0.00  0.00     0.141 C 
HETATM   50  O   UNK N   1      21.316  19.455   2.327  0.00  0.00    -0.650 OA
BRANCH  49  51
HETATM   51  O   UNK N   1      20.339  20.496   4.026  0.00  0.00    -0.776 OA
HETATM   52  H   UNK N   1      20.506  21.411   4.142  0.00  0.00     0.167 HD
ENDBRANCH  49  51
ENDBRANCH  48  49
ENDBRANCH  13  48
TORSDOF 10
ENDMDL
MODEL 8
REMARK VINA RESULT:      -7.6      4.410      8.287
REMARK  10 active torsions:
REMARK  status: ('A' for Active; 'I' for Inactive)
REMARK    1  A    between atoms: C_4  and  C_2 
REMARK    2  A    between atoms: C_8  and  C_36 
REMARK    3  A    between atoms: C_16  and  C_32 
REMARK    4  A    between atoms: C_20  and  C_25 
REMARK    5  A    between atoms: C_25  and  C_26 
REMARK    6  A    between atoms: C_32  and  C_33 
REMARK    7  A    between atoms: C_33  and  O_35 
REMARK    8  A    between atoms: C_36  and  C_37 
REMARK    9  A    between atoms: C_37  and  C_38 
REMARK   10  A    between atoms: C_38  and  N_39 
REMARK       I    between atoms: N_39  and  C_40 
REMARK       I    between atoms: C_40  and  N_43 
ROOT
HETATM    1  C   UNK N   1      25.211  13.471   3.692  0.00  0.00     0.182 C 
HETATM    2  C   UNK N   1      26.381  14.115   4.392  0.00  0.00     0.241 C 
HETATM    3  O   UNK N   1      27.044  13.474   5.195  0.00  0.00    -0.271 OA
HETATM    4  N   UNK N   1      26.502  15.457   4.314  0.00  0.00    -0.346 N 
HETATM    5  C   UNK N   1      27.173  16.278   5.301  0.00  0.00     0.176 C 
HETATM    6  C   UNK N   1      27.046  17.704   4.888  0.00  0.00     0.240 C 
HETATM    7  O   UNK N   1      27.627  18.116   3.894  0.00  0.00    -0.271 OA
HETATM    8  N   UNK N   1      26.145  18.477   5.533  0.00  0.00    -0.351 N 
HETATM    9  C   UNK N   1      25.711  19.746   5.010  0.00  0.00     0.225 C 
HETATM   10  C   UNK N   1      24.615  19.498   4.015  0.00  0.00     0.236 C 
HETATM   11  O   UNK N   1      24.638  20.059   2.930  0.00  0.00    -0.272 OA
HETATM   12  N   UNK N   1      23.594  18.667   4.346  0.00  0.00    -0.346 N 
HETATM   13  C   UNK N   1      22.458  18.422   3.491  0.00  0.00     0.186 C 
HETATM   14  C   UNK N   1      22.099  16.946   3.533  0.00  0.00     0.241 C 
HETATM   15  O   UNK N   1      21.049  16.598   4.061  0.00  0.00    -0.271 OA
HETATM   16  N   UNK N   1      22.924  16.002   2.998  0.00  0.00    -0.346 N 
HETATM   17  C   UNK N   1      22.543  14.606   3.085  0.00  0.00     0.181 C 
HETATM   18  C   UNK N   1      22.887  13.940   4.385  0.00  0.00     0.243 C 
HETATM   19  O   UNK N   1      22.004  13.878   5.232  0.00  0.00    -0.271 OA
HETATM   20  N   UNK N   1      24.104  13.376   4.640  0.00  0.00    -0.341 N 
HETATM   21  C   UNK N   1      24.315  12.718   5.913  0.00  0.00     0.153 C 
HETATM   22  H   UNK N   1      26.108  15.909   3.532  0.00  0.00     0.163 HD
HETATM   23  H   UNK N   1      25.775  18.163   6.388  0.00  0.00     0.163 HD
HETATM   24  H   UNK N   1      23.631  18.206   5.215  0.00  0.00     0.163 HD
HETATM   25  H   UNK N   1      23.765  16.265   2.560  0.00  0.00     0.163 HD
ENDROOT
BRANCH   5  26
HETATM   26  C   UNK N   1      28.562  15.812   5.740  0.00  0.00     0.036 C 
BRANCH  26  27
HETATM   27  C   UNK N   1      29.234  16.726   6.736  0.00  0.00     0.023 C 
BRANCH  27  28
HETATM   28  C   UNK N   1      30.720  16.741   6.449  0.00  0.00     0.138 C 
BRANCH  28  29
HETATM   29  N   UNK N   1      31.381  15.889   7.395  0.00  0.00    -0.227 N 
HETATM   30  C   UNK N   1      31.884  16.401   8.615  0.00  0.00     0.665 C 
HETATM   31  N   UNK N   1      32.374  15.600   9.484  0.00  0.00    -0.235 N 
HETATM   32  N   UNK N   1      31.814  17.785   8.899  0.00  0.00    -0.235 N 
HETATM   33  H   UNK N   1      32.004  14.743   9.799  0.00  0.00     0.174 HD
ATOM     34  HN  UNK N   1      33.258  15.885   9.906  1.00  0.00     0.174 HD
HETATM   35  H   UNK N   1      31.710  18.593   9.451  0.00  0.00     0.174 HD
HETATM   36  H   UNK N   1      31.953  18.176   8.006  0.00  0.00     0.174 HD
HETATM   37  H   UNK N   1      31.487  14.931   7.193  0.00  0.00     0.177 HD
ENDBRANCH  28  29
ENDBRANCH  27  28
ENDBRANCH  26  27
ENDBRANCH   5  26
BRANCH   1  38
HETATM   38  C   UNK N   1      25.506  12.127   2.991  0.00  0.00     0.009 C 
HETATM   39  C   UNK N   1      25.994  12.263   1.559  0.00  0.00     0.012 C 
HETATM   40  C   UNK N   1      24.319  11.183   3.046  0.00  0.00     0.012 C 
ENDBRANCH   1  38
BRANCH  17  41
HETATM   41  C   UNK N   1      22.596  13.765   1.808  0.00  0.00     0.073 C 
BRANCH  41  42
HETATM   42  C   UNK N   1      21.191  13.535   1.322  0.00  0.00    -0.056 A 
HETATM   43  C   UNK N   1      20.334  14.622   1.106  0.00  0.00     0.007 A 
HETATM   44  C   UNK N   1      19.052  14.414   0.585  0.00  0.00     0.001 A 
HETATM   45  C   UNK N   1      18.624  13.121   0.270  0.00  0.00     0.000 A 
HETATM   46  C   UNK N   1      19.472  12.033   0.486  0.00  0.00     0.001 A 
HETATM   47  C   UNK N   1      20.752  12.238   1.009  0.00  0.00     0.007 A 
ENDBRANCH  41  42
ENDBRANCH  17  41
BRANCH  13  48
HETATM   48  C   UNK N   1      21.322  19.302   4.034  0.00  0.00     0.144 C 
BRANCH  48  49
HETATM   49  C   UNK N   1      20.864  20.413   3.133  0.00  0.00     0.141 C 
HETATM   50  O   UNK N   1      19.740  20.419   2.657  0.00  0.00    -0.650 OA
BRANCH  49  51
HETATM   51  O   UNK N   1      21.708  21.425   2.861  0.00  0.00    -0.776 OA
HETATM   52  H   UNK N   1      21.927  21.708   1.995  0.00  0.00     0.167 HD
ENDBRANCH  49  51
ENDBRANCH  48  49
ENDBRANCH  13  48
TORSDOF 10
ENDMDL
MODEL 9
REMARK VINA RESULT:      -7.6      8.902     12.943
REMARK  10 active torsions:
REMARK  status: ('A' for Active; 'I' for Inactive)
REMARK    1  A    between atoms: C_4  and  C_2 
REMARK    2  A    between atoms: C_8  and  C_36 
REMARK    3  A    between atoms: C_16  and  C_32 
REMARK    4  A    between atoms: C_20  and  C_25 
REMARK    5  A    between atoms: C_25  and  C_26 
REMARK    6  A    between atoms: C_32  and  C_33 
REMARK    7  A    between atoms: C_33  and  O_35 
REMARK    8  A    between atoms: C_36  and  C_37 
REMARK    9  A    between atoms: C_37  and  C_38 
REMARK   10  A    between atoms: C_38  and  N_39 
REMARK       I    between atoms: N_39  and  C_40 
REMARK       I    between atoms: C_40  and  N_43 
ROOT
HETATM    1  C   UNK N   1      31.349  16.332   8.288  0.00  0.00     0.182 C 
HETATM    2  C   UNK N   1      32.443  15.418   8.780  0.00  0.00     0.241 C 
HETATM    3  O   UNK N   1      33.396  15.876   9.393  0.00  0.00    -0.271 OA
HETATM    4  N   UNK N   1      32.475  14.156   8.299  0.00  0.00    -0.346 N 
HETATM    5  C   UNK N   1      33.671  13.345   8.206  0.00  0.00     0.176 C 
HETATM    6  C   UNK N   1      33.307  12.044   7.577  0.00  0.00     0.240 C 
HETATM    7  O   UNK N   1      32.599  11.244   8.171  0.00  0.00    -0.271 OA
HETATM    8  N   UNK N   1      33.632  11.850   6.280  0.00  0.00    -0.351 N 
HETATM    9  C   UNK N   1      33.050  10.794   5.494  0.00  0.00     0.225 C 
HETATM   10  C   UNK N   1      31.725  11.267   4.973  0.00  0.00     0.236 C 
HETATM   11  O   UNK N   1      30.743  10.543   5.057  0.00  0.00    -0.272 OA
HETATM   12  N   UNK N   1      31.639  12.490   4.390  0.00  0.00    -0.346 N 
HETATM   13  C   UNK N   1      30.431  13.003   3.792  0.00  0.00     0.186 C 
HETATM   14  C   UNK N   1      30.276  14.474   4.143  0.00  0.00     0.241 C 
HETATM   15  O   UNK N   1      30.387  15.317   3.260  0.00  0.00    -0.271 OA
HETATM   16  N   UNK N   1      30.019  14.873   5.421  0.00  0.00    -0.346 N 
HETATM   17  C   UNK N   1      29.902  16.290   5.704  0.00  0.00     0.181 C 
HETATM   18  C   UNK N   1      31.208  16.999   5.914  0.00  0.00     0.243 C 
HETATM   19  O   UNK N   1      31.690  17.582   4.949  0.00  0.00    -0.271 OA
HETATM   20  N   UNK N   1      31.846  17.055   7.120  0.00  0.00    -0.341 N 
HETATM   21  C   UNK N   1      33.080  17.806   7.222  0.00  0.00     0.153 C 
HETATM   22  H   UNK N   1      31.627  13.761   7.992  0.00  0.00     0.163 HD
HETATM   23  H   UNK N   1      34.288  12.450   5.859  0.00  0.00     0.163 HD
HETATM   24  H   UNK N   1      32.444  13.056   4.375  0.00  0.00     0.163 HD
HETATM   25  H   UNK N   1      29.915  14.209   6.140  0.00  0.00     0.163 HD
ENDROOT
BRANCH   5  26
HETATM   26  C   UNK N   1      34.545  13.280   9.459  0.00  0.00     0.036 C 
BRANCH  26  27
HETATM   27  C   UNK N   1      36.028  13.248   9.177  0.00  0.00     0.023 C 
BRANCH  27  28
HETATM   28  C   UNK N   1      36.632  14.560   9.628  0.00  0.00     0.138 C 
BRANCH  28  29
HETATM   29  N   UNK N   1      36.906  14.482  11.035  0.00  0.00    -0.227 N 
HETATM   30  C   UNK N   1      36.170  15.252  11.968  0.00  0.00     0.665 C 
HETATM   31  N   UNK N   1      36.364  15.083  13.221  0.00  0.00    -0.235 N 
HETATM   32  N   UNK N   1      35.193  16.177  11.528  0.00  0.00    -0.235 N 
HETATM   33  H   UNK N   1      36.435  14.235  13.717  0.00  0.00     0.174 HD
ATOM     34  HN  UNK N   1      36.456  15.934  13.777  1.00  0.00     0.174 HD
HETATM   35  H   UNK N   1      34.352  16.687  11.553  0.00  0.00     0.174 HD
HETATM   36  H   UNK N   1      35.600  16.509  10.695  0.00  0.00     0.174 HD
HETATM   37  H   UNK N   1      37.617  13.883  11.358  0.00  0.00     0.177 HD
ENDBRANCH  28  29
ENDBRANCH  27  28
ENDBRANCH  26  27
ENDBRANCH   5  26
BRANCH   1  38
HETATM   38  C   UNK N   1      30.734  17.272   9.347  0.00  0.00     0.009 C 
HETATM   39  C   UNK N   1      29.389  16.812   9.883  0.00  0.00     0.012 C 
HETATM   40  C   UNK N   1      30.633  18.701   8.851  0.00  0.00     0.012 C 
ENDBRANCH   1  38
BRANCH  17  41
HETATM   41  C   UNK N   1      28.687  16.766   6.500  0.00  0.00     0.073 C 
BRANCH  41  42
HETATM   42  C   UNK N   1      28.226  18.084   5.939  0.00  0.00    -0.056 A 
HETATM   43  C   UNK N   1      28.047  18.235   4.558  0.00  0.00     0.007 A 
HETATM   44  C   UNK N   1      27.548  19.437   4.041  0.00  0.00     0.001 A 
HETATM   45  C   UNK N   1      27.220  20.489   4.902  0.00  0.00     0.000 A 
HETATM   46  C   UNK N   1      27.400  20.345   6.280  0.00  0.00     0.001 A 
HETATM   47  C   UNK N   1      27.901  19.146   6.798  0.00  0.00     0.007 A 
ENDBRANCH  41  42
ENDBRANCH  17  41
BRANCH  13  48
HETATM   48  C   UNK N   1      30.583  12.790   2.278  0.00  0.00     0.144 C 
BRANCH  48  49
HETATM   49  C   UNK N   1      29.560  11.898   1.635  0.00  0.00     0.141 C 
HETATM   50  O   UNK N   1      28.846  11.168   2.304  0.00  0.00    -0.650 OA
BRANCH  49  51
HETATM   51  O   UNK N   1      29.423  11.919   0.297  0.00  0.00    -0.776 OA
HETATM   52  H   UNK N   1      29.132  11.188  -0.214  0.00  0.00     0.167 HD
ENDBRANCH  49  51
ENDBRANCH  48  49
ENDBRANCH  13  48
TORSDOF 10
ENDMDL
