MODEL 1
REMARK VINA RESULT:      -8.4      0.000      0.000
REMARK  16 active torsions:
REMARK  status: ('A' for Active; 'I' for Inactive)
REMARK    1  A    between atoms: C_2  and  C_4 
REMARK    2  A    between atoms: C_2  and  N_29 
REMARK    3  A    between atoms: C_4  and  C_5 
REMARK    4  A    between atoms: C_9  and  C_11 
REMARK    5  A    between atoms: C_11  and  C_12 
REMARK       I    between atoms: C_12  and  N_14 
REMARK    6  A    between atoms: N_14  and  C_15 
REMARK    7  A    between atoms: C_15  and  C_16 
REMARK    8  A    between atoms: C_20  and  C_22 
REMARK    9  A    between atoms: C_25  and  O_28 
REMARK   10  A    between atoms: N_29  and  C_30 
REMARK   11  A    between atoms: C_30  and  C_31 
REMARK   12  A    between atoms: C_31  and  C_32 
REMARK   13  A    between atoms: C_31  and  O_44 
REMARK   14  A    between atoms: C_35  and  O_43 
REMARK   15  A    between atoms: C_36  and  N_38 
REMARK   16  A    between atoms: N_38  and  S_39 
ROOT
HETATM    1  C   UNK N   1      24.036  18.417   4.457  0.00  0.00    -0.055 A 
HETATM    2  C   UNK N   1      25.276  18.943   4.057  0.00  0.00     0.007 A 
HETATM    3  C   UNK N   1      25.328  20.034   3.184  0.00  0.00     0.001 A 
HETATM    4  C   UNK N   1      24.140  20.600   2.715  0.00  0.00     0.007 A 
HETATM    5  C   UNK N   1      22.906  20.062   3.111  0.00  0.00    -0.049 A 
HETATM    6  C   UNK N   1      22.861  18.977   3.976  0.00  0.00     0.014 A 
ENDROOT
BRANCH   1   7
HETATM    7  C   UNK N   1      23.961  17.154   5.262  0.00  0.00     0.068 C 
BRANCH   7   8
HETATM    8  C   UNK N   1      24.733  16.044   4.542  0.00  0.00     0.022 C 
HETATM    9  C   UNK N   1      24.281  15.962   3.087  0.00  0.00     0.038 C 
HETATM   10  C   UNK N   1      24.439  14.721   5.226  0.00  0.00     0.038 C 
BRANCH   8  11
HETATM   11  N   UNK N   1      26.151  16.382   4.666  0.00  0.00    -0.410 N 
HETATM   12  H   UNK N   1      26.577  17.108   4.091  0.00  0.00     0.154 HD
BRANCH  11  13
HETATM   13  C   UNK N   1      26.926  15.639   5.642  0.00  0.00     0.151 C 
BRANCH  13  14
HETATM   14  C   UNK N   1      28.384  15.973   5.374  0.00  0.00     0.168 C 
BRANCH  14  15
HETATM   15  C   UNK N   1      28.887  16.793   6.529  0.00  0.00    -0.026 A 
HETATM   16  C   UNK N   1      27.977  17.354   7.434  0.00  0.00     0.012 A 
HETATM   17  C   UNK N   1      28.424  17.988   8.586  0.00  0.00     0.039 A 
HETATM   18  C   UNK N   1      29.789  18.094   8.840  0.00  0.00     0.092 A 
HETATM   19  C   UNK N   1      30.722  17.587   7.900  0.00  0.00     0.076 A 
HETATM   20  C   UNK N   1      30.254  16.931   6.762  0.00  0.00     0.043 A 
BRANCH  18  21
HETATM   21  O   UNK N   1      30.178  18.677   9.983  0.00  0.00    -0.358 OA
HETATM   22  H   UNK N   1      30.935  18.365  10.439  0.00  0.00     0.217 HD
ENDBRANCH  18  21
BRANCH  19  23
HETATM   23  N   UNK N   1      32.132  17.713   8.041  0.00  0.00    -0.282 N 
HETATM   24  H   UNK N   1      32.456  18.326   8.740  0.00  0.00     0.178 HD
BRANCH  23  25
HETATM   25  S   UNK N   1      33.354  16.881   7.090  0.00  0.00     0.227 S 
HETATM   26  O   UNK N   1      34.461  16.402   8.040  0.00  0.00    -0.206 OA
HETATM   27  O   UNK N   1      34.027  17.957   6.227  0.00  0.00    -0.206 OA
HETATM   28  C   UNK N   1      34.047  18.214   8.115  0.00  0.00     0.186 C 
ENDBRANCH  23  25
ENDBRANCH  19  23
ENDBRANCH  14  15
BRANCH  14  29
HETATM   29  O   UNK N   1      29.110  14.791   5.216  0.00  0.00    -0.389 OA
HETATM   30  H   UNK N   1      29.534  14.355   5.971  0.00  0.00     0.210 HD
ENDBRANCH  14  29
ENDBRANCH  13  14
ENDBRANCH  11  13
ENDBRANCH   8  11
ENDBRANCH   7   8
ENDBRANCH   1   7
BRANCH   5  31
HETATM   31  C   UNK N   1      21.623  20.679   2.704  0.00  0.00     0.141 C 
BRANCH  31  32
HETATM   32  C   UNK N   1      21.077  20.204   1.394  0.00  0.00     0.222 C 
HETATM   33  O   UNK N   1      21.499  20.675   0.356  0.00  0.00    -0.273 OA
HETATM   34  N   UNK N   1      20.136  19.224   1.363  0.00  0.00    -0.357 N 
HETATM   35  H   UNK N   1      19.849  18.875   0.488  0.00  0.00     0.162 HD
BRANCH  34  36
HETATM   36  C   UNK N   1      19.533  18.669   2.560  0.00  0.00     0.161 C 
BRANCH  36  37
HETATM   37  C   UNK N   1      20.039  17.297   2.898  0.00  0.00    -0.040 A 
HETATM   38  C   UNK N   1      20.312  16.379   1.880  0.00  0.00     0.009 A 
HETATM   39  C   UNK N   1      20.721  15.081   2.201  0.00  0.00     0.001 A 
HETATM   40  C   UNK N   1      20.862  14.699   3.539  0.00  0.00     0.012 A 
HETATM   41  C   UNK N   1      20.594  15.611   4.572  0.00  0.00    -0.025 A 
HETATM   42  C   UNK N   1      20.168  16.905   4.237  0.00  0.00     0.021 A 
BRANCH  41  43
HETATM   43  C   UNK N   1      20.766  15.217   5.995  0.00  0.00    -0.026 A 
HETATM   44  C   UNK N   1      20.715  16.184   7.012  0.00  0.00     0.015 A 
HETATM   45  C   UNK N   1      20.872  15.813   8.352  0.00  0.00     0.037 A 
HETATM   46  C   UNK N   1      21.072  14.473   8.689  0.00  0.00     0.065 A 
HETATM   47  C   UNK N   1      21.120  13.502   7.686  0.00  0.00     0.037 A 
HETATM   48  C   UNK N   1      20.970  13.871   6.345  0.00  0.00     0.015 A 
BRANCH  46  49
HETATM   49  O   UNK N   1      21.220  14.120   9.976  0.00  0.00    -0.361 OA
HETATM   50  H   UNK N   1      21.841  14.566  10.516  0.00  0.00     0.217 HD
ENDBRANCH  46  49
ENDBRANCH  41  43
ENDBRANCH  36  37
ENDBRANCH  34  36
ENDBRANCH  31  32
ENDBRANCH   5  31
TORSDOF 16
ENDMDL
MODEL 2
REMARK VINA RESULT:      -8.4     12.582     15.622
REMARK  16 active torsions:
REMARK  status: ('A' for Active; 'I' for Inactive)
REMARK    1  A    between atoms: C_2  and  C_4 
REMARK    2  A    between atoms: C_2  and  N_29 
REMARK    3  A    between atoms: C_4  and  C_5 
REMARK    4  A    between atoms: C_9  and  C_11 
REMARK    5  A    between atoms: C_11  and  C_12 
REMARK       I    between atoms: C_12  and  N_14 
REMARK    6  A    between atoms: N_14  and  C_15 
REMARK    7  A    between atoms: C_15  and  C_16 
REMARK    8  A    between atoms: C_20  and  C_22 
REMARK    9  A    between atoms: C_25  and  O_28 
REMARK   10  A    between atoms: N_29  and  C_30 
REMARK   11  A    between atoms: C_30  and  C_31 
REMARK   12  A    between atoms: C_31  and  C_32 
REMARK   13  A    between atoms: C_31  and  O_44 
REMARK   14  A    between atoms: C_35  and  O_43 
REMARK   15  A    between atoms: C_36  and  N_38 
REMARK   16  A    between atoms: N_38  and  S_39 
ROOT
HETATM    1  C   UNK N   1      26.016  26.607  -5.377  0.00  0.00    -0.055 A 
HETATM    2  C   UNK N   1      26.110  25.683  -4.322  0.00  0.00     0.007 A 
HETATM    3  C   UNK N   1      26.144  24.312  -4.591  0.00  0.00     0.001 A 
HETATM    4  C   UNK N   1      26.089  23.866  -5.914  0.00  0.00     0.007 A 
HETATM    5  C   UNK N   1      25.984  24.795  -6.960  0.00  0.00    -0.049 A 
HETATM    6  C   UNK N   1      25.948  26.156  -6.687  0.00  0.00     0.014 A 
ENDROOT
BRANCH   1   7
HETATM    7  C   UNK N   1      25.818  28.068  -5.102  0.00  0.00     0.068 C 
BRANCH   7   8
HETATM    8  C   UNK N   1      27.180  28.768  -5.052  0.00  0.00     0.022 C 
HETATM    9  C   UNK N   1      27.003  30.204  -4.566  0.00  0.00     0.038 C 
HETATM   10  C   UNK N   1      27.771  28.789  -6.449  0.00  0.00     0.038 C 
BRANCH   8  11
HETATM   11  N   UNK N   1      28.017  27.975  -4.151  0.00  0.00    -0.410 N 
HETATM   12  H   UNK N   1      27.624  27.503  -3.338  0.00  0.00     0.154 HD
BRANCH  11  13
HETATM   13  C   UNK N   1      29.431  27.891  -4.465  0.00  0.00     0.151 C 
BRANCH  13  14
HETATM   14  C   UNK N   1      29.873  26.491  -4.073  0.00  0.00     0.168 C 
BRANCH  14  15
HETATM   15  C   UNK N   1      30.460  25.837  -5.292  0.00  0.00    -0.026 A 
HETATM   16  C   UNK N   1      31.697  25.183  -5.204  0.00  0.00     0.012 A 
HETATM   17  C   UNK N   1      32.186  24.448  -6.276  0.00  0.00     0.039 A 
HETATM   18  C   UNK N   1      31.460  24.373  -7.462  0.00  0.00     0.092 A 
HETATM   19  C   UNK N   1      30.238  25.082  -7.585  0.00  0.00     0.076 A 
HETATM   20  C   UNK N   1      29.750  25.794  -6.490  0.00  0.00     0.043 A 
BRANCH  18  21
HETATM   21  O   UNK N   1      31.948  23.619  -8.458  0.00  0.00    -0.358 OA
HETATM   22  H   UNK N   1      32.855  23.669  -8.687  0.00  0.00     0.217 HD
ENDBRANCH  18  21
BRANCH  19  23
HETATM   23  N   UNK N   1      29.465  25.121  -8.780  0.00  0.00    -0.282 N 
HETATM   24  H   UNK N   1      29.219  24.255  -9.179  0.00  0.00     0.178 HD
BRANCH  23  25
HETATM   25  S   UNK N   1      28.907  26.565  -9.613  0.00  0.00     0.227 S 
HETATM   26  O   UNK N   1      28.247  26.136 -10.931  0.00  0.00    -0.206 OA
HETATM   27  O   UNK N   1      30.170  27.322 -10.044  0.00  0.00    -0.206 OA
HETATM   28  C   UNK N   1      29.982  25.525 -10.648  0.00  0.00     0.186 C 
ENDBRANCH  23  25
ENDBRANCH  19  23
ENDBRANCH  14  15
BRANCH  14  29
HETATM   29  O   UNK N   1      30.793  26.570  -3.026  0.00  0.00    -0.389 OA
HETATM   30  H   UNK N   1      31.113  27.424  -2.700  0.00  0.00     0.210 HD
ENDBRANCH  14  29
ENDBRANCH  13  14
ENDBRANCH  11  13
ENDBRANCH   8  11
ENDBRANCH   7   8
ENDBRANCH   1   7
BRANCH   5  31
HETATM   31  C   UNK N   1      26.003  24.373  -8.379  0.00  0.00     0.141 C 
BRANCH  31  32
HETATM   32  C   UNK N   1      25.411  23.026  -8.650  0.00  0.00     0.222 C 
HETATM   33  O   UNK N   1      24.267  22.789  -8.318  0.00  0.00    -0.273 OA
HETATM   34  N   UNK N   1      26.141  22.079  -9.297  0.00  0.00    -0.357 N 
HETATM   35  H   UNK N   1      25.705  21.228  -9.532  0.00  0.00     0.162 HD
BRANCH  34  36
HETATM   36  C   UNK N   1      27.534  22.263  -9.656  0.00  0.00     0.161 C 
BRANCH  36  37
HETATM   37  C   UNK N   1      28.479  21.485  -8.787  0.00  0.00    -0.040 A 
HETATM   38  C   UNK N   1      29.050  20.299  -9.256  0.00  0.00     0.009 A 
HETATM   39  C   UNK N   1      29.879  19.545  -8.421  0.00  0.00     0.001 A 
HETATM   40  C   UNK N   1      30.142  19.975  -7.116  0.00  0.00     0.012 A 
HETATM   41  C   UNK N   1      29.577  21.165  -6.632  0.00  0.00    -0.025 A 
HETATM   42  C   UNK N   1      28.734  21.905  -7.475  0.00  0.00     0.021 A 
BRANCH  41  43
HETATM   43  C   UNK N   1      29.874  21.639  -5.255  0.00  0.00    -0.026 A 
HETATM   44  C   UNK N   1      29.066  22.614  -4.648  0.00  0.00     0.015 A 
HETATM   45  C   UNK N   1      29.341  23.057  -3.350  0.00  0.00     0.037 A 
HETATM   46  C   UNK N   1      30.420  22.524  -2.642  0.00  0.00     0.065 A 
HETATM   47  C   UNK N   1      31.228  21.549  -3.233  0.00  0.00     0.037 A 
HETATM   48  C   UNK N   1      30.959  21.110  -4.534  0.00  0.00     0.015 A 
BRANCH  46  49
HETATM   49  O   UNK N   1      30.680  22.948  -1.395  0.00  0.00    -0.361 OA
HETATM   50  H   UNK N   1      30.086  22.749  -0.699  0.00  0.00     0.217 HD
ENDBRANCH  46  49
ENDBRANCH  41  43
ENDBRANCH  36  37
ENDBRANCH  34  36
ENDBRANCH  31  32
ENDBRANCH   5  31
TORSDOF 16
ENDMDL
MODEL 3
REMARK VINA RESULT:      -8.4      2.404      3.967
REMARK  16 active torsions:
REMARK  status: ('A' for Active; 'I' for Inactive)
REMARK    1  A    between atoms: C_2  and  C_4 
REMARK    2  A    between atoms: C_2  and  N_29 
REMARK    3  A    between atoms: C_4  and  C_5 
REMARK    4  A    between atoms: C_9  and  C_11 
REMARK    5  A    between atoms: C_11  and  C_12 
REMARK       I    between atoms: C_12  and  N_14 
REMARK    6  A    between atoms: N_14  and  C_15 
REMARK    7  A    between atoms: C_15  and  C_16 
REMARK    8  A    between atoms: C_20  and  C_22 
REMARK    9  A    between atoms: C_25  and  O_28 
REMARK   10  A    between atoms: N_29  and  C_30 
REMARK   11  A    between atoms: C_30  and  C_31 
REMARK   12  A    between atoms: C_31  and  C_32 
REMARK   13  A    between atoms: C_31  and  O_44 
REMARK   14  A    between atoms: C_35  and  O_43 
REMARK   15  A    between atoms: C_36  and  N_38 
REMARK   16  A    between atoms: N_38  and  S_39 
ROOT
HETATM    1  C   UNK N   1      24.772  19.130   3.836  0.00  0.00    -0.055 A 
HETATM    2  C   UNK N   1      24.717  20.295   3.052  0.00  0.00     0.007 A 
HETATM    3  C   UNK N   1      23.482  20.816   2.655  0.00  0.00     0.001 A 
HETATM    4  C   UNK N   1      22.303  20.174   3.045  0.00  0.00     0.007 A 
HETATM    5  C   UNK N   1      22.369  19.005   3.818  0.00  0.00    -0.049 A 
HETATM    6  C   UNK N   1      23.598  18.491   4.208  0.00  0.00     0.014 A 
ENDROOT
BRANCH   1   7
HETATM    7  C   UNK N   1      26.084  18.468   4.137  0.00  0.00     0.068 C 
BRANCH   7   8
HETATM    8  C   UNK N   1      26.829  19.274   5.206  0.00  0.00     0.022 C 
HETATM    9  C   UNK N   1      25.930  20.390   5.729  0.00  0.00     0.038 C 
HETATM   10  C   UNK N   1      28.068  19.889   4.581  0.00  0.00     0.038 C 
BRANCH   8  11
HETATM   11  N   UNK N   1      27.201  18.322   6.254  0.00  0.00    -0.410 N 
HETATM   12  H   UNK N   1      26.599  18.157   7.060  0.00  0.00     0.154 HD
BRANCH  11  13
HETATM   13  C   UNK N   1      28.463  17.624   6.096  0.00  0.00     0.151 C 
BRANCH  13  14
HETATM   14  C   UNK N   1      29.070  17.520   7.486  0.00  0.00     0.168 C 
BRANCH  14  15
HETATM   15  C   UNK N   1      30.538  17.241   7.326  0.00  0.00    -0.026 A 
HETATM   16  C   UNK N   1      31.111  17.235   6.047  0.00  0.00     0.012 A 
HETATM   17  C   UNK N   1      32.486  17.128   5.889  0.00  0.00     0.039 A 
HETATM   18  C   UNK N   1      33.310  16.999   7.004  0.00  0.00     0.092 A 
HETATM   19  C   UNK N   1      32.738  16.941   8.301  0.00  0.00     0.076 A 
HETATM   20  C   UNK N   1      31.357  17.076   8.441  0.00  0.00     0.043 A 
BRANCH  18  21
HETATM   21  O   UNK N   1      34.636  16.940   6.810  0.00  0.00    -0.358 OA
HETATM   22  H   UNK N   1      34.981  16.759   5.958  0.00  0.00     0.217 HD
ENDBRANCH  18  21
BRANCH  19  23
HETATM   23  N   UNK N   1      33.494  16.740   9.489  0.00  0.00    -0.282 N 
HETATM   24  H   UNK N   1      33.562  17.504  10.107  0.00  0.00     0.178 HD
BRANCH  23  25
HETATM   25  S   UNK N   1      34.317  15.262   9.964  0.00  0.00     0.227 S 
HETATM   26  O   UNK N   1      34.691  15.373  11.449  0.00  0.00    -0.206 OA
HETATM   27  O   UNK N   1      35.664  15.270   9.228  0.00  0.00    -0.206 OA
HETATM   28  C   UNK N   1      35.276  16.757  10.353  0.00  0.00     0.186 C 
ENDBRANCH  23  25
ENDBRANCH  19  23
ENDBRANCH  14  15
BRANCH  14  29
HETATM   29  O   UNK N   1      28.835  18.705   8.185  0.00  0.00    -0.389 OA
HETATM   30  H   UNK N   1      29.136  19.561   7.843  0.00  0.00     0.210 HD
ENDBRANCH  14  29
ENDBRANCH  13  14
ENDBRANCH  11  13
ENDBRANCH   8  11
ENDBRANCH   7   8
ENDBRANCH   1   7
BRANCH   5  31
HETATM   31  C   UNK N   1      21.147  18.338   4.322  0.00  0.00     0.141 C 
BRANCH  31  32
HETATM   32  C   UNK N   1      20.824  17.029   3.672  0.00  0.00     0.222 C 
HETATM   33  O   UNK N   1      20.707  16.965   2.464  0.00  0.00    -0.273 OA
HETATM   34  N   UNK N   1      20.695  15.907   4.428  0.00  0.00    -0.357 N 
HETATM   35  H   UNK N   1      20.559  15.045   3.971  0.00  0.00     0.162 HD
BRANCH  34  36
HETATM   36  C   UNK N   1      20.748  15.919   5.877  0.00  0.00     0.161 C 
BRANCH  36  37
HETATM   37  C   UNK N   1      21.968  15.245   6.433  0.00  0.00    -0.040 A 
HETATM   38  C   UNK N   1      23.162  15.244   5.707  0.00  0.00     0.009 A 
HETATM   39  C   UNK N   1      24.278  14.561   6.198  0.00  0.00     0.001 A 
HETATM   40  C   UNK N   1      24.205  13.878   7.417  0.00  0.00     0.012 A 
HETATM   41  C   UNK N   1      23.013  13.871   8.158  0.00  0.00    -0.025 A 
HETATM   42  C   UNK N   1      21.895  14.548   7.646  0.00  0.00     0.021 A 
BRANCH  41  43
HETATM   43  C   UNK N   1      22.937  13.169   9.466  0.00  0.00    -0.026 A 
HETATM   44  C   UNK N   1      24.104  12.700  10.091  0.00  0.00     0.015 A 
HETATM   45  C   UNK N   1      24.035  12.044  11.324  0.00  0.00     0.037 A 
HETATM   46  C   UNK N   1      22.800  11.856  11.948  0.00  0.00     0.065 A 
HETATM   47  C   UNK N   1      21.632  12.322  11.339  0.00  0.00     0.037 A 
HETATM   48  C   UNK N   1      21.699  12.973  10.103  0.00  0.00     0.015 A 
BRANCH  46  49
HETATM   49  O   UNK N   1      22.736  11.228  13.133  0.00  0.00    -0.361 OA
HETATM   50  H   UNK N   1      22.392  11.675  13.882  0.00  0.00     0.217 HD
ENDBRANCH  46  49
ENDBRANCH  41  43
ENDBRANCH  36  37
ENDBRANCH  34  36
ENDBRANCH  31  32
ENDBRANCH   5  31
TORSDOF 16
ENDMDL
MODEL 4
REMARK VINA RESULT:      -8.3      7.780     13.368
REMARK  16 active torsions:
REMARK  status: ('A' for Active; 'I' for Inactive)
REMARK    1  A    between atoms: C_2  and  C_4 
REMARK    2  A    between atoms: C_2  and  N_29 
REMARK    3  A    between atoms: C_4  and  C_5 
REMARK    4  A    between atoms: C_9  and  C_11 
REMARK    5  A    between atoms: C_11  and  C_12 
REMARK       I    between atoms: C_12  and  N_14 
REMARK    6  A    between atoms: N_14  and  C_15 
REMARK    7  A    between atoms: C_15  and  C_16 
REMARK    8  A    between atoms: C_20  and  C_22 
REMARK    9  A    between atoms: C_25  and  O_28 
REMARK   10  A    between atoms: N_29  and  C_30 
REMARK   11  A    between atoms: C_30  and  C_31 
REMARK   12  A    between atoms: C_31  and  C_32 
REMARK   13  A    between atoms: C_31  and  O_44 
REMARK   14  A    between atoms: C_35  and  O_43 
REMARK   15  A    between atoms: C_36  and  N_38 
REMARK   16  A    between atoms: N_38  and  S_39 
ROOT
HETATM    1  C   UNK N   1      35.168  13.728   5.928  0.00  0.00    -0.055 A 
HETATM    2  C   UNK N   1      35.989  12.619   6.197  0.00  0.00     0.007 A 
HETATM    3  C   UNK N   1      36.598  12.485   7.448  0.00  0.00     0.001 A 
HETATM    4  C   UNK N   1      36.383  13.455   8.430  0.00  0.00     0.007 A 
HETATM    5  C   UNK N   1      35.570  14.564   8.148  0.00  0.00    -0.049 A 
HETATM    6  C   UNK N   1      34.970  14.694   6.903  0.00  0.00     0.014 A 
ENDROOT
BRANCH   1   7
HETATM    7  C   UNK N   1      34.637  13.972   4.546  0.00  0.00     0.068 C 
BRANCH   7   8
HETATM    8  C   UNK N   1      33.273  13.290   4.395  0.00  0.00     0.022 C 
HETATM    9  C   UNK N   1      32.649  13.077   5.771  0.00  0.00     0.038 C 
HETATM   10  C   UNK N   1      33.472  11.940   3.729  0.00  0.00     0.038 C 
BRANCH   8  11
HETATM   11  N   UNK N   1      32.466  14.167   3.548  0.00  0.00    -0.410 N 
HETATM   12  H   UNK N   1      31.586  13.850   3.140  0.00  0.00     0.154 HD
BRANCH  11  13
HETATM   13  C   UNK N   1      32.969  15.507   3.312  0.00  0.00     0.151 C 
BRANCH  13  14
HETATM   14  C   UNK N   1      31.850  16.458   3.700  0.00  0.00     0.168 C 
BRANCH  14  15
HETATM   15  C   UNK N   1      32.022  16.802   5.153  0.00  0.00    -0.026 A 
HETATM   16  C   UNK N   1      33.247  17.307   5.608  0.00  0.00     0.012 A 
HETATM   17  C   UNK N   1      33.382  17.769   6.911  0.00  0.00     0.039 A 
HETATM   18  C   UNK N   1      32.301  17.712   7.788  0.00  0.00     0.092 A 
HETATM   19  C   UNK N   1      31.074  17.145   7.358  0.00  0.00     0.076 A 
HETATM   20  C   UNK N   1      30.951  16.710   6.039  0.00  0.00     0.043 A 
BRANCH  18  21
HETATM   21  O   UNK N   1      32.461  18.206   9.024  0.00  0.00    -0.358 OA
HETATM   22  H   UNK N   1      33.138  17.876   9.581  0.00  0.00     0.217 HD
ENDBRANCH  18  21
BRANCH  19  23
HETATM   23  N   UNK N   1      29.942  16.980   8.203  0.00  0.00    -0.282 N 
HETATM   24  H   UNK N   1      29.699  16.057   8.447  0.00  0.00     0.178 HD
BRANCH  23  25
HETATM   25  S   UNK N   1      28.933  18.263   8.856  0.00  0.00     0.227 S 
HETATM   26  O   UNK N   1      29.623  18.831  10.105  0.00  0.00    -0.206 OA
HETATM   27  O   UNK N   1      27.670  17.578   9.395  0.00  0.00    -0.206 OA
HETATM   28  C   UNK N   1      29.343  16.992  10.091  0.00  0.00     0.186 C 
ENDBRANCH  23  25
ENDBRANCH  19  23
ENDBRANCH  14  15
BRANCH  14  29
HETATM   29  O   UNK N   1      31.898  17.590   2.884  0.00  0.00    -0.389 OA
HETATM   30  H   UNK N   1      31.519  18.435   3.172  0.00  0.00     0.210 HD
ENDBRANCH  14  29
ENDBRANCH  13  14
ENDBRANCH  11  13
ENDBRANCH   8  11
ENDBRANCH   7   8
ENDBRANCH   1   7
BRANCH   5  31
HETATM   31  C   UNK N   1      35.249  15.574   9.182  0.00  0.00     0.141 C 
BRANCH  31  32
HETATM   32  C   UNK N   1      34.131  15.205  10.106  0.00  0.00     0.222 C 
HETATM   33  O   UNK N   1      33.004  15.077   9.671  0.00  0.00    -0.273 OA
HETATM   34  N   UNK N   1      34.383  14.979  11.422  0.00  0.00    -0.357 N 
HETATM   35  H   UNK N   1      33.647  14.662  11.994  0.00  0.00     0.162 HD
BRANCH  34  36
HETATM   36  C   UNK N   1      35.686  15.185  12.025  0.00  0.00     0.161 C 
BRANCH  36  37
HETATM   37  C   UNK N   1      36.175  13.997  12.802  0.00  0.00    -0.040 A 
HETATM   38  C   UNK N   1      36.928  13.005  12.169  0.00  0.00     0.009 A 
HETATM   39  C   UNK N   1      37.327  11.870  12.880  0.00  0.00     0.001 A 
HETATM   40  C   UNK N   1      36.976  11.724  14.226  0.00  0.00     0.012 A 
HETATM   41  C   UNK N   1      36.220  12.712  14.876  0.00  0.00    -0.025 A 
HETATM   42  C   UNK N   1      35.813  13.839  14.146  0.00  0.00     0.021 A 
BRANCH  41  43
HETATM   43  C   UNK N   1      35.866  12.574  16.312  0.00  0.00    -0.026 A 
HETATM   44  C   UNK N   1      35.876  11.312  16.930  0.00  0.00     0.015 A 
HETATM   45  C   UNK N   1      35.548  11.181  18.283  0.00  0.00     0.037 A 
HETATM   46  C   UNK N   1      35.214  12.309  19.035  0.00  0.00     0.065 A 
HETATM   47  C   UNK N   1      35.206  13.570  18.434  0.00  0.00     0.037 A 
HETATM   48  C   UNK N   1      35.527  13.703  17.079  0.00  0.00     0.015 A 
BRANCH  46  49
HETATM   49  O   UNK N   1      34.903  12.182  20.335  0.00  0.00    -0.361 OA
HETATM   50  H   UNK N   1      34.488  12.888  20.789  0.00  0.00     0.217 HD
ENDBRANCH  46  49
ENDBRANCH  41  43
ENDBRANCH  36  37
ENDBRANCH  34  36
ENDBRANCH  31  32
ENDBRANCH   5  31
TORSDOF 16
ENDMDL
MODEL 5
REMARK VINA RESULT:      -8.2      2.124      3.785
REMARK  16 active torsions:
REMARK  status: ('A' for Active; 'I' for Inactive)
REMARK    1  A    between atoms: C_2  and  C_4 
REMARK    2  A    between atoms: C_2  and  N_29 
REMARK    3  A    between atoms: C_4  and  C_5 
REMARK    4  A    between atoms: C_9  and  C_11 
REMARK    5  A    between atoms: C_11  and  C_12 
REMARK       I    between atoms: C_12  and  N_14 
REMARK    6  A    between atoms: N_14  and  C_15 
REMARK    7  A    between atoms: C_15  and  C_16 
REMARK    8  A    between atoms: C_20  and  C_22 
REMARK    9  A    between atoms: C_25  and  O_28 
REMARK   10  A    between atoms: N_29  and  C_30 
REMARK   11  A    between atoms: C_30  and  C_31 
REMARK   12  A    between atoms: C_31  and  C_32 
REMARK   13  A    between atoms: C_31  and  O_44 
REMARK   14  A    between atoms: C_35  and  O_43 
REMARK   15  A    between atoms: C_36  and  N_38 
REMARK   16  A    between atoms: N_38  and  S_39 
ROOT
HETATM    1  C   UNK N   1      23.630  16.736   4.691  0.00  0.00    -0.055 A 
HETATM    2  C   UNK N   1      24.371  15.861   5.503  0.00  0.00     0.007 A 
HETATM    3  C   UNK N   1      24.249  14.478   5.338  0.00  0.00     0.001 A 
HETATM    4  C   UNK N   1      23.390  13.971   4.359  0.00  0.00     0.007 A 
HETATM    5  C   UNK N   1      22.646  14.853   3.561  0.00  0.00    -0.049 A 
HETATM    6  C   UNK N   1      22.769  16.225   3.731  0.00  0.00     0.014 A 
ENDROOT
BRANCH   1   7
HETATM    7  C   UNK N   1      23.625  18.212   4.958  0.00  0.00     0.068 C 
BRANCH   7   8
HETATM    8  C   UNK N   1      24.891  18.842   4.369  0.00  0.00     0.022 C 
HETATM    9  C   UNK N   1      24.522  20.090   3.573  0.00  0.00     0.038 C 
HETATM   10  C   UNK N   1      25.549  17.840   3.438  0.00  0.00     0.038 C 
BRANCH   8  11
HETATM   11  N   UNK N   1      25.766  19.143   5.502  0.00  0.00    -0.410 N 
HETATM   12  H   UNK N   1      25.389  19.444   6.400  0.00  0.00     0.154 HD
BRANCH  11  13
HETATM   13  C   UNK N   1      27.194  18.994   5.293  0.00  0.00     0.151 C 
BRANCH  13  14
HETATM   14  C   UNK N   1      27.687  18.042   6.370  0.00  0.00     0.168 C 
BRANCH  14  15
HETATM   15  C   UNK N   1      29.070  17.593   5.989  0.00  0.00    -0.026 A 
HETATM   16  C   UNK N   1      29.394  17.404   4.639  0.00  0.00     0.012 A 
HETATM   17  C   UNK N   1      30.701  17.135   4.256  0.00  0.00     0.039 A 
HETATM   18  C   UNK N   1      31.702  17.026   5.217  0.00  0.00     0.092 A 
HETATM   19  C   UNK N   1      31.377  17.152   6.592  0.00  0.00     0.076 A 
HETATM   20  C   UNK N   1      30.063  17.448   6.955  0.00  0.00     0.043 A 
BRANCH  18  21
HETATM   21  O   UNK N   1      32.959  16.806   4.803  0.00  0.00    -0.358 OA
HETATM   22  H   UNK N   1      33.206  15.965   4.471  0.00  0.00     0.217 HD
ENDBRANCH  18  21
BRANCH  19  23
HETATM   23  N   UNK N   1      32.319  16.986   7.645  0.00  0.00    -0.282 N 
HETATM   24  H   UNK N   1      32.235  16.171   8.192  0.00  0.00     0.178 HD
BRANCH  23  25
HETATM   25  S   UNK N   1      33.619  18.092   8.065  0.00  0.00     0.227 S 
HETATM   26  O   UNK N   1      34.731  17.950   7.016  0.00  0.00    -0.206 OA
HETATM   27  O   UNK N   1      34.239  17.546   9.358  0.00  0.00    -0.206 OA
HETATM   28  C   UNK N   1      34.192  16.379   7.854  0.00  0.00     0.186 C 
ENDBRANCH  23  25
ENDBRANCH  19  23
ENDBRANCH  14  15
BRANCH  14  29
HETATM   29  O   UNK N   1      27.669  18.689   7.607  0.00  0.00    -0.389 OA
HETATM   30  H   UNK N   1      27.174  18.327   8.357  0.00  0.00     0.210 HD
ENDBRANCH  14  29
ENDBRANCH  13  14
ENDBRANCH  11  13
ENDBRANCH   8  11
ENDBRANCH   7   8
ENDBRANCH   1   7
BRANCH   5  31
HETATM   31  C   UNK N   1      21.786  14.365   2.458  0.00  0.00     0.141 C 
BRANCH  31  32
HETATM   32  C   UNK N   1      20.632  15.252   2.113  0.00  0.00     0.222 C 
HETATM   33  O   UNK N   1      20.736  16.059   1.210  0.00  0.00    -0.273 OA
HETATM   34  N   UNK N   1      19.456  15.132   2.785  0.00  0.00    -0.357 N 
HETATM   35  H   UNK N   1      18.688  15.672   2.489  0.00  0.00     0.162 HD
BRANCH  34  36
HETATM   36  C   UNK N   1      19.281  14.246   3.920  0.00  0.00     0.161 C 
BRANCH  36  37
HETATM   37  C   UNK N   1      19.779  14.828   5.210  0.00  0.00    -0.040 A 
HETATM   38  C   UNK N   1      19.774  16.212   5.405  0.00  0.00     0.009 A 
HETATM   39  C   UNK N   1      20.297  16.754   6.582  0.00  0.00     0.001 A 
HETATM   40  C   UNK N   1      20.825  15.915   7.569  0.00  0.00     0.012 A 
HETATM   41  C   UNK N   1      20.835  14.522   7.389  0.00  0.00    -0.025 A 
HETATM   42  C   UNK N   1      20.322  13.992   6.196  0.00  0.00     0.021 A 
BRANCH  41  43
HETATM   43  C   UNK N   1      21.372  13.625   8.445  0.00  0.00    -0.026 A 
HETATM   44  C   UNK N   1      20.790  13.602   9.723  0.00  0.00     0.015 A 
HETATM   45  C   UNK N   1      21.290  12.754  10.716  0.00  0.00     0.037 A 
HETATM   46  C   UNK N   1      22.372  11.915  10.440  0.00  0.00     0.065 A 
HETATM   47  C   UNK N   1      22.956  11.925   9.171  0.00  0.00     0.037 A 
HETATM   48  C   UNK N   1      22.462  12.777   8.178  0.00  0.00     0.015 A 
BRANCH  46  49
HETATM   49  O   UNK N   1      22.849  11.100  11.394  0.00  0.00    -0.361 OA
HETATM   50  H   UNK N   1      22.921  11.403  12.277  0.00  0.00     0.217 HD
ENDBRANCH  46  49
ENDBRANCH  41  43
ENDBRANCH  36  37
ENDBRANCH  34  36
ENDBRANCH  31  32
ENDBRANCH   5  31
TORSDOF 16
ENDMDL
MODEL 6
REMARK VINA RESULT:      -8.2     12.190     15.368
REMARK  16 active torsions:
REMARK  status: ('A' for Active; 'I' for Inactive)
REMARK    1  A    between atoms: C_2  and  C_4 
REMARK    2  A    between atoms: C_2  and  N_29 
REMARK    3  A    between atoms: C_4  and  C_5 
REMARK    4  A    between atoms: C_9  and  C_11 
REMARK    5  A    between atoms: C_11  and  C_12 
REMARK       I    between atoms: C_12  and  N_14 
REMARK    6  A    between atoms: N_14  and  C_15 
REMARK    7  A    between atoms: C_15  and  C_16 
REMARK    8  A    between atoms: C_20  and  C_22 
REMARK    9  A    between atoms: C_25  and  O_28 
REMARK   10  A    between atoms: N_29  and  C_30 
REMARK   11  A    between atoms: C_30  and  C_31 
REMARK   12  A    between atoms: C_31  and  C_32 
REMARK   13  A    between atoms: C_31  and  O_44 
REMARK   14  A    between atoms: C_35  and  O_43 
REMARK   15  A    between atoms: C_36  and  N_38 
REMARK   16  A    between atoms: N_38  and  S_39 
ROOT
HETATM    1  C   UNK N   1      29.306  26.689  -5.940  0.00  0.00    -0.055 A 
HETATM    2  C   UNK N   1      29.466  27.108  -7.272  0.00  0.00     0.007 A 
HETATM    3  C   UNK N   1      28.881  28.301  -7.707  0.00  0.00     0.001 A 
HETATM    4  C   UNK N   1      28.140  29.075  -6.810  0.00  0.00     0.007 A 
HETATM    5  C   UNK N   1      27.977  28.643  -5.486  0.00  0.00    -0.049 A 
HETATM    6  C   UNK N   1      28.558  27.456  -5.060  0.00  0.00     0.014 A 
ENDROOT
BRANCH   1   7
HETATM    7  C   UNK N   1      29.789  25.340  -5.498  0.00  0.00     0.068 C 
BRANCH   7   8
HETATM    8  C   UNK N   1      30.929  25.511  -4.488  0.00  0.00     0.022 C 
HETATM    9  C   UNK N   1      31.239  26.994  -4.309  0.00  0.00     0.038 C 
HETATM   10  C   UNK N   1      32.165  24.809  -5.022  0.00  0.00     0.038 C 
BRANCH   8  11
HETATM   11  N   UNK N   1      30.477  24.883  -3.247  0.00  0.00    -0.410 N 
HETATM   12  H   UNK N   1      30.893  25.123  -2.347  0.00  0.00     0.154 HD
BRANCH  11  13
HETATM   13  C   UNK N   1      29.412  23.903  -3.350  0.00  0.00     0.151 C 
BRANCH  13  14
HETATM   14  C   UNK N   1      29.857  22.701  -2.534  0.00  0.00     0.168 C 
BRANCH  14  15
HETATM   15  C   UNK N   1      30.816  21.905  -3.374  0.00  0.00    -0.026 A 
HETATM   16  C   UNK N   1      32.127  21.696  -2.925  0.00  0.00     0.012 A 
HETATM   17  C   UNK N   1      32.981  20.843  -3.611  0.00  0.00     0.039 A 
HETATM   18  C   UNK N   1      32.548  20.203  -4.770  0.00  0.00     0.092 A 
HETATM   19  C   UNK N   1      31.245  20.455  -5.269  0.00  0.00     0.076 A 
HETATM   20  C   UNK N   1      30.393  21.295  -4.553  0.00  0.00     0.043 A 
BRANCH  18  21
HETATM   21  O   UNK N   1      33.391  19.356  -5.379  0.00  0.00    -0.358 OA
HETATM   22  H   UNK N   1      34.311  19.402  -5.211  0.00  0.00     0.217 HD
ENDBRANCH  18  21
BRANCH  19  23
HETATM   23  N   UNK N   1      30.744  19.903  -6.481  0.00  0.00    -0.282 N 
HETATM   24  H   UNK N   1      30.823  18.928  -6.592  0.00  0.00     0.178 HD
BRANCH  23  25
HETATM   25  S   UNK N   1      29.995  20.792  -7.800  0.00  0.00     0.227 S 
HETATM   26  O   UNK N   1      28.479  20.561  -7.738  0.00  0.00    -0.206 OA
HETATM   27  O   UNK N   1      30.439  20.090  -9.091  0.00  0.00    -0.206 OA
HETATM   28  C   UNK N   1      29.538  19.032  -7.788  0.00  0.00     0.186 C 
ENDBRANCH  23  25
ENDBRANCH  19  23
ENDBRANCH  14  15
BRANCH  14  29
HETATM   29  O   UNK N   1      30.441  23.138  -1.343  0.00  0.00    -0.389 OA
HETATM   30  H   UNK N   1      30.791  24.037  -1.254  0.00  0.00     0.210 HD
ENDBRANCH  14  29
ENDBRANCH  13  14
ENDBRANCH  11  13
ENDBRANCH   8  11
ENDBRANCH   7   8
ENDBRANCH   1   7
BRANCH   5  31
HETATM   31  C   UNK N   1      27.270  29.468  -4.480  0.00  0.00     0.141 C 
BRANCH  31  32
HETATM   32  C   UNK N   1      26.737  28.716  -3.302  0.00  0.00     0.222 C 
HETATM   33  O   UNK N   1      27.282  28.819  -2.221  0.00  0.00    -0.273 OA
HETATM   34  N   UNK N   1      25.624  27.946  -3.432  0.00  0.00    -0.357 N 
HETATM   35  H   UNK N   1      25.248  27.523  -2.626  0.00  0.00     0.162 HD
BRANCH  34  36
HETATM   36  C   UNK N   1      24.966  27.717  -4.704  0.00  0.00     0.161 C 
BRANCH  36  37
HETATM   37  C   UNK N   1      25.370  26.428  -5.358  0.00  0.00    -0.040 A 
HETATM   38  C   UNK N   1      25.665  25.306  -4.578  0.00  0.00     0.009 A 
HETATM   39  C   UNK N   1      26.102  24.127  -5.187  0.00  0.00     0.001 A 
HETATM   40  C   UNK N   1      26.244  24.064  -6.578  0.00  0.00     0.012 A 
HETATM   41  C   UNK N   1      25.950  25.182  -7.374  0.00  0.00    -0.025 A 
HETATM   42  C   UNK N   1      25.527  26.364  -6.749  0.00  0.00     0.021 A 
BRANCH  41  43
HETATM   43  C   UNK N   1      26.074  25.112  -8.853  0.00  0.00    -0.026 A 
HETATM   44  C   UNK N   1      26.028  23.874  -9.514  0.00  0.00     0.015 A 
HETATM   45  C   UNK N   1      26.139  23.807 -10.907  0.00  0.00     0.037 A 
HETATM   46  C   UNK N   1      26.290  24.978 -11.654  0.00  0.00     0.065 A 
HETATM   47  C   UNK N   1      26.333  26.216 -11.008  0.00  0.00     0.037 A 
HETATM   48  C   UNK N   1      26.228  26.284  -9.615  0.00  0.00     0.015 A 
BRANCH  46  49
HETATM   49  O   UNK N   1      26.395  24.912 -12.991  0.00  0.00    -0.361 OA
HETATM   50  H   UNK N   1      25.622  24.906 -13.521  0.00  0.00     0.217 HD
ENDBRANCH  46  49
ENDBRANCH  41  43
ENDBRANCH  36  37
ENDBRANCH  34  36
ENDBRANCH  31  32
ENDBRANCH   5  31
TORSDOF 16
ENDMDL
MODEL 7
REMARK VINA RESULT:      -8.1     12.199     15.070
REMARK  16 active torsions:
REMARK  status: ('A' for Active; 'I' for Inactive)
REMARK    1  A    between atoms: C_2  and  C_4 
REMARK    2  A    between atoms: C_2  and  N_29 
REMARK    3  A    between atoms: C_4  and  C_5 
REMARK    4  A    between atoms: C_9  and  C_11 
REMARK    5  A    between atoms: C_11  and  C_12 
REMARK       I    between atoms: C_12  and  N_14 
REMARK    6  A    between atoms: N_14  and  C_15 
REMARK    7  A    between atoms: C_15  and  C_16 
REMARK    8  A    between atoms: C_20  and  C_22 
REMARK    9  A    between atoms: C_25  and  O_28 
REMARK   10  A    between atoms: N_29  and  C_30 
REMARK   11  A    between atoms: C_30  and  C_31 
REMARK   12  A    between atoms: C_31  and  C_32 
REMARK   13  A    between atoms: C_31  and  O_44 
REMARK   14  A    between atoms: C_35  and  O_43 
REMARK   15  A    between atoms: C_36  and  N_38 
REMARK   16  A    between atoms: N_38  and  S_39 
ROOT
HETATM    1  C   UNK N   1      29.339  26.765  -5.918  0.00  0.00    -0.055 A 
HETATM    2  C   UNK N   1      29.454  27.188  -7.253  0.00  0.00     0.007 A 
HETATM    3  C   UNK N   1      28.835  28.370  -7.670  0.00  0.00     0.001 A 
HETATM    4  C   UNK N   1      28.106  29.131  -6.752  0.00  0.00     0.007 A 
HETATM    5  C   UNK N   1      27.988  28.695  -5.424  0.00  0.00    -0.049 A 
HETATM    6  C   UNK N   1      28.602  27.519  -5.015  0.00  0.00     0.014 A 
ENDROOT
BRANCH   1   7
HETATM    7  C   UNK N   1      29.858  25.425  -5.490  0.00  0.00     0.068 C 
BRANCH   7   8
HETATM    8  C   UNK N   1      31.075  25.615  -4.579  0.00  0.00     0.022 C 
HETATM    9  C   UNK N   1      31.346  27.104  -4.387  0.00  0.00     0.038 C 
HETATM   10  C   UNK N   1      32.283  24.974  -5.236  0.00  0.00     0.038 C 
BRANCH   8  11
HETATM   11  N   UNK N   1      30.756  24.941  -3.320  0.00  0.00    -0.410 N 
HETATM   12  H   UNK N   1      31.399  24.960  -2.529  0.00  0.00     0.154 HD
BRANCH  11  13
HETATM   13  C   UNK N   1      29.486  24.243  -3.246  0.00  0.00     0.151 C 
BRANCH  13  14
HETATM   14  C   UNK N   1      29.784  22.876  -2.653  0.00  0.00     0.168 C 
BRANCH  14  15
HETATM   15  C   UNK N   1      30.146  21.954  -3.785  0.00  0.00    -0.026 A 
HETATM   16  C   UNK N   1      29.443  22.027  -4.994  0.00  0.00     0.012 A 
HETATM   17  C   UNK N   1      29.856  21.291  -6.097  0.00  0.00     0.039 A 
HETATM   18  C   UNK N   1      30.963  20.452  -6.003  0.00  0.00     0.092 A 
HETATM   19  C   UNK N   1      31.645  20.321  -4.767  0.00  0.00     0.076 A 
HETATM   20  C   UNK N   1      31.231  21.087  -3.677  0.00  0.00     0.043 A 
BRANCH  18  21
HETATM   21  O   UNK N   1      31.353  19.790  -7.103  0.00  0.00    -0.358 OA
HETATM   22  H   UNK N   1      32.222  19.446  -7.163  0.00  0.00     0.217 HD
ENDBRANCH  18  21
BRANCH  19  23
HETATM   23  N   UNK N   1      32.739  19.436  -4.558  0.00  0.00    -0.282 N 
HETATM   24  H   UNK N   1      32.581  18.664  -3.967  0.00  0.00     0.178 HD
BRANCH  23  25
HETATM   25  S   UNK N   1      34.346  19.583  -5.254  0.00  0.00     0.227 S 
HETATM   26  O   UNK N   1      34.748  18.220  -5.835  0.00  0.00    -0.206 OA
HETATM   27  O   UNK N   1      35.303  19.794  -4.073  0.00  0.00    -0.206 OA
HETATM   28  C   UNK N   1      34.223  18.226  -4.051  0.00  0.00     0.186 C 
ENDBRANCH  23  25
ENDBRANCH  19  23
ENDBRANCH  14  15
BRANCH  14  29
HETATM   29  O   UNK N   1      30.816  22.989  -1.719  0.00  0.00    -0.389 OA
HETATM   30  H   UNK N   1      30.802  22.486  -0.891  0.00  0.00     0.210 HD
ENDBRANCH  14  29
ENDBRANCH  13  14
ENDBRANCH  11  13
ENDBRANCH   8  11
ENDBRANCH   7   8
ENDBRANCH   1   7
BRANCH   5  31
HETATM   31  C   UNK N   1      27.295  29.507  -4.398  0.00  0.00     0.141 C 
BRANCH  31  32
HETATM   32  C   UNK N   1      26.777  28.739  -3.223  0.00  0.00     0.222 C 
HETATM   33  O   UNK N   1      27.317  28.851  -2.140  0.00  0.00    -0.273 OA
HETATM   34  N   UNK N   1      25.682  27.945  -3.358  0.00  0.00    -0.357 N 
HETATM   35  H   UNK N   1      25.314  27.511  -2.554  0.00  0.00     0.162 HD
BRANCH  34  36
HETATM   36  C   UNK N   1      25.032  27.705  -4.631  0.00  0.00     0.161 C 
BRANCH  36  37
HETATM   37  C   UNK N   1      25.432  26.406  -5.268  0.00  0.00    -0.040 A 
HETATM   38  C   UNK N   1      25.762  25.306  -4.472  0.00  0.00     0.009 A 
HETATM   39  C   UNK N   1      26.196  24.118  -5.067  0.00  0.00     0.001 A 
HETATM   40  C   UNK N   1      26.300  24.025  -6.459  0.00  0.00     0.012 A 
HETATM   41  C   UNK N   1      25.971  25.121  -7.271  0.00  0.00    -0.025 A 
HETATM   42  C   UNK N   1      25.552  26.313  -6.661  0.00  0.00     0.021 A 
BRANCH  41  43
HETATM   43  C   UNK N   1      26.055  25.020  -8.752  0.00  0.00    -0.026 A 
HETATM   44  C   UNK N   1      26.046  23.764  -9.381  0.00  0.00     0.015 A 
HETATM   45  C   UNK N   1      26.120  23.667 -10.774  0.00  0.00     0.037 A 
HETATM   46  C   UNK N   1      26.195  24.824 -11.553  0.00  0.00     0.065 A 
HETATM   47  C   UNK N   1      26.200  26.079 -10.939  0.00  0.00     0.037 A 
HETATM   48  C   UNK N   1      26.133  26.178  -9.546  0.00  0.00     0.015 A 
BRANCH  46  49
HETATM   49  O   UNK N   1      26.263  24.729 -12.891  0.00  0.00    -0.361 OA
HETATM   50  H   UNK N   1      26.895  24.164 -13.289  0.00  0.00     0.217 HD
ENDBRANCH  46  49
ENDBRANCH  41  43
ENDBRANCH  36  37
ENDBRANCH  34  36
ENDBRANCH  31  32
ENDBRANCH   5  31
TORSDOF 16
ENDMDL
MODEL 8
REMARK VINA RESULT:      -8.1      2.594      3.793
REMARK  16 active torsions:
REMARK  status: ('A' for Active; 'I' for Inactive)
REMARK    1  A    between atoms: C_2  and  C_4 
REMARK    2  A    between atoms: C_2  and  N_29 
REMARK    3  A    between atoms: C_4  and  C_5 
REMARK    4  A    between atoms: C_9  and  C_11 
REMARK    5  A    between atoms: C_11  and  C_12 
REMARK       I    between atoms: C_12  and  N_14 
REMARK    6  A    between atoms: N_14  and  C_15 
REMARK    7  A    between atoms: C_15  and  C_16 
REMARK    8  A    between atoms: C_20  and  C_22 
REMARK    9  A    between atoms: C_25  and  O_28 
REMARK   10  A    between atoms: N_29  and  C_30 
REMARK   11  A    between atoms: C_30  and  C_31 
REMARK   12  A    between atoms: C_31  and  C_32 
REMARK   13  A    between atoms: C_31  and  O_44 
REMARK   14  A    between atoms: C_35  and  O_43 
REMARK   15  A    between atoms: C_36  and  N_38 
REMARK   16  A    between atoms: N_38  and  S_39 
ROOT
HETATM    1  C   UNK N   1      23.859  15.046   4.124  0.00  0.00    -0.055 A 
HETATM    2  C   UNK N   1      23.431  14.305   3.009  0.00  0.00     0.007 A 
HETATM    3  C   UNK N   1      22.228  14.626   2.373  0.00  0.00     0.001 A 
HETATM    4  C   UNK N   1      21.456  15.689   2.850  0.00  0.00     0.007 A 
HETATM    5  C   UNK N   1      21.886  16.415   3.971  0.00  0.00    -0.049 A 
HETATM    6  C   UNK N   1      23.080  16.091   4.600  0.00  0.00     0.014 A 
ENDROOT
BRANCH   1   7
HETATM    7  C   UNK N   1      25.060  14.618   4.913  0.00  0.00     0.068 C 
BRANCH   7   8
HETATM    8  C   UNK N   1      26.286  15.411   4.448  0.00  0.00     0.022 C 
HETATM    9  C   UNK N   1      26.267  15.541   2.928  0.00  0.00     0.038 C 
HETATM   10  C   UNK N   1      27.540  14.663   4.864  0.00  0.00     0.038 C 
BRANCH   8  11
HETATM   11  N   UNK N   1      26.216  16.709   5.119  0.00  0.00    -0.410 N 
HETATM   12  H   UNK N   1      25.335  17.073   5.481  0.00  0.00     0.154 HD
BRANCH  11  13
HETATM   13  C   UNK N   1      27.453  17.456   5.246  0.00  0.00     0.151 C 
BRANCH  13  14
HETATM   14  C   UNK N   1      27.419  18.108   6.618  0.00  0.00     0.168 C 
BRANCH  14  15
HETATM   15  C   UNK N   1      28.803  18.030   7.199  0.00  0.00    -0.026 A 
HETATM   16  C   UNK N   1      29.065  18.597   8.453  0.00  0.00     0.012 A 
HETATM   17  C   UNK N   1      30.294  18.408   9.072  0.00  0.00     0.039 A 
HETATM   18  C   UNK N   1      31.290  17.671   8.436  0.00  0.00     0.092 A 
HETATM   19  C   UNK N   1      31.060  17.146   7.139  0.00  0.00     0.076 A 
HETATM   20  C   UNK N   1      29.811  17.324   6.545  0.00  0.00     0.043 A 
BRANCH  18  21
HETATM   21  O   UNK N   1      32.448  17.477   9.086  0.00  0.00    -0.358 OA
HETATM   22  H   UNK N   1      33.225  17.258   8.610  0.00  0.00     0.217 HD
ENDBRANCH  18  21
BRANCH  19  23
HETATM   23  N   UNK N   1      32.041  16.443   6.386  0.00  0.00    -0.282 N 
HETATM   24  H   UNK N   1      32.062  15.464   6.487  0.00  0.00     0.178 HD
BRANCH  23  25
HETATM   25  S   UNK N   1      33.220  17.151   5.291  0.00  0.00     0.227 S 
HETATM   26  O   UNK N   1      33.907  16.015   4.521  0.00  0.00    -0.206 OA
HETATM   27  O   UNK N   1      34.326  17.736   6.179  0.00  0.00    -0.206 OA
HETATM   28  C   UNK N   1      33.940  15.882   6.376  0.00  0.00     0.186 C 
ENDBRANCH  23  25
ENDBRANCH  19  23
ENDBRANCH  14  15
BRANCH  14  29
HETATM   29  O   UNK N   1      26.976  19.426   6.496  0.00  0.00    -0.389 OA
HETATM   30  H   UNK N   1      27.601  20.162   6.410  0.00  0.00     0.210 HD
ENDBRANCH  14  29
ENDBRANCH  13  14
ENDBRANCH  11  13
ENDBRANCH   8  11
ENDBRANCH   7   8
ENDBRANCH   1   7
BRANCH   5  31
HETATM   31  C   UNK N   1      21.143  17.598   4.462  0.00  0.00     0.141 C 
BRANCH  31  32
HETATM   32  C   UNK N   1      21.046  17.715   5.951  0.00  0.00     0.222 C 
HETATM   33  O   UNK N   1      21.681  18.571   6.534  0.00  0.00    -0.273 OA
HETATM   34  N   UNK N   1      20.223  16.886   6.646  0.00  0.00    -0.357 N 
HETATM   35  H   UNK N   1      20.117  17.032   7.614  0.00  0.00     0.162 HD
BRANCH  34  36
HETATM   36  C   UNK N   1      19.493  15.795   6.028  0.00  0.00     0.161 C 
BRANCH  36  37
HETATM   37  C   UNK N   1      20.149  14.459   6.220  0.00  0.00    -0.040 A 
HETATM   38  C   UNK N   1      19.868  13.406   5.345  0.00  0.00     0.009 A 
HETATM   39  C   UNK N   1      20.430  12.146   5.565  0.00  0.00     0.001 A 
HETATM   40  C   UNK N   1      21.277  11.934   6.658  0.00  0.00     0.012 A 
HETATM   41  C   UNK N   1      21.570  12.982   7.545  0.00  0.00    -0.025 A 
HETATM   42  C   UNK N   1      20.986  14.238   7.322  0.00  0.00     0.021 A 
BRANCH  41  43
HETATM   43  C   UNK N   1      22.488  12.768   8.694  0.00  0.00    -0.026 A 
HETATM   44  C   UNK N   1      22.006  12.242   9.903  0.00  0.00     0.015 A 
HETATM   45  C   UNK N   1      22.871  12.035  10.983  0.00  0.00     0.037 A 
HETATM   46  C   UNK N   1      24.227  12.345  10.862  0.00  0.00     0.065 A 
HETATM   47  C   UNK N   1      24.720  12.864   9.663  0.00  0.00     0.037 A 
HETATM   48  C   UNK N   1      23.856  13.078   8.584  0.00  0.00     0.015 A 
BRANCH  46  49
HETATM   49  O   UNK N   1      25.056  12.143  11.899  0.00  0.00    -0.361 OA
HETATM   50  H   UNK N   1      24.802  12.410  12.761  0.00  0.00     0.217 HD
ENDBRANCH  46  49
ENDBRANCH  41  43
ENDBRANCH  36  37
ENDBRANCH  34  36
ENDBRANCH  31  32
ENDBRANCH   5  31
TORSDOF 16
ENDMDL
MODEL 9
REMARK VINA RESULT:      -8.0      4.204      8.128
REMARK  16 active torsions:
REMARK  status: ('A' for Active; 'I' for Inactive)
REMARK    1  A    between atoms: C_2  and  C_4 
REMARK    2  A    between atoms: C_2  and  N_29 
REMARK    3  A    between atoms: C_4  and  C_5 
REMARK    4  A    between atoms: C_9  and  C_11 
REMARK    5  A    between atoms: C_11  and  C_12 
REMARK       I    between atoms: C_12  and  N_14 
REMARK    6  A    between atoms: N_14  and  C_15 
REMARK    7  A    between atoms: C_15  and  C_16 
REMARK    8  A    between atoms: C_20  and  C_22 
REMARK    9  A    between atoms: C_25  and  O_28 
REMARK   10  A    between atoms: N_29  and  C_30 
REMARK   11  A    between atoms: C_30  and  C_31 
REMARK   12  A    between atoms: C_31  and  C_32 
REMARK   13  A    between atoms: C_31  and  O_44 
REMARK   14  A    between atoms: C_35  and  O_43 
REMARK   15  A    between atoms: C_36  and  N_38 
REMARK   16  A    between atoms: N_38  and  S_39 
ROOT
HETATM    1  C   UNK N   1      21.468  12.820   8.054  0.00  0.00    -0.055 A 
HETATM    2  C   UNK N   1      21.269  11.806   7.101  0.00  0.00     0.007 A 
HETATM    3  C   UNK N   1      20.638  12.098   5.888  0.00  0.00     0.001 A 
HETATM    4  C   UNK N   1      20.210  13.402   5.627  0.00  0.00     0.007 A 
HETATM    5  C   UNK N   1      20.403  14.405   6.589  0.00  0.00    -0.049 A 
HETATM    6  C   UNK N   1      21.028  14.109   7.793  0.00  0.00     0.014 A 
ENDROOT
BRANCH   1   7
HETATM    7  C   UNK N   1      21.996  12.496   9.420  0.00  0.00     0.068 C 
BRANCH   7   8
HETATM    8  C   UNK N   1      23.519  12.343   9.356  0.00  0.00     0.022 C 
HETATM    9  C   UNK N   1      23.877  11.081   8.576  0.00  0.00     0.038 C 
HETATM   10  C   UNK N   1      24.059  12.220  10.769  0.00  0.00     0.038 C 
BRANCH   8  11
HETATM   11  N   UNK N   1      24.028  13.556   8.716  0.00  0.00    -0.410 N 
HETATM   12  H   UNK N   1      23.553  14.452   8.821  0.00  0.00     0.154 HD
BRANCH  11  13
HETATM   13  C   UNK N   1      25.237  13.429   7.923  0.00  0.00     0.151 C 
BRANCH  13  14
HETATM   14  C   UNK N   1      25.062  14.351   6.728  0.00  0.00     0.168 C 
BRANCH  14  15
HETATM   15  C   UNK N   1      24.632  13.509   5.558  0.00  0.00    -0.026 A 
HETATM   16  C   UNK N   1      25.099  12.194   5.437  0.00  0.00     0.012 A 
HETATM   17  C   UNK N   1      24.600  11.355   4.450  0.00  0.00     0.039 A 
HETATM   18  C   UNK N   1      23.644  11.822   3.552  0.00  0.00     0.092 A 
HETATM   19  C   UNK N   1      23.209  13.170   3.625  0.00  0.00     0.076 A 
HETATM   20  C   UNK N   1      23.703  13.991   4.639  0.00  0.00     0.043 A 
BRANCH  18  21
HETATM   21  O   UNK N   1      23.157  10.967   2.641  0.00  0.00    -0.358 OA
HETATM   22  H   UNK N   1      22.238  10.788   2.604  0.00  0.00     0.217 HD
ENDBRANCH  18  21
BRANCH  19  23
HETATM   23  N   UNK N   1      22.290  13.754   2.708  0.00  0.00    -0.282 N 
HETATM   24  H   UNK N   1      21.362  13.861   3.018  0.00  0.00     0.178 HD
BRANCH  23  25
HETATM   25  S   UNK N   1      22.651  14.302   1.078  0.00  0.00     0.227 S 
HETATM   26  O   UNK N   1      21.464  15.137   0.576  0.00  0.00    -0.206 OA
HETATM   27  O   UNK N   1      22.638  13.047   0.195  0.00  0.00    -0.206 OA
HETATM   28  C   UNK N   1      21.060  13.429   1.191  0.00  0.00     0.186 C 
ENDBRANCH  23  25
ENDBRANCH  19  23
ENDBRANCH  14  15
BRANCH  14  29
HETATM   29  O   UNK N   1      24.125  15.339   7.035  0.00  0.00    -0.389 OA
HETATM   30  H   UNK N   1      23.260  15.113   7.408  0.00  0.00     0.210 HD
ENDBRANCH  14  29
ENDBRANCH  13  14
ENDBRANCH  11  13
ENDBRANCH   8  11
ENDBRANCH   7   8
ENDBRANCH   1   7
BRANCH   5  31
HETATM   31  C   UNK N   1      20.040  15.815   6.324  0.00  0.00     0.141 C 
BRANCH  31  32
HETATM   32  C   UNK N   1      18.797  16.010   5.514  0.00  0.00     0.222 C 
HETATM   33  O   UNK N   1      17.708  15.929   6.046  0.00  0.00    -0.273 OA
HETATM   34  N   UNK N   1      18.887  16.311   4.191  0.00  0.00    -0.357 N 
HETATM   35  H   UNK N   1      18.059  16.511   3.697  0.00  0.00     0.162 HD
BRANCH  34  36
HETATM   36  C   UNK N   1      20.146  16.352   3.473  0.00  0.00     0.161 C 
BRANCH  36  37
HETATM   37  C   UNK N   1      20.730  17.731   3.375  0.00  0.00    -0.040 A 
HETATM   38  C   UNK N   1      19.913  18.818   3.052  0.00  0.00     0.009 A 
HETATM   39  C   UNK N   1      20.471  20.090   2.898  0.00  0.00     0.001 A 
HETATM   40  C   UNK N   1      21.846  20.280   3.070  0.00  0.00     0.012 A 
HETATM   41  C   UNK N   1      22.679  19.199   3.397  0.00  0.00    -0.025 A 
HETATM   42  C   UNK N   1      22.109  17.924   3.532  0.00  0.00     0.021 A 
BRANCH  41  43
HETATM   43  C   UNK N   1      24.137  19.400   3.605  0.00  0.00    -0.026 A 
HETATM   44  C   UNK N   1      24.847  18.589   4.505  0.00  0.00     0.015 A 
HETATM   45  C   UNK N   1      26.220  18.774   4.697  0.00  0.00     0.037 A 
HETATM   46  C   UNK N   1      26.898  19.766   3.987  0.00  0.00     0.065 A 
HETATM   47  C   UNK N   1      26.205  20.576   3.084  0.00  0.00     0.037 A 
HETATM   48  C   UNK N   1      24.830  20.397   2.895  0.00  0.00     0.015 A 
BRANCH  46  49
HETATM   49  O   UNK N   1      28.217  19.940   4.171  0.00  0.00    -0.361 OA
HETATM   50  H   UNK N   1      28.695  19.353   4.723  0.00  0.00     0.217 HD
ENDBRANCH  46  49
ENDBRANCH  41  43
ENDBRANCH  36  37
ENDBRANCH  34  36
ENDBRANCH  31  32
ENDBRANCH   5  31
TORSDOF 16
ENDMDL
