MODEL 1
REMARK VINA RESULT:      -6.8      0.000      0.000
REMARK  9 active torsions:
REMARK  status: ('A' for Active; 'I' for Inactive)
REMARK    1  A    between atoms: C_2  and  C_4 
REMARK    2  A    between atoms: C_5  and  C_4 
REMARK    3  A    between atoms: C_12  and  O_29 
REMARK    4  A    between atoms: C_13  and  O_27 
REMARK    5  A    between atoms: C_18  and  O_19 
REMARK    6  A    between atoms: O_19  and  C_20 
REMARK    7  A    between atoms: C_20  and  C_22 
REMARK    8  A    between atoms: C_22  and  C_23 
REMARK    9  A    between atoms: C_22  and  N_26 
ROOT
HETATM    1  C   UNK N   1      22.476  18.030   5.300  0.00  0.00     0.044 C 
HETATM    2  C   UNK N   1      21.230  17.890   6.182  0.00  0.00     0.280 C 
HETATM    3  N   UNK N   1      21.430  16.881   7.215  0.00  0.00     0.098 N 
HETATM    4  C   UNK N   1      20.328  17.037   8.189  0.00  0.00     0.278 C 
HETATM    5  C   UNK N   1      19.773  15.721   8.778  0.00  0.00     0.069 C 
HETATM    6  C   UNK N   1      20.801  14.637   8.776  0.00  0.00    -0.045 A 
HETATM    7  C   UNK N   1      20.930  13.771   9.859  0.00  0.00     0.047 A 
HETATM    8  C   UNK N   1      21.905  12.766   9.863  0.00  0.00     0.102 A 
HETATM    9  C   UNK N   1      22.774  12.642   8.741  0.00  0.00     0.102 A 
HETATM   10  C   UNK N   1      22.634  13.533   7.656  0.00  0.00     0.049 A 
HETATM   11  C   UNK N   1      21.644  14.523   7.674  0.00  0.00    -0.016 A 
HETATM   12  C   UNK N   1      21.459  15.542   6.583  0.00  0.00     0.259 C 
HETATM   13  C   UNK N   1      22.482  15.440   5.422  0.00  0.00     0.073 C 
HETATM   14  C   UNK N   1      23.304  16.731   5.297  0.00  0.00     0.140 C 
ENDROOT
BRANCH  14  15
HETATM   15  O   UNK N   1      24.309  16.706   4.341  0.00  0.00    -0.314 OA
BRANCH  15  16
HETATM   16  C   UNK N   1      25.627  16.971   4.563  0.00  0.00     0.281 C 
HETATM   17  O   UNK N   1      26.474  16.098   4.435  0.00  0.00    -0.263 OA
BRANCH  16  18
HETATM   18  C   UNK N   1      26.023  18.346   5.025  0.00  0.00     0.178 C 
BRANCH  18  19
HETATM   19  C   UNK N   1      26.661  19.195   3.914  0.00  0.00     0.009 C 
HETATM   20  C   UNK N   1      27.807  20.024   4.468  0.00  0.00     0.012 C 
HETATM   21  C   UNK N   1      25.661  20.131   3.259  0.00  0.00     0.012 C 
ENDBRANCH  18  19
BRANCH  18  22
HETATM   22  N   UNK N   1      26.938  18.227   6.148  0.00  0.00    -0.418 N 
HETATM   23  H   UNK N   1      27.374  17.336   6.386  0.00  0.00     0.150 HD
HETATM   24  H   UNK N   1      27.148  19.052   6.711  0.00  0.00     0.150 HD
ENDBRANCH  18  22
ENDBRANCH  16  18
ENDBRANCH  15  16
ENDBRANCH  14  15
BRANCH   1  25
HETATM   25  C   UNK N   1      22.095  18.517   3.905  0.00  0.00     0.012 C 
BRANCH  25  26
HETATM   26  C   UNK N   1      20.647  18.184   3.578  0.00  0.00    -0.022 C 
HETATM   27  C   UNK N   1      20.584  17.022   2.606  0.00  0.00     0.009 C 
HETATM   28  C   UNK N   1      19.982  19.389   2.952  0.00  0.00     0.009 C 
ENDBRANCH  25  26
ENDBRANCH   1  25
BRANCH   9  29
HETATM   29  O   UNK N   1      23.731  11.681   8.719  0.00  0.00    -0.353 OA
HETATM   30  C   UNK N   1      23.673  10.568   7.909  0.00  0.00     0.210 C 
ENDBRANCH   9  29
BRANCH   8  31
HETATM   31  O   UNK N   1      21.964  11.958  10.955  0.00  0.00    -0.353 OA
HETATM   32  C   UNK N   1      22.943  11.986  11.921  0.00  0.00     0.210 C 
ENDBRANCH   8  31
TORSDOF 9
ENDMDL
MODEL 2
REMARK VINA RESULT:      -6.7     14.187     16.248
REMARK  9 active torsions:
REMARK  status: ('A' for Active; 'I' for Inactive)
REMARK    1  A    between atoms: C_2  and  C_4 
REMARK    2  A    between atoms: C_5  and  C_4 
REMARK    3  A    between atoms: C_12  and  O_29 
REMARK    4  A    between atoms: C_13  and  O_27 
REMARK    5  A    between atoms: C_18  and  O_19 
REMARK    6  A    between atoms: O_19  and  C_20 
REMARK    7  A    between atoms: C_20  and  C_22 
REMARK    8  A    between atoms: C_22  and  C_23 
REMARK    9  A    between atoms: C_22  and  N_26 
ROOT
HETATM    1  C   UNK N   1      25.759  22.887  -7.735  0.00  0.00     0.044 C 
HETATM    2  C   UNK N   1      26.756  22.125  -8.616  0.00  0.00     0.280 C 
HETATM    3  N   UNK N   1      27.761  21.448  -7.806  0.00  0.00     0.098 N 
HETATM    4  C   UNK N   1      28.469  20.504  -8.698  0.00  0.00     0.278 C 
HETATM    5  C   UNK N   1      29.986  20.364  -8.445  0.00  0.00     0.069 C 
HETATM    6  C   UNK N   1      30.341  20.672  -7.026  0.00  0.00    -0.045 A 
HETATM    7  C   UNK N   1      31.280  19.904  -6.342  0.00  0.00     0.047 A 
HETATM    8  C   UNK N   1      31.599  20.183  -5.008  0.00  0.00     0.102 A 
HETATM    9  C   UNK N   1      30.944  21.264  -4.351  0.00  0.00     0.102 A 
HETATM   10  C   UNK N   1      29.990  22.025  -5.059  0.00  0.00     0.049 A 
HETATM   11  C   UNK N   1      29.696  21.731  -6.395  0.00  0.00    -0.016 A 
HETATM   12  C   UNK N   1      28.659  22.461  -7.205  0.00  0.00     0.259 C 
HETATM   13  C   UNK N   1      27.896  23.567  -6.433  0.00  0.00     0.073 C 
HETATM   14  C   UNK N   1      26.391  23.267  -6.382  0.00  0.00     0.140 C 
ENDROOT
BRANCH  14  15
HETATM   15  O   UNK N   1      25.631  24.156  -5.636  0.00  0.00    -0.314 OA
BRANCH  15  16
HETATM   16  C   UNK N   1      25.992  24.707  -4.443  0.00  0.00     0.281 C 
HETATM   17  O   UNK N   1      26.079  24.020  -3.434  0.00  0.00    -0.263 OA
BRANCH  16  18
HETATM   18  C   UNK N   1      26.226  26.190  -4.370  0.00  0.00     0.178 C 
BRANCH  18  19
HETATM   19  C   UNK N   1      25.863  26.922  -5.671  0.00  0.00     0.009 C 
HETATM   20  C   UNK N   1      26.748  28.142  -5.861  0.00  0.00     0.012 C 
HETATM   21  C   UNK N   1      24.413  27.371  -5.693  0.00  0.00     0.012 C 
ENDBRANCH  18  19
BRANCH  18  22
HETATM   22  N   UNK N   1      27.618  26.437  -4.032  0.00  0.00    -0.418 N 
HETATM   23  H   UNK N   1      28.159  27.164  -4.500  0.00  0.00     0.150 HD
HETATM   24  H   UNK N   1      28.064  25.870  -3.310  0.00  0.00     0.150 HD
ENDBRANCH  18  22
ENDBRANCH  16  18
ENDBRANCH  15  16
ENDBRANCH  14  15
BRANCH   1  25
HETATM   25  C   UNK N   1      25.171  24.074  -8.491  0.00  0.00     0.012 C 
BRANCH  25  26
HETATM   26  C   UNK N   1      26.153  24.620  -9.516  0.00  0.00    -0.022 C 
HETATM   27  C   UNK N   1      26.680  25.970  -9.068  0.00  0.00     0.009 C 
HETATM   28  C   UNK N   1      25.454  24.779 -10.848  0.00  0.00     0.009 C 
ENDBRANCH  25  26
ENDBRANCH   1  25
BRANCH   9  29
HETATM   29  O   UNK N   1      31.230  21.555  -3.057  0.00  0.00    -0.353 OA
HETATM   30  C   UNK N   1      30.694  22.630  -2.383  0.00  0.00     0.210 C 
ENDBRANCH   9  29
BRANCH   8  31
HETATM   31  O   UNK N   1      32.530  19.392  -4.410  0.00  0.00    -0.353 OA
HETATM   32  C   UNK N   1      33.841  19.256  -4.805  0.00  0.00     0.210 C 
ENDBRANCH   8  31
TORSDOF 9
ENDMDL
MODEL 3
REMARK VINA RESULT:      -6.4      5.333      9.289
REMARK  9 active torsions:
REMARK  status: ('A' for Active; 'I' for Inactive)
REMARK    1  A    between atoms: C_2  and  C_4 
REMARK    2  A    between atoms: C_5  and  C_4 
REMARK    3  A    between atoms: C_12  and  O_29 
REMARK    4  A    between atoms: C_13  and  O_27 
REMARK    5  A    between atoms: C_18  and  O_19 
REMARK    6  A    between atoms: O_19  and  C_20 
REMARK    7  A    between atoms: C_20  and  C_22 
REMARK    8  A    between atoms: C_22  and  C_23 
REMARK    9  A    between atoms: C_22  and  N_26 
ROOT
HETATM    1  C   UNK N   1      27.368  16.365   4.347  0.00  0.00     0.044 C 
HETATM    2  C   UNK N   1      28.242  15.424   3.510  0.00  0.00     0.280 C 
HETATM    3  N   UNK N   1      29.591  15.337   4.058  0.00  0.00     0.098 N 
HETATM    4  C   UNK N   1      30.252  14.193   3.394  0.00  0.00     0.278 C 
HETATM    5  C   UNK N   1      31.750  14.389   3.070  0.00  0.00     0.069 C 
HETATM    6  C   UNK N   1      32.395  15.360   4.005  0.00  0.00    -0.045 A 
HETATM    7  C   UNK N   1      33.673  15.127   4.506  0.00  0.00     0.047 A 
HETATM    8  C   UNK N   1      34.270  16.029   5.395  0.00  0.00     0.102 A 
HETATM    9  C   UNK N   1      33.548  17.193   5.788  0.00  0.00     0.102 A 
HETATM   10  C   UNK N   1      32.251  17.408   5.275  0.00  0.00     0.049 A 
HETATM   11  C   UNK N   1      31.682  16.494   4.381  0.00  0.00    -0.016 A 
HETATM   12  C   UNK N   1      30.289  16.623   3.826  0.00  0.00     0.259 C 
HETATM   13  C   UNK N   1      29.495  17.847   4.348  0.00  0.00     0.073 C 
HETATM   14  C   UNK N   1      28.225  17.406   5.091  0.00  0.00     0.140 C 
ENDROOT
BRANCH  14  15
HETATM   15  O   UNK N   1      27.491  18.429   5.673  0.00  0.00    -0.314 OA
BRANCH  15  16
HETATM   16  C   UNK N   1      27.889  19.199   6.724  0.00  0.00     0.281 C 
HETATM   17  O   UNK N   1      28.121  20.391   6.577  0.00  0.00    -0.263 OA
BRANCH  16  18
HETATM   18  C   UNK N   1      28.097  18.547   8.063  0.00  0.00     0.178 C 
BRANCH  18  19
HETATM   19  C   UNK N   1      29.579  18.432   8.453  0.00  0.00     0.009 C 
HETATM   20  C   UNK N   1      30.106  17.042   8.143  0.00  0.00     0.012 C 
HETATM   21  C   UNK N   1      29.809  18.717   9.927  0.00  0.00     0.012 C 
ENDBRANCH  18  19
BRANCH  18  22
HETATM   22  N   UNK N   1      27.481  17.231   8.054  0.00  0.00    -0.418 N 
HETATM   23  H   UNK N   1      27.418  16.679   7.198  0.00  0.00     0.150 HD
HETATM   24  H   UNK N   1      27.103  16.851   8.922  0.00  0.00     0.150 HD
ENDBRANCH  18  22
ENDBRANCH  16  18
ENDBRANCH  15  16
ENDBRANCH  14  15
BRANCH   1  25
HETATM   25  C   UNK N   1      26.266  16.980   3.488  0.00  0.00     0.012 C 
BRANCH  25  26
HETATM   26  C   UNK N   1      24.889  16.695   4.066  0.00  0.00    -0.022 C 
HETATM   27  C   UNK N   1      24.201  17.992   4.443  0.00  0.00     0.009 C 
HETATM   28  C   UNK N   1      25.030  15.833   5.301  0.00  0.00     0.009 C 
ENDBRANCH  25  26
ENDBRANCH   1  25
BRANCH   9  29
HETATM   29  O   UNK N   1      34.099  18.083   6.651  0.00  0.00    -0.353 OA
HETATM   30  C   UNK N   1      33.914  18.034   8.015  0.00  0.00     0.210 C 
ENDBRANCH   9  29
BRANCH   8  31
HETATM   31  O   UNK N   1      35.521  15.735   5.837  0.00  0.00    -0.353 OA
HETATM   32  C   UNK N   1      35.867  14.641   6.597  0.00  0.00     0.210 C 
ENDBRANCH   8  31
TORSDOF 9
ENDMDL
MODEL 4
REMARK VINA RESULT:      -6.4     14.169     16.024
REMARK  9 active torsions:
REMARK  status: ('A' for Active; 'I' for Inactive)
REMARK    1  A    between atoms: C_2  and  C_4 
REMARK    2  A    between atoms: C_5  and  C_4 
REMARK    3  A    between atoms: C_12  and  O_29 
REMARK    4  A    between atoms: C_13  and  O_27 
REMARK    5  A    between atoms: C_18  and  O_19 
REMARK    6  A    between atoms: O_19  and  C_20 
REMARK    7  A    between atoms: C_20  and  C_22 
REMARK    8  A    between atoms: C_22  and  C_23 
REMARK    9  A    between atoms: C_22  and  N_26 
ROOT
HETATM    1  C   UNK N   1      26.649  24.513  -4.632  0.00  0.00     0.044 C 
HETATM    2  C   UNK N   1      25.962  23.921  -5.868  0.00  0.00     0.280 C 
HETATM    3  N   UNK N   1      26.637  22.707  -6.311  0.00  0.00     0.098 N 
HETATM    4  C   UNK N   1      25.741  22.048  -7.286  0.00  0.00     0.278 C 
HETATM    5  C   UNK N   1      26.445  21.372  -8.483  0.00  0.00     0.069 C 
HETATM    6  C   UNK N   1      27.838  20.952  -8.140  0.00  0.00    -0.045 A 
HETATM    7  C   UNK N   1      28.344  19.731  -8.578  0.00  0.00     0.047 A 
HETATM    8  C   UNK N   1      29.643  19.330  -8.242  0.00  0.00     0.102 A 
HETATM    9  C   UNK N   1      30.444  20.189  -7.436  0.00  0.00     0.102 A 
HETATM   10  C   UNK N   1      29.911  21.419  -6.995  0.00  0.00     0.049 A 
HETATM   11  C   UNK N   1      28.613  21.799  -7.353  0.00  0.00    -0.016 A 
HETATM   12  C   UNK N   1      27.953  23.068  -6.886  0.00  0.00     0.259 C 
HETATM   13  C   UNK N   1      28.815  23.933  -5.933  0.00  0.00     0.073 C 
HETATM   14  C   UNK N   1      28.132  24.100  -4.568  0.00  0.00     0.140 C 
ENDROOT
BRANCH  14  15
HETATM   15  O   UNK N   1      28.867  24.787  -3.614  0.00  0.00    -0.314 OA
BRANCH  15  16
HETATM   16  C   UNK N   1      30.188  24.599  -3.337  0.00  0.00     0.281 C 
HETATM   17  O   UNK N   1      31.034  25.378  -3.753  0.00  0.00    -0.263 OA
BRANCH  16  18
HETATM   18  C   UNK N   1      30.601  23.381  -2.558  0.00  0.00     0.178 C 
BRANCH  18  19
HETATM   19  C   UNK N   1      31.149  22.254  -3.447  0.00  0.00     0.009 C 
HETATM   20  C   UNK N   1      30.150  21.113  -3.539  0.00  0.00     0.012 C 
HETATM   21  C   UNK N   1      32.465  21.702  -2.928  0.00  0.00     0.012 C 
ENDBRANCH  18  19
BRANCH  18  22
HETATM   22  N   UNK N   1      29.465  22.900  -1.788  0.00  0.00    -0.418 N 
HETATM   23  H   UNK N   1      28.633  22.525  -2.245  0.00  0.00     0.150 HD
HETATM   24  H   UNK N   1      29.501  22.938  -0.769  0.00  0.00     0.150 HD
ENDBRANCH  18  22
ENDBRANCH  16  18
ENDBRANCH  15  16
ENDBRANCH  14  15
BRANCH   1  25
HETATM   25  C   UNK N   1      26.431  26.022  -4.567  0.00  0.00     0.012 C 
BRANCH  25  26
HETATM   26  C   UNK N   1      25.906  26.564  -5.888  0.00  0.00    -0.022 C 
HETATM   27  C   UNK N   1      26.923  27.500  -6.511  0.00  0.00     0.009 C 
HETATM   28  C   UNK N   1      24.619  27.321  -5.645  0.00  0.00     0.009 C 
ENDBRANCH  25  26
ENDBRANCH   1  25
BRANCH   9  29
HETATM   29  O   UNK N   1      31.705  19.826  -7.090  0.00  0.00    -0.353 OA
HETATM   30  C   UNK N   1      32.627  20.696  -6.554  0.00  0.00     0.210 C 
ENDBRANCH   9  29
BRANCH   8  31
HETATM   31  O   UNK N   1      30.066  18.127  -8.711  0.00  0.00    -0.353 OA
HETATM   32  C   UNK N   1      30.648  17.904  -9.938  0.00  0.00     0.210 C 
ENDBRANCH   8  31
TORSDOF 9
ENDMDL
MODEL 5
REMARK VINA RESULT:      -6.4      6.581     10.442
REMARK  9 active torsions:
REMARK  status: ('A' for Active; 'I' for Inactive)
REMARK    1  A    between atoms: C_2  and  C_4 
REMARK    2  A    between atoms: C_5  and  C_4 
REMARK    3  A    between atoms: C_12  and  O_29 
REMARK    4  A    between atoms: C_13  and  O_27 
REMARK    5  A    between atoms: C_18  and  O_19 
REMARK    6  A    between atoms: O_19  and  C_20 
REMARK    7  A    between atoms: C_20  and  C_22 
REMARK    8  A    between atoms: C_22  and  C_23 
REMARK    9  A    between atoms: C_22  and  N_26 
ROOT
HETATM    1  C   UNK N   1      33.219  16.495   4.352  0.00  0.00     0.044 C 
HETATM    2  C   UNK N   1      32.088  15.815   3.571  0.00  0.00     0.280 C 
HETATM    3  N   UNK N   1      30.869  16.613   3.613  0.00  0.00     0.098 N 
HETATM    4  C   UNK N   1      29.953  16.053   2.596  0.00  0.00     0.278 C 
HETATM    5  C   UNK N   1      28.458  16.037   2.986  0.00  0.00     0.069 C 
HETATM    6  C   UNK N   1      28.132  17.113   3.970  0.00  0.00    -0.045 A 
HETATM    7  C   UNK N   1      26.954  17.848   3.861  0.00  0.00     0.047 A 
HETATM    8  C   UNK N   1      26.657  18.867   4.773  0.00  0.00     0.102 A 
HETATM    9  C   UNK N   1      27.583  19.151   5.818  0.00  0.00     0.102 A 
HETATM   10  C   UNK N   1      28.775  18.401   5.908  0.00  0.00     0.049 A 
HETATM   11  C   UNK N   1      29.042  17.381   4.988  0.00  0.00    -0.016 A 
HETATM   12  C   UNK N   1      30.309  16.569   4.983  0.00  0.00     0.259 C 
HETATM   13  C   UNK N   1      31.337  16.966   6.073  0.00  0.00     0.073 C 
HETATM   14  C   UNK N   1      32.658  17.429   5.442  0.00  0.00     0.140 C 
ENDROOT
BRANCH  14  15
HETATM   15  O   UNK N   1      33.615  17.891   6.334  0.00  0.00    -0.314 OA
BRANCH  15  16
HETATM   16  C   UNK N   1      33.531  17.834   7.693  0.00  0.00     0.281 C 
HETATM   17  O   UNK N   1      32.818  18.613   8.311  0.00  0.00    -0.263 OA
BRANCH  16  18
HETATM   18  C   UNK N   1      34.375  16.832   8.431  0.00  0.00     0.178 C 
BRANCH  18  19
HETATM   19  C   UNK N   1      33.834  15.398   8.331  0.00  0.00     0.009 C 
HETATM   20  C   UNK N   1      32.592  15.235   9.191  0.00  0.00     0.012 C 
HETATM   21  C   UNK N   1      34.859  14.365   8.764  0.00  0.00     0.012 C 
ENDBRANCH  18  19
BRANCH  18  22
HETATM   22  N   UNK N   1      34.477  17.230   9.825  0.00  0.00    -0.418 N 
HETATM   23  H   UNK N   1      34.937  16.636  10.516  0.00  0.00     0.150 HD
HETATM   24  H   UNK N   1      34.079  18.122  10.120  0.00  0.00     0.150 HD
ENDBRANCH  18  22
ENDBRANCH  16  18
ENDBRANCH  15  16
ENDBRANCH  14  15
BRANCH   1  25
HETATM   25  C   UNK N   1      34.205  15.459   4.882  0.00  0.00     0.012 C 
BRANCH  25  26
HETATM   26  C   UNK N   1      33.933  14.083   4.294  0.00  0.00    -0.022 C 
HETATM   27  C   UNK N   1      33.685  13.079   5.403  0.00  0.00     0.009 C 
HETATM   28  C   UNK N   1      35.129  13.637   3.482  0.00  0.00     0.009 C 
ENDBRANCH  25  26
ENDBRANCH   1  25
BRANCH   9  29
HETATM   29  O   UNK N   1      27.324  20.136   6.714  0.00  0.00    -0.353 OA
HETATM   30  C   UNK N   1      27.406  21.478   6.414  0.00  0.00     0.210 C 
ENDBRANCH   9  29
BRANCH   8  31
HETATM   31  O   UNK N   1      25.486  19.536   4.603  0.00  0.00    -0.353 OA
HETATM   32  C   UNK N   1      25.118  20.237   3.477  0.00  0.00     0.210 C 
ENDBRANCH   8  31
TORSDOF 9
ENDMDL
MODEL 6
REMARK VINA RESULT:      -6.4      1.246      2.102
REMARK  9 active torsions:
REMARK  status: ('A' for Active; 'I' for Inactive)
REMARK    1  A    between atoms: C_2  and  C_4 
REMARK    2  A    between atoms: C_5  and  C_4 
REMARK    3  A    between atoms: C_12  and  O_29 
REMARK    4  A    between atoms: C_13  and  O_27 
REMARK    5  A    between atoms: C_18  and  O_19 
REMARK    6  A    between atoms: O_19  and  C_20 
REMARK    7  A    between atoms: C_20  and  C_22 
REMARK    8  A    between atoms: C_22  and  C_23 
REMARK    9  A    between atoms: C_22  and  N_26 
ROOT
HETATM    1  C   UNK N   1      22.560  17.987   5.476  0.00  0.00     0.044 C 
HETATM    2  C   UNK N   1      21.258  17.901   6.281  0.00  0.00     0.280 C 
HETATM    3  N   UNK N   1      21.354  16.891   7.327  0.00  0.00     0.098 N 
HETATM    4  C   UNK N   1      20.201  17.095   8.231  0.00  0.00     0.278 C 
HETATM    5  C   UNK N   1      19.559  15.806   8.789  0.00  0.00     0.069 C 
HETATM    6  C   UNK N   1      20.542  14.682   8.854  0.00  0.00    -0.045 A 
HETATM    7  C   UNK N   1      20.569  13.818   9.946  0.00  0.00     0.047 A 
HETATM    8  C   UNK N   1      21.501  12.776  10.012  0.00  0.00     0.102 A 
HETATM    9  C   UNK N   1      22.432  12.611   8.947  0.00  0.00     0.102 A 
HETATM   10  C   UNK N   1      22.394  13.501   7.853  0.00  0.00     0.049 A 
HETATM   11  C   UNK N   1      21.446  14.529   7.806  0.00  0.00    -0.016 A 
HETATM   12  C   UNK N   1      21.369  15.548   6.702  0.00  0.00     0.259 C 
HETATM   13  C   UNK N   1      22.455  15.400   5.607  0.00  0.00     0.073 C 
HETATM   14  C   UNK N   1      23.335  16.656   5.528  0.00  0.00     0.140 C 
ENDROOT
BRANCH  14  15
HETATM   15  O   UNK N   1      24.395  16.586   4.636  0.00  0.00    -0.314 OA
BRANCH  15  16
HETATM   16  C   UNK N   1      25.672  16.991   4.882  0.00  0.00     0.281 C 
HETATM   17  O   UNK N   1      26.076  18.074   4.481  0.00  0.00    -0.263 OA
BRANCH  16  18
HETATM   18  C   UNK N   1      26.602  16.058   5.608  0.00  0.00     0.178 C 
BRANCH  18  19
HETATM   19  C   UNK N   1      26.306  14.576   5.330  0.00  0.00     0.009 C 
HETATM   20  C   UNK N   1      25.815  13.886   6.591  0.00  0.00     0.012 C 
HETATM   21  C   UNK N   1      27.527  13.832   4.818  0.00  0.00     0.012 C 
ENDBRANCH  18  19
BRANCH  18  22
HETATM   22  N   UNK N   1      26.525  16.323   7.034  0.00  0.00    -0.418 N 
HETATM   23  H   UNK N   1      27.271  16.818   7.525  0.00  0.00     0.150 HD
HETATM   24  H   UNK N   1      25.708  16.006   7.558  0.00  0.00     0.150 HD
ENDBRANCH  18  22
ENDBRANCH  16  18
ENDBRANCH  15  16
ENDBRANCH  14  15
BRANCH   1  25
HETATM   25  C   UNK N   1      22.285  18.480   4.059  0.00  0.00     0.012 C 
BRANCH  25  26
HETATM   26  C   UNK N   1      20.800  18.430   3.733  0.00  0.00    -0.022 C 
HETATM   27  C   UNK N   1      20.530  17.376   2.678  0.00  0.00     0.009 C 
HETATM   28  C   UNK N   1      20.354  19.778   3.210  0.00  0.00     0.009 C 
ENDBRANCH  25  26
ENDBRANCH   1  25
BRANCH   9  29
HETATM   29  O   UNK N   1      23.350  11.613   8.986  0.00  0.00    -0.353 OA
HETATM   30  C   UNK N   1      23.627  10.792   7.916  0.00  0.00     0.210 C 
ENDBRANCH   9  29
BRANCH   8  31
HETATM   31  O   UNK N   1      21.461  11.973  11.109  0.00  0.00    -0.353 OA
HETATM   32  C   UNK N   1      22.362  11.989  12.149  0.00  0.00     0.210 C 
ENDBRANCH   8  31
TORSDOF 9
ENDMDL
MODEL 7
REMARK VINA RESULT:      -6.3      7.842     11.728
REMARK  9 active torsions:
REMARK  status: ('A' for Active; 'I' for Inactive)
REMARK    1  A    between atoms: C_2  and  C_4 
REMARK    2  A    between atoms: C_5  and  C_4 
REMARK    3  A    between atoms: C_12  and  O_29 
REMARK    4  A    between atoms: C_13  and  O_27 
REMARK    5  A    between atoms: C_18  and  O_19 
REMARK    6  A    between atoms: O_19  and  C_20 
REMARK    7  A    between atoms: C_20  and  C_22 
REMARK    8  A    between atoms: C_22  and  C_23 
REMARK    9  A    between atoms: C_22  and  N_26 
ROOT
HETATM    1  C   UNK N   1      34.609  15.454   5.663  0.00  0.00     0.044 C 
HETATM    2  C   UNK N   1      33.612  15.462   4.498  0.00  0.00     0.280 C 
HETATM    3  N   UNK N   1      32.501  16.367   4.767  0.00  0.00     0.098 N 
HETATM    4  C   UNK N   1      31.776  16.549   3.491  0.00  0.00     0.278 C 
HETATM    5  C   UNK N   1      30.238  16.643   3.609  0.00  0.00     0.069 C 
HETATM    6  C   UNK N   1      29.818  17.165   4.945  0.00  0.00    -0.045 A 
HETATM    7  C   UNK N   1      28.773  18.079   5.058  0.00  0.00     0.047 A 
HETATM    8  C   UNK N   1      28.391  18.580   6.308  0.00  0.00     0.102 A 
HETATM    9  C   UNK N   1      29.092  18.147   7.470  0.00  0.00     0.102 A 
HETATM   10  C   UNK N   1      30.153  17.227   7.335  0.00  0.00     0.049 A 
HETATM   11  C   UNK N   1      30.508  16.734   6.074  0.00  0.00    -0.016 A 
HETATM   12  C   UNK N   1      31.655  15.790   5.836  0.00  0.00     0.259 C 
HETATM   13  C   UNK N   1      32.457  15.413   7.108  0.00  0.00     0.073 C 
HETATM   14  C   UNK N   1      33.924  15.850   6.985  0.00  0.00     0.140 C 
ENDROOT
BRANCH  14  15
HETATM   15  O   UNK N   1      34.706  15.635   8.111  0.00  0.00    -0.314 OA
BRANCH  15  16
HETATM   16  C   UNK N   1      34.567  16.266   9.310  0.00  0.00     0.281 C 
HETATM   17  O   UNK N   1      34.642  17.485   9.391  0.00  0.00    -0.263 OA
BRANCH  16  18
HETATM   18  C   UNK N   1      34.376  15.436  10.549  0.00  0.00     0.178 C 
BRANCH  18  19
HETATM   19  C   UNK N   1      35.305  14.214  10.605  0.00  0.00     0.009 C 
HETATM   20  C   UNK N   1      35.111  13.456  11.907  0.00  0.00     0.012 C 
HETATM   21  C   UNK N   1      36.769  14.599  10.484  0.00  0.00     0.012 C 
ENDBRANCH  18  19
BRANCH  18  22
HETATM   22  N   UNK N   1      32.988  15.011  10.630  0.00  0.00    -0.418 N 
HETATM   23  H   UNK N   1      32.603  14.326   9.979  0.00  0.00     0.150 HD
HETATM   24  H   UNK N   1      32.386  15.407  11.353  0.00  0.00     0.150 HD
ENDBRANCH  18  22
ENDBRANCH  16  18
ENDBRANCH  15  16
ENDBRANCH  14  15
BRANCH   1  25
HETATM   25  C   UNK N   1      35.346  14.119   5.731  0.00  0.00     0.012 C 
BRANCH  25  26
HETATM   26  C   UNK N   1      36.851  14.311   5.631  0.00  0.00    -0.022 C 
HETATM   27  C   UNK N   1      37.395  13.571   4.426  0.00  0.00     0.009 C 
HETATM   28  C   UNK N   1      37.511  13.773   6.882  0.00  0.00     0.009 C 
ENDBRANCH  25  26
ENDBRANCH   1  25
BRANCH   9  29
HETATM   29  O   UNK N   1      28.747  18.619   8.695  0.00  0.00    -0.353 OA
HETATM   30  C   UNK N   1      29.565  18.539   9.799  0.00  0.00     0.210 C 
ENDBRANCH   9  29
BRANCH   8  31
HETATM   31  O   UNK N   1      27.359  19.465   6.337  0.00  0.00    -0.353 OA
HETATM   32  C   UNK N   1      27.374  20.733   5.803  0.00  0.00     0.210 C 
ENDBRANCH   8  31
TORSDOF 9
ENDMDL
MODEL 8
REMARK VINA RESULT:      -6.3      5.715      9.165
REMARK  9 active torsions:
REMARK  status: ('A' for Active; 'I' for Inactive)
REMARK    1  A    between atoms: C_2  and  C_4 
REMARK    2  A    between atoms: C_5  and  C_4 
REMARK    3  A    between atoms: C_12  and  O_29 
REMARK    4  A    between atoms: C_13  and  O_27 
REMARK    5  A    between atoms: C_18  and  O_19 
REMARK    6  A    between atoms: O_19  and  C_20 
REMARK    7  A    between atoms: C_20  and  C_22 
REMARK    8  A    between atoms: C_22  and  C_23 
REMARK    9  A    between atoms: C_22  and  N_26 
ROOT
HETATM    1  C   UNK N   1      31.156  16.278   7.752  0.00  0.00     0.044 C 
HETATM    2  C   UNK N   1      30.510  17.650   7.978  0.00  0.00     0.280 C 
HETATM    3  N   UNK N   1      29.223  17.742   7.298  0.00  0.00     0.098 N 
HETATM    4  C   UNK N   1      28.545  18.948   7.820  0.00  0.00     0.278 C 
HETATM    5  C   UNK N   1      27.732  19.753   6.782  0.00  0.00     0.069 C 
HETATM    6  C   UNK N   1      27.253  18.887   5.662  0.00  0.00    -0.045 A 
HETATM    7  C   UNK N   1      25.971  19.037   5.140  0.00  0.00     0.047 A 
HETATM    8  C   UNK N   1      25.518  18.214   4.103  0.00  0.00     0.102 A 
HETATM    9  C   UNK N   1      26.386  17.210   3.587  0.00  0.00     0.102 A 
HETATM   10  C   UNK N   1      27.679  17.067   4.134  0.00  0.00     0.049 A 
HETATM   11  C   UNK N   1      28.110  17.910   5.165  0.00  0.00    -0.016 A 
HETATM   12  C   UNK N   1      29.452  17.793   5.836  0.00  0.00     0.259 C 
HETATM   13  C   UNK N   1      30.336  16.630   5.318  0.00  0.00     0.073 C 
HETATM   14  C   UNK N   1      30.656  15.637   6.444  0.00  0.00     0.140 C 
ENDROOT
BRANCH  14  15
HETATM   15  O   UNK N   1      31.370  14.511   6.060  0.00  0.00    -0.314 OA
BRANCH  15  16
HETATM   16  C   UNK N   1      31.075  13.701   5.005  0.00  0.00     0.281 C 
HETATM   17  O   UNK N   1      30.021  13.081   4.965  0.00  0.00    -0.263 OA
BRANCH  16  18
HETATM   18  C   UNK N   1      32.093  13.533   3.911  0.00  0.00     0.178 C 
BRANCH  18  19
HETATM   19  C   UNK N   1      33.234  14.559   3.988  0.00  0.00     0.009 C 
HETATM   20  C   UNK N   1      33.086  15.604   2.895  0.00  0.00     0.012 C 
HETATM   21  C   UNK N   1      34.601  13.911   3.853  0.00  0.00     0.012 C 
ENDBRANCH  18  19
BRANCH  18  22
HETATM   22  N   UNK N   1      31.428  13.624   2.622  0.00  0.00    -0.418 N 
HETATM   23  H   UNK N   1      30.434  13.846   2.551  0.00  0.00     0.150 HD
HETATM   24  H   UNK N   1      31.965  13.462   1.770  0.00  0.00     0.150 HD
ENDBRANCH  18  22
ENDBRANCH  16  18
ENDBRANCH  15  16
ENDBRANCH  14  15
BRANCH   1  25
HETATM   25  C   UNK N   1      32.676  16.378   7.843  0.00  0.00     0.012 C 
BRANCH  25  26
HETATM   26  C   UNK N   1      33.175  17.720   7.330  0.00  0.00    -0.022 C 
HETATM   27  C   UNK N   1      33.733  17.570   5.929  0.00  0.00     0.009 C 
HETATM   28  C   UNK N   1      34.265  18.235   8.244  0.00  0.00     0.009 C 
ENDBRANCH  25  26
ENDBRANCH   1  25
BRANCH   9  29
HETATM   29  O   UNK N   1      25.973  16.395   2.584  0.00  0.00    -0.353 OA
HETATM   30  C   UNK N   1      26.679  15.290   2.163  0.00  0.00     0.210 C 
ENDBRANCH   9  29
BRANCH   8  31
HETATM   31  O   UNK N   1      24.256  18.426   3.644  0.00  0.00    -0.353 OA
HETATM   32  C   UNK N   1      23.652  19.654   3.494  0.00  0.00     0.210 C 
ENDBRANCH   8  31
TORSDOF 9
ENDMDL
MODEL 9
REMARK VINA RESULT:      -6.3      2.720      8.138
REMARK  9 active torsions:
REMARK  status: ('A' for Active; 'I' for Inactive)
REMARK    1  A    between atoms: C_2  and  C_4 
REMARK    2  A    between atoms: C_5  and  C_4 
REMARK    3  A    between atoms: C_12  and  O_29 
REMARK    4  A    between atoms: C_13  and  O_27 
REMARK    5  A    between atoms: C_18  and  O_19 
REMARK    6  A    between atoms: O_19  and  C_20 
REMARK    7  A    between atoms: C_20  and  C_22 
REMARK    8  A    between atoms: C_22  and  C_23 
REMARK    9  A    between atoms: C_22  and  N_26 
ROOT
HETATM    1  C   UNK N   1      28.294  17.215   6.155  0.00  0.00     0.044 C 
HETATM    2  C   UNK N   1      28.393  18.376   5.158  0.00  0.00     0.280 C 
HETATM    3  N   UNK N   1      27.077  18.935   4.872  0.00  0.00     0.098 N 
HETATM    4  C   UNK N   1      27.297  20.218   4.170  0.00  0.00     0.278 C 
HETATM    5  C   UNK N   1      26.291  20.539   3.043  0.00  0.00     0.069 C 
HETATM    6  C   UNK N   1      24.972  19.874   3.273  0.00  0.00    -0.045 A 
HETATM    7  C   UNK N   1      23.779  20.545   3.015  0.00  0.00     0.047 A 
HETATM    8  C   UNK N   1      22.545  19.927   3.247  0.00  0.00     0.102 A 
HETATM    9  C   UNK N   1      22.522  18.598   3.759  0.00  0.00     0.102 A 
HETATM   10  C   UNK N   1      23.741  17.938   4.022  0.00  0.00     0.049 A 
HETATM   11  C   UNK N   1      24.961  18.575   3.772  0.00  0.00    -0.016 A 
HETATM   12  C   UNK N   1      26.303  17.961   4.069  0.00  0.00     0.259 C 
HETATM   13  C   UNK N   1      26.242  16.554   4.714  0.00  0.00     0.073 C 
HETATM   14  C   UNK N   1      26.904  16.553   6.100  0.00  0.00     0.140 C 
ENDROOT
BRANCH  14  15
HETATM   15  O   UNK N   1      26.822  15.357   6.798  0.00  0.00    -0.314 OA
BRANCH  15  16
HETATM   16  C   UNK N   1      25.900  14.375   6.593  0.00  0.00     0.281 C 
HETATM   17  O   UNK N   1      26.152  13.417   5.876  0.00  0.00    -0.263 OA
BRANCH  16  18
HETATM   18  C   UNK N   1      24.540  14.515   7.217  0.00  0.00     0.178 C 
BRANCH  18  19
HETATM   19  C   UNK N   1      24.156  13.318   8.101  0.00  0.00     0.009 C 
HETATM   20  C   UNK N   1      22.679  13.365   8.451  0.00  0.00     0.012 C 
HETATM   21  C   UNK N   1      24.957  13.275   9.390  0.00  0.00     0.012 C 
ENDBRANCH  18  19
BRANCH  18  22
HETATM   22  N   UNK N   1      23.550  14.697   6.169  0.00  0.00    -0.418 N 
HETATM   23  H   UNK N   1      22.898  13.953   5.917  0.00  0.00     0.150 HD
HETATM   24  H   UNK N   1      23.506  15.588   5.673  0.00  0.00     0.150 HD
ENDBRANCH  18  22
ENDBRANCH  16  18
ENDBRANCH  15  16
ENDBRANCH  14  15
BRANCH   1  25
HETATM   25  C   UNK N   1      29.447  16.237   5.956  0.00  0.00     0.012 C 
BRANCH  25  26
HETATM   26  C   UNK N   1      30.525  16.429   7.011  0.00  0.00    -0.022 C 
HETATM   27  C   UNK N   1      29.997  17.277   8.151  0.00  0.00     0.009 C 
HETATM   28  C   UNK N   1      31.718  17.123   6.390  0.00  0.00     0.009 C 
ENDBRANCH  25  26
ENDBRANCH   1  25
BRANCH   9  29
HETATM   29  O   UNK N   1      21.340  17.976   3.998  0.00  0.00    -0.353 OA
HETATM   30  C   UNK N   1      21.035  17.354   5.188  0.00  0.00     0.210 C 
ENDBRANCH   9  29
BRANCH   8  31
HETATM   31  O   UNK N   1      21.425  20.646   2.967  0.00  0.00    -0.353 OA
HETATM   32  C   UNK N   1      20.758  20.654   1.763  0.00  0.00     0.210 C 
ENDBRANCH   8  31
TORSDOF 9
ENDMDL
