REMARK  10 active torsions:
REMARK  status: ('A' for Active; 'I' for Inactive)
REMARK    1  A    between atoms: C_5  and  N_21 
REMARK    2  A    between atoms: C_7  and  N_10 
REMARK    3  A    between atoms: N_21  and  N_22 
REMARK       I    between atoms: N_22  and  C_23 
REMARK    4  A    between atoms: C_25  and  C_23 
REMARK    5  A    between atoms: C_25  and  C_26 
REMARK    6  A    between atoms: C_25  and  C_32 
REMARK    7  A    between atoms: C_26  and  C_27 
REMARK    8  A    between atoms: C_32  and  N_33 
REMARK    9  A    between atoms: N_33  and  C_34 
REMARK   10  A    between atoms: N_33  and  O_36 
ROOT
HETATM    1  C   UNK N   1      -0.279  -7.651  -0.034  0.00  0.00     0.089 C 
HETATM    2  C   UNK N   1       0.958  -6.827  -0.023  0.00  0.00     0.080 A 
HETATM    3  N   UNK N   1       0.865  -5.466  -0.044  0.00  0.00    -0.329 N 
ATOM      4  HN  UNK N   1      -0.054  -5.024  -0.072  1.00  0.00     0.168 HD
HETATM    5  C   UNK N   1       1.983  -4.695  -0.027  0.00  0.00     0.164 A 
HETATM    6  C   UNK N   1       3.243  -5.316   0.003  0.00  0.00     0.205 A 
HETATM    7  C   UNK N   1       3.331  -6.713   0.060  0.00  0.00     0.148 A 
HETATM    8  N   UNK N   1       2.177  -7.438   0.039  0.00  0.00    -0.330 N 
ATOM      9  HN  UNK N   1       2.226  -8.456   0.069  1.00  0.00     0.168 HD
HETATM   10  F   UNK N   1       4.370  -4.569  -0.023  0.00  0.00    -0.198 F 
ENDROOT
BRANCH   5  11
HETATM   11  N   UNK N   1       1.886  -3.271  -0.008  0.00  0.00    -0.280 N 
HETATM   12  H   UNK N   1       1.034  -2.815  -0.194  0.00  0.00     0.188 HD
BRANCH  11  13
HETATM   13  N   UNK N   1       3.027  -2.562   0.279  0.00  0.00    -0.268 N 
HETATM   14  C   UNK N   1       3.277  -1.285  -0.066  0.00  0.00     0.241 C 
HETATM   15  O   UNK N   1       2.416  -0.589  -0.584  0.00  0.00    -0.271 OA
HETATM   16  H   UNK N   1       3.729  -3.033   0.785  0.00  0.00     0.190 HD
BRANCH  14  17
HETATM   17  C   UNK N   1       4.695  -0.809   0.120  0.00  0.00     0.100 C 
BRANCH  17  18
HETATM   18  C   UNK N   1       4.939   0.654  -0.249  0.00  0.00     0.020 C 
BRANCH  18  19
HETATM   19  C   UNK N   1       6.282   1.136   0.302  0.00  0.00    -0.014 C 
HETATM   20  C   UNK N   1       6.425   2.632   0.193  0.00  0.00     0.005 C 
HETATM   21  C   UNK N   1       7.924   2.873   0.263  0.00  0.00     0.000 C 
HETATM   22  C   UNK N   1       8.591   1.562  -0.127  0.00  0.00     0.000 C 
HETATM   23  C   UNK N   1       7.465   0.616  -0.479  0.00  0.00     0.005 C 
ENDBRANCH  18  19
ENDBRANCH  17  18
BRANCH  17  24
HETATM   24  C   UNK N   1       5.581  -1.741  -0.716  0.00  0.00     0.172 C 
BRANCH  24  25
HETATM   25  N   UNK N   1       6.560  -2.429   0.090  0.00  0.00    -0.235 N 
BRANCH  25  26
HETATM   26  C   UNK N   1       7.828  -2.542  -0.363  0.00  0.00     0.376 C 
HETATM   27  O   UNK N   1       8.662  -3.171   0.269  0.00  0.00    -0.281 OA
ENDBRANCH  25  26
BRANCH  25  28
HETATM   28  O   UNK N   1       6.192  -3.043   1.225  0.00  0.00    -0.285 OA
HETATM   29  H   UNK N   1       5.674  -3.035   2.045  0.00  0.00     0.245 HD
ENDBRANCH  25  28
ENDBRANCH  24  25
ENDBRANCH  17  24
ENDBRANCH  14  17
ENDBRANCH  11  13
ENDBRANCH   5  11
BRANCH   7  30
HETATM   30  N   UNK N   1       4.606  -7.365   0.192  0.00  0.00    -0.361 N 
HETATM   31  C   UNK N   1       5.788  -6.589   0.534  0.00  0.00     0.154 C 
HETATM   32  C   UNK N   1       7.001  -7.139  -0.185  0.00  0.00     0.293 C 
HETATM   33  N   UNK N   1       7.149  -8.523   0.226  0.00  0.00     0.100 N 
HETATM   34  C   UNK N   1       8.414  -9.030  -0.296  0.00  0.00     0.299 C 
HETATM   35  C   UNK N   1       6.022  -9.298  -0.320  0.00  0.00     0.264 C 
HETATM   36  C   UNK N   1       8.509 -10.516   0.043  0.00  0.00     0.198 C 
HETATM   37  O   UNK N   1       7.457 -11.204  -0.593  0.00  0.00    -0.387 OA
HETATM   38  C   UNK N   1       6.253 -10.776   0.003  0.00  0.00     0.205 C 
HETATM   39  C   UNK N   1       4.697  -8.810   0.295  0.00  0.00     0.162 C 
ENDBRANCH   7  30
TORSDOF 10
