MODEL 1
REMARK VINA RESULT:     -10.3      0.000      0.000
REMARK  2 active torsions:
REMARK  status: ('A' for Active; 'I' for Inactive)
REMARK    1  A    between atoms: C_10  and  C_11 
REMARK    2  A    between atoms: C_12  and  C_18 
REMARK       I    between atoms: N_28  and  C_31 
REMARK       I    between atoms: C_31  and  N_33 
ROOT
HETATM    1  C   UNK N   1      24.995  18.566   4.408  0.00  0.00     0.009 A 
HETATM    2  C   UNK N   1      25.125  17.175   4.404  0.00  0.00     0.104 A 
HETATM    3  N   UNK N   1      26.170  16.827   5.175  0.00  0.00    -0.353 N 
HETATM    4  C   UNK N   1      26.686  17.952   5.687  0.00  0.00     0.053 A 
HETATM    5  C   UNK N   1      25.995  19.045   5.240  0.00  0.00     0.007 A 
HETATM    6  C   UNK N   1      26.373  20.336   5.604  0.00  0.00     0.057 A 
HETATM    7  C   UNK N   1      27.490  20.482   6.453  0.00  0.00     0.117 A 
HETATM    8  C   UNK N   1      28.187  19.343   6.925  0.00  0.00     0.053 A 
HETATM    9  C   UNK N   1      27.780  18.055   6.538  0.00  0.00    -0.009 A 
HETATM   10  C   UNK N   1      28.480  16.826   7.039  0.00  0.00     0.168 C 
HETATM   11  N   UNK N   1      29.052  16.059   5.942  0.00  0.00    -0.328 N 
HETATM   12  C   UNK N   1      28.163  15.429   4.963  0.00  0.00     0.148 C 
HETATM   13  C   UNK N   1      26.680  15.477   5.357  0.00  0.00     0.148 C 
HETATM   14  C   UNK N   1      30.415  15.911   5.788  0.00  0.00     0.320 C 
HETATM   15  O   UNK N   1      30.830  15.354   4.776  0.00  0.00    -0.247 OA
HETATM   16  N   UNK N   1      31.337  16.343   6.719  0.00  0.00    -0.334 N 
HETATM   17  C   UNK N   1      32.753  16.200   6.452  0.00  0.00     0.127 C 
HETATM   18  C   UNK N   1      33.433  17.562   6.598  0.00  0.00     0.020 C 
HETATM   19  C   UNK N   1      33.125  18.159   7.972  0.00  0.00     0.003 C 
HETATM   20  C   UNK N   1      31.617  18.271   8.177  0.00  0.00     0.020 C 
HETATM   21  C   UNK N   1      30.982  16.897   8.013  0.00  0.00     0.127 C 
HETATM   22  F   UNK N   1      27.902  21.720   6.812  0.00  0.00    -0.206 F 
ENDROOT
BRANCH   1  23
HETATM   23  C   UNK N   1      23.949  19.313   3.662  0.00  0.00     0.062 A 
HETATM   24  C   UNK N   1      22.613  19.212   3.827  0.00  0.00     0.077 A 
HETATM   25  C   UNK N   1      22.020  20.266   2.993  0.00  0.00     0.261 A 
HETATM   26  N   UNK N   1      22.976  20.937   2.327  0.00  0.00    -0.289 N 
HETATM   27  O   UNK N   1      20.829  20.509   2.882  0.00  0.00    -0.267 OA
HETATM   28  C   UNK N   1      24.155  20.398   2.687  0.00  0.00     0.260 A 
HETATM   29  H   UNK N   1      22.840  21.681   1.697  0.00  0.00     0.172 HD
HETATM   30  O   UNK N   1      25.230  20.817   2.290  0.00  0.00    -0.267 OA
BRANCH  24  31
HETATM   31  C   UNK N   1      21.862  18.252   4.678  0.00  0.00     0.072 A 
HETATM   32  C   UNK N   1      21.782  18.296   6.062  0.00  0.00     0.121 A 
HETATM   33  N   UNK N   1      21.039  17.238   6.480  0.00  0.00    -0.350 N 
HETATM   34  C   UNK N   1      20.666  16.603   5.352  0.00  0.00     0.111 A 
ATOM     35  HN  UNK N   1      20.813  16.980   7.441  1.00  0.00     0.166 HD
HETATM   36  N   UNK N   1      21.130  17.203   4.248  0.00  0.00    -0.306 N 
HETATM   37  C   UNK N   1      19.877  15.457   5.278  0.00  0.00     0.049 A 
HETATM   38  C   UNK N   1      20.818  16.777   2.995  0.00  0.00     0.099 A 
HETATM   39  C   UNK N   1      20.029  15.628   2.852  0.00  0.00     0.018 A 
HETATM   40  C   UNK N   1      19.569  14.960   4.002  0.00  0.00     0.005 A 
ENDBRANCH  24  31
ENDBRANCH   1  23
TORSDOF 2
ENDMDL
MODEL 2
REMARK VINA RESULT:     -10.2      2.925      8.728
REMARK  2 active torsions:
REMARK  status: ('A' for Active; 'I' for Inactive)
REMARK    1  A    between atoms: C_10  and  C_11 
REMARK    2  A    between atoms: C_12  and  C_18 
REMARK       I    between atoms: N_28  and  C_31 
REMARK       I    between atoms: C_31  and  N_33 
ROOT
HETATM    1  C   UNK N   1      27.255  15.221   5.521  0.00  0.00     0.009 A 
HETATM    2  C   UNK N   1      26.341  14.965   6.546  0.00  0.00     0.104 A 
HETATM    3  N   UNK N   1      25.109  14.849   6.020  0.00  0.00    -0.353 N 
HETATM    4  C   UNK N   1      25.221  14.995   4.694  0.00  0.00     0.053 A 
HETATM    5  C   UNK N   1      26.523  15.227   4.344  0.00  0.00     0.007 A 
HETATM    6  C   UNK N   1      26.884  15.456   3.018  0.00  0.00     0.057 A 
HETATM    7  C   UNK N   1      25.864  15.436   2.043  0.00  0.00     0.117 A 
HETATM    8  C   UNK N   1      24.522  15.176   2.413  0.00  0.00     0.053 A 
HETATM    9  C   UNK N   1      24.192  14.951   3.761  0.00  0.00    -0.009 A 
HETATM   10  C   UNK N   1      22.785  14.648   4.186  0.00  0.00     0.168 C 
HETATM   11  N   UNK N   1      22.282  15.657   5.107  0.00  0.00    -0.328 N 
HETATM   12  C   UNK N   1      22.893  15.792   6.431  0.00  0.00     0.148 C 
HETATM   13  C   UNK N   1      23.878  14.665   6.772  0.00  0.00     0.148 C 
HETATM   14  C   UNK N   1      21.245  16.502   4.768  0.00  0.00     0.320 C 
HETATM   15  O   UNK N   1      20.952  17.406   5.545  0.00  0.00    -0.247 OA
HETATM   16  N   UNK N   1      20.510  16.376   3.607  0.00  0.00    -0.334 N 
HETATM   17  C   UNK N   1      19.475  17.342   3.300  0.00  0.00     0.127 C 
HETATM   18  C   UNK N   1      19.730  17.929   1.911  0.00  0.00     0.020 C 
HETATM   19  C   UNK N   1      19.845  16.805   0.879  0.00  0.00     0.003 C 
HETATM   20  C   UNK N   1      20.950  15.831   1.278  0.00  0.00     0.020 C 
HETATM   21  C   UNK N   1      20.661  15.281   2.667  0.00  0.00     0.127 C 
HETATM   22  F   UNK N   1      26.170  15.674   0.746  0.00  0.00    -0.206 F 
ENDROOT
BRANCH   1  23
HETATM   23  C   UNK N   1      28.715  15.411   5.726  0.00  0.00     0.062 A 
HETATM   24  C   UNK N   1      29.312  16.422   6.390  0.00  0.00     0.077 A 
HETATM   25  C   UNK N   1      30.737  16.074   6.467  0.00  0.00     0.261 A 
HETATM   26  N   UNK N   1      30.975  14.913   5.830  0.00  0.00    -0.289 N 
HETATM   27  O   UNK N   1      31.610  16.734   7.006  0.00  0.00    -0.267 OA
HETATM   28  C   UNK N   1      29.793  14.476   5.358  0.00  0.00     0.260 A 
HETATM   29  H   UNK N   1      31.847  14.468   5.728  0.00  0.00     0.172 HD
HETATM   30  O   UNK N   1      29.660  13.417   4.767  0.00  0.00    -0.267 OA
BRANCH  24  31
HETATM   31  C   UNK N   1      28.685  17.648   6.955  0.00  0.00     0.072 A 
HETATM   32  C   UNK N   1      28.506  17.911   8.305  0.00  0.00     0.121 A 
HETATM   33  N   UNK N   1      27.872  19.106   8.425  0.00  0.00    -0.350 N 
HETATM   34  C   UNK N   1      27.711  19.547   7.163  0.00  0.00     0.111 A 
ATOM     35  HN  UNK N   1      27.579  19.568   9.286  1.00  0.00     0.166 HD
HETATM   36  N   UNK N   1      28.211  18.699   6.255  0.00  0.00    -0.306 N 
HETATM   37  C   UNK N   1      27.114  20.748   6.783  0.00  0.00     0.049 A 
HETATM   38  C   UNK N   1      28.224  18.973   4.922  0.00  0.00     0.099 A 
HETATM   39  C   UNK N   1      27.636  20.163   4.475  0.00  0.00     0.018 A 
HETATM   40  C   UNK N   1      27.068  21.047   5.412  0.00  0.00     0.005 A 
ENDBRANCH  24  31
ENDBRANCH   1  23
TORSDOF 2
ENDMDL
MODEL 3
REMARK VINA RESULT:      -9.9      2.693      9.380
REMARK  2 active torsions:
REMARK  status: ('A' for Active; 'I' for Inactive)
REMARK    1  A    between atoms: C_10  and  C_11 
REMARK    2  A    between atoms: C_12  and  C_18 
REMARK       I    between atoms: N_28  and  C_31 
REMARK       I    between atoms: C_31  and  N_33 
ROOT
HETATM    1  C   UNK N   1      29.956  16.837   6.243  0.00  0.00     0.009 A 
HETATM    2  C   UNK N   1      29.507  15.523   6.083  0.00  0.00     0.104 A 
HETATM    3  N   UNK N   1      28.270  15.540   5.556  0.00  0.00    -0.353 N 
HETATM    4  C   UNK N   1      27.936  16.820   5.352  0.00  0.00     0.053 A 
HETATM    5  C   UNK N   1      28.942  17.651   5.761  0.00  0.00     0.007 A 
HETATM    6  C   UNK N   1      28.809  19.036   5.689  0.00  0.00     0.057 A 
HETATM    7  C   UNK N   1      27.603  19.557   5.175  0.00  0.00     0.117 A 
HETATM    8  C   UNK N   1      26.574  18.688   4.737  0.00  0.00     0.053 A 
HETATM    9  C   UNK N   1      26.741  17.296   4.824  0.00  0.00    -0.009 A 
HETATM   10  C   UNK N   1      25.682  16.345   4.346  0.00  0.00     0.168 C 
HETATM   11  N   UNK N   1      25.194  15.508   5.432  0.00  0.00    -0.328 N 
HETATM   12  C   UNK N   1      26.097  14.541   6.059  0.00  0.00     0.148 C 
HETATM   13  C   UNK N   1      27.431  14.375   5.319  0.00  0.00     0.148 C 
HETATM   14  C   UNK N   1      23.899  15.602   5.899  0.00  0.00     0.320 C 
HETATM   15  O   UNK N   1      23.589  14.952   6.894  0.00  0.00    -0.247 OA
HETATM   16  N   UNK N   1      22.927  16.376   5.297  0.00  0.00    -0.334 N 
HETATM   17  C   UNK N   1      21.607  16.463   5.887  0.00  0.00     0.127 C 
HETATM   18  C   UNK N   1      21.251  17.933   6.108  0.00  0.00     0.020 C 
HETATM   19  C   UNK N   1      21.390  18.711   4.799  0.00  0.00     0.003 C 
HETATM   20  C   UNK N   1      22.803  18.564   4.242  0.00  0.00     0.020 C 
HETATM   21  C   UNK N   1      23.118  17.088   4.047  0.00  0.00     0.127 C 
HETATM   22  F   UNK N   1      27.426  20.897   5.108  0.00  0.00    -0.206 F 
ENDROOT
BRANCH   1  23
HETATM   23  C   UNK N   1      31.282  17.208   6.801  0.00  0.00     0.062 A 
HETATM   24  C   UNK N   1      32.461  17.213   6.145  0.00  0.00     0.077 A 
HETATM   25  C   UNK N   1      33.436  17.815   7.065  0.00  0.00     0.261 A 
HETATM   26  N   UNK N   1      32.854  18.115   8.240  0.00  0.00    -0.289 N 
HETATM   27  O   UNK N   1      34.618  18.009   6.832  0.00  0.00    -0.267 OA
HETATM   28  C   UNK N   1      31.560  17.762   8.138  0.00  0.00     0.260 A 
HETATM   29  H   UNK N   1      33.292  18.516   9.025  0.00  0.00     0.172 HD
HETATM   30  O   UNK N   1      30.745  17.948   9.026  0.00  0.00    -0.267 OA
BRANCH  24  31
HETATM   31  C   UNK N   1      32.749  16.729   4.768  0.00  0.00     0.072 A 
HETATM   32  C   UNK N   1      32.293  17.316   3.597  0.00  0.00     0.121 A 
HETATM   33  N   UNK N   1      32.733  16.573   2.549  0.00  0.00    -0.350 N 
HETATM   34  C   UNK N   1      33.461  15.583   3.100  0.00  0.00     0.111 A 
ATOM     35  HN  UNK N   1      32.551  16.730   1.558  1.00  0.00     0.166 HD
HETATM   36  N   UNK N   1      33.507  15.663   4.437  0.00  0.00    -0.306 N 
HETATM   37  C   UNK N   1      34.127  14.571   2.411  0.00  0.00     0.049 A 
HETATM   38  C   UNK N   1      34.244  14.810   5.199  0.00  0.00     0.099 A 
HETATM   39  C   UNK N   1      34.934  13.769   4.566  0.00  0.00     0.018 A 
HETATM   40  C   UNK N   1      34.863  13.645   3.166  0.00  0.00     0.005 A 
ENDBRANCH  24  31
ENDBRANCH   1  23
TORSDOF 2
ENDMDL
MODEL 4
REMARK VINA RESULT:      -9.5      2.466      3.483
REMARK  2 active torsions:
REMARK  status: ('A' for Active; 'I' for Inactive)
REMARK    1  A    between atoms: C_10  and  C_11 
REMARK    2  A    between atoms: C_12  and  C_18 
REMARK       I    between atoms: N_28  and  C_31 
REMARK       I    between atoms: C_31  and  N_33 
ROOT
HETATM    1  C   UNK N   1      24.415  18.692   4.246  0.00  0.00     0.009 A 
HETATM    2  C   UNK N   1      24.918  19.615   5.167  0.00  0.00     0.104 A 
HETATM    3  N   UNK N   1      26.240  19.418   5.311  0.00  0.00    -0.353 N 
HETATM    4  C   UNK N   1      26.592  18.420   4.490  0.00  0.00     0.053 A 
HETATM    5  C   UNK N   1      25.500  17.944   3.818  0.00  0.00     0.007 A 
HETATM    6  C   UNK N   1      25.608  16.871   2.934  0.00  0.00     0.057 A 
HETATM    7  C   UNK N   1      26.881  16.293   2.751  0.00  0.00     0.117 A 
HETATM    8  C   UNK N   1      28.009  16.805   3.438  0.00  0.00     0.053 A 
HETATM    9  C   UNK N   1      27.865  17.887   4.322  0.00  0.00    -0.009 A 
HETATM   10  C   UNK N   1      29.042  18.472   5.048  0.00  0.00     0.168 C 
HETATM   11  N   UNK N   1      28.881  18.361   6.490  0.00  0.00    -0.328 N 
HETATM   12  C   UNK N   1      27.812  19.109   7.156  0.00  0.00     0.148 C 
HETATM   13  C   UNK N   1      27.108  20.121   6.242  0.00  0.00     0.148 C 
HETATM   14  C   UNK N   1      29.705  17.562   7.256  0.00  0.00     0.320 C 
HETATM   15  O   UNK N   1      29.439  17.422   8.447  0.00  0.00    -0.247 OA
HETATM   16  N   UNK N   1      30.823  16.923   6.759  0.00  0.00    -0.334 N 
HETATM   17  C   UNK N   1      31.600  16.056   7.619  0.00  0.00     0.127 C 
HETATM   18  C   UNK N   1      31.731  14.681   6.962  0.00  0.00     0.020 C 
HETATM   19  C   UNK N   1      32.307  14.824   5.553  0.00  0.00     0.003 C 
HETATM   20  C   UNK N   1      31.436  15.755   4.715  0.00  0.00     0.020 C 
HETATM   21  C   UNK N   1      31.325  17.105   5.409  0.00  0.00     0.127 C 
HETATM   22  F   UNK N   1      27.024  15.236   1.917  0.00  0.00    -0.206 F 
ENDROOT
BRANCH   1  23
HETATM   23  C   UNK N   1      22.989  18.609   3.836  0.00  0.00     0.062 A 
HETATM   24  C   UNK N   1      22.088  17.686   4.233  0.00  0.00     0.077 A 
HETATM   25  C   UNK N   1      20.792  18.128   3.699  0.00  0.00     0.261 A 
HETATM   26  N   UNK N   1      20.936  19.252   2.975  0.00  0.00    -0.289 N 
HETATM   27  O   UNK N   1      19.721  17.563   3.854  0.00  0.00    -0.267 OA
HETATM   28  C   UNK N   1      22.241  19.580   3.018  0.00  0.00     0.260 A 
HETATM   29  H   UNK N   1      20.225  19.742   2.504  0.00  0.00     0.172 HD
HETATM   30  O   UNK N   1      22.695  20.584   2.494  0.00  0.00    -0.267 OA
BRANCH  24  31
HETATM   31  C   UNK N   1      22.320  16.468   5.054  0.00  0.00     0.072 A 
HETATM   32  C   UNK N   1      23.123  15.397   4.694  0.00  0.00     0.121 A 
HETATM   33  N   UNK N   1      23.058  14.465   5.680  0.00  0.00    -0.350 N 
HETATM   34  C   UNK N   1      22.250  15.000   6.616  0.00  0.00     0.111 A 
ATOM     35  HN  UNK N   1      23.519  13.556   5.706  1.00  0.00     0.166 HD
HETATM   36  N   UNK N   1      21.807  16.217   6.276  0.00  0.00    -0.306 N 
HETATM   37  C   UNK N   1      21.893  14.410   7.827  0.00  0.00     0.049 A 
HETATM   38  C   UNK N   1      21.036  16.976   7.102  0.00  0.00     0.099 A 
HETATM   39  C   UNK N   1      20.640  16.437   8.333  0.00  0.00     0.018 A 
HETATM   40  C   UNK N   1      21.062  15.143   8.688  0.00  0.00     0.005 A 
ENDBRANCH  24  31
ENDBRANCH   1  23
TORSDOF 2
ENDMDL
MODEL 5
REMARK VINA RESULT:      -9.4      1.583      2.089
REMARK  2 active torsions:
REMARK  status: ('A' for Active; 'I' for Inactive)
REMARK    1  A    between atoms: C_10  and  C_11 
REMARK    2  A    between atoms: C_12  and  C_18 
REMARK       I    between atoms: N_28  and  C_31 
REMARK       I    between atoms: C_31  and  N_33 
ROOT
HETATM    1  C   UNK N   1      26.234  18.150   3.922  0.00  0.00     0.009 A 
HETATM    2  C   UNK N   1      26.800  17.101   3.192  0.00  0.00     0.104 A 
HETATM    3  N   UNK N   1      27.829  16.585   3.887  0.00  0.00    -0.353 N 
HETATM    4  C   UNK N   1      27.912  17.254   5.043  0.00  0.00     0.053 A 
HETATM    5  C   UNK N   1      26.951  18.227   5.105  0.00  0.00     0.007 A 
HETATM    6  C   UNK N   1      26.865  19.087   6.198  0.00  0.00     0.057 A 
HETATM    7  C   UNK N   1      27.797  18.921   7.244  0.00  0.00     0.117 A 
HETATM    8  C   UNK N   1      28.776  17.900   7.179  0.00  0.00     0.053 A 
HETATM    9  C   UNK N   1      28.836  17.050   6.061  0.00  0.00    -0.009 A 
HETATM   10  C   UNK N   1      29.844  15.942   5.969  0.00  0.00     0.168 C 
HETATM   11  N   UNK N   1      30.725  16.121   4.825  0.00  0.00    -0.328 N 
HETATM   12  C   UNK N   1      30.173  16.036   3.471  0.00  0.00     0.148 C 
HETATM   13  C   UNK N   1      28.724  15.534   3.427  0.00  0.00     0.148 C 
HETATM   14  C   UNK N   1      32.072  16.378   4.975  0.00  0.00     0.320 C 
HETATM   15  O   UNK N   1      32.731  16.637   3.972  0.00  0.00    -0.247 OA
HETATM   16  N   UNK N   1      32.722  16.345   6.192  0.00  0.00    -0.334 N 
HETATM   17  C   UNK N   1      34.128  16.685   6.268  0.00  0.00     0.127 C 
HETATM   18  C   UNK N   1      34.323  17.792   7.305  0.00  0.00     0.020 C 
HETATM   19  C   UNK N   1      33.720  17.369   8.645  0.00  0.00     0.003 C 
HETATM   20  C   UNK N   1      32.243  17.023   8.478  0.00  0.00     0.020 C 
HETATM   21  C   UNK N   1      32.096  15.928   7.433  0.00  0.00     0.127 C 
HETATM   22  F   UNK N   1      27.760  19.750   8.314  0.00  0.00    -0.206 F 
ENDROOT
BRANCH   1  23
HETATM   23  C   UNK N   1      25.075  18.959   3.465  0.00  0.00     0.062 A 
HETATM   24  C   UNK N   1      23.769  18.649   3.603  0.00  0.00     0.077 A 
HETATM   25  C   UNK N   1      23.020  19.831   3.155  0.00  0.00     0.261 A 
HETATM   26  N   UNK N   1      23.861  20.790   2.727  0.00  0.00    -0.289 N 
HETATM   27  O   UNK N   1      21.806  19.949   3.141  0.00  0.00    -0.267 OA
HETATM   28  C   UNK N   1      25.110  20.313   2.883  0.00  0.00     0.260 A 
HETATM   29  H   UNK N   1      23.612  21.671   2.368  0.00  0.00     0.172 HD
HETATM   30  O   UNK N   1      26.110  20.964   2.629  0.00  0.00    -0.267 OA
BRANCH  24  31
HETATM   31  C   UNK N   1      23.173  17.385   4.113  0.00  0.00     0.072 A 
HETATM   32  C   UNK N   1      23.412  16.119   3.600  0.00  0.00     0.121 A 
HETATM   33  N   UNK N   1      22.666  15.227   4.303  0.00  0.00    -0.350 N 
HETATM   34  C   UNK N   1      22.026  15.961   5.234  0.00  0.00     0.111 A 
ATOM     35  HN  UNK N   1      22.604  14.220   4.157  1.00  0.00     0.166 HD
HETATM   36  N   UNK N   1      22.328  17.263   5.158  0.00  0.00    -0.306 N 
HETATM   37  C   UNK N   1      21.148  15.475   6.201  0.00  0.00     0.049 A 
HETATM   38  C   UNK N   1      21.853  18.181   6.043  0.00  0.00     0.099 A 
HETATM   39  C   UNK N   1      20.964  17.756   7.038  0.00  0.00     0.018 A 
HETATM   40  C   UNK N   1      20.602  16.398   7.107  0.00  0.00     0.005 A 
ENDBRANCH  24  31
ENDBRANCH   1  23
TORSDOF 2
ENDMDL
MODEL 6
REMARK VINA RESULT:      -9.1      8.048     13.805
REMARK  2 active torsions:
REMARK  status: ('A' for Active; 'I' for Inactive)
REMARK    1  A    between atoms: C_10  and  C_11 
REMARK    2  A    between atoms: C_12  and  C_18 
REMARK       I    between atoms: N_28  and  C_31 
REMARK       I    between atoms: C_31  and  N_33 
ROOT
HETATM    1  C   UNK N   1      35.811  12.438  10.176  0.00  0.00     0.009 A 
HETATM    2  C   UNK N   1      35.649  13.721  10.704  0.00  0.00     0.104 A 
HETATM    3  N   UNK N   1      34.746  14.391   9.966  0.00  0.00    -0.353 N 
HETATM    4  C   UNK N   1      34.312  13.562   9.008  0.00  0.00     0.053 A 
HETATM    5  C   UNK N   1      34.943  12.351   9.100  0.00  0.00     0.007 A 
HETATM    6  C   UNK N   1      34.689  11.334   8.181  0.00  0.00     0.057 A 
HETATM    7  C   UNK N   1      33.756  11.591   7.154  0.00  0.00     0.117 A 
HETATM    8  C   UNK N   1      33.095  12.840   7.079  0.00  0.00     0.053 A 
HETATM    9  C   UNK N   1      33.375  13.845   8.021  0.00  0.00    -0.009 A 
HETATM   10  C   UNK N   1      32.676  15.172   7.988  0.00  0.00     0.168 C 
HETATM   11  N   UNK N   1      33.620  16.263   7.796  0.00  0.00    -0.328 N 
HETATM   12  C   UNK N   1      34.606  16.554   8.840  0.00  0.00     0.148 C 
HETATM   13  C   UNK N   1      34.366  15.783  10.145  0.00  0.00     0.148 C 
HETATM   14  C   UNK N   1      33.623  17.033   6.651  0.00  0.00     0.320 C 
HETATM   15  O   UNK N   1      34.522  17.856   6.504  0.00  0.00    -0.247 OA
HETATM   16  N   UNK N   1      32.659  16.937   5.668  0.00  0.00    -0.334 N 
HETATM   17  C   UNK N   1      32.770  17.742   4.469  0.00  0.00     0.127 C 
HETATM   18  C   UNK N   1      32.710  16.831   3.243  0.00  0.00     0.020 C 
HETATM   19  C   UNK N   1      31.446  15.970   3.289  0.00  0.00     0.003 C 
HETATM   20  C   UNK N   1      31.404  15.159   4.581  0.00  0.00     0.020 C 
HETATM   21  C   UNK N   1      31.476  16.103   5.772  0.00  0.00     0.127 C 
HETATM   22  F   UNK N   1      33.497  10.636   6.229  0.00  0.00    -0.206 F 
ENDROOT
BRANCH   1  23
HETATM   23  C   UNK N   1      36.733  11.413  10.732  0.00  0.00     0.062 A 
HETATM   24  C   UNK N   1      36.607  10.768  11.910  0.00  0.00     0.077 A 
HETATM   25  C   UNK N   1      37.659   9.741  11.926  0.00  0.00     0.261 A 
HETATM   26  N   UNK N   1      38.406   9.811  10.809  0.00  0.00    -0.289 N 
HETATM   27  O   UNK N   1      37.865   8.939  12.822  0.00  0.00    -0.267 OA
HETATM   28  C   UNK N   1      37.897  10.807  10.060  0.00  0.00     0.260 A 
HETATM   29  H   UNK N   1      39.177   9.243  10.583  0.00  0.00     0.172 HD
HETATM   30  O   UNK N   1      38.324  11.096   8.955  0.00  0.00    -0.267 OA
BRANCH  24  31
HETATM   31  C   UNK N   1      35.613  11.009  12.989  0.00  0.00     0.072 A 
HETATM   32  C   UNK N   1      34.382  10.379  13.104  0.00  0.00     0.121 A 
HETATM   33  N   UNK N   1      33.745  10.886  14.192  0.00  0.00    -0.350 N 
HETATM   34  C   UNK N   1      34.606  11.776  14.721  0.00  0.00     0.111 A 
ATOM     35  HN  UNK N   1      32.815  10.644  14.534  1.00  0.00     0.166 HD
HETATM   36  N   UNK N   1      35.750  11.857  14.029  0.00  0.00    -0.306 N 
HETATM   37  C   UNK N   1      34.393  12.545  15.864  0.00  0.00     0.049 A 
HETATM   38  C   UNK N   1      36.792  12.640  14.421  0.00  0.00     0.099 A 
HETATM   39  C   UNK N   1      36.640  13.440  15.561  0.00  0.00     0.018 A 
HETATM   40  C   UNK N   1      35.429  13.398  16.276  0.00  0.00     0.005 A 
ENDBRANCH  24  31
ENDBRANCH   1  23
TORSDOF 2
ENDMDL
MODEL 7
REMARK VINA RESULT:      -9.0      2.836      4.711
REMARK  2 active torsions:
REMARK  status: ('A' for Active; 'I' for Inactive)
REMARK    1  A    between atoms: C_10  and  C_11 
REMARK    2  A    between atoms: C_12  and  C_18 
REMARK       I    between atoms: N_28  and  C_31 
REMARK       I    between atoms: C_31  and  N_33 
ROOT
HETATM    1  C   UNK N   1      22.369  16.964   5.597  0.00  0.00     0.009 A 
HETATM    2  C   UNK N   1      22.881  18.208   5.220  0.00  0.00     0.104 A 
HETATM    3  N   UNK N   1      24.182  18.074   4.908  0.00  0.00    -0.353 N 
HETATM    4  C   UNK N   1      24.500  16.781   5.049  0.00  0.00     0.053 A 
HETATM    5  C   UNK N   1      23.415  16.063   5.473  0.00  0.00     0.007 A 
HETATM    6  C   UNK N   1      23.511  14.698   5.734  0.00  0.00     0.057 A 
HETATM    7  C   UNK N   1      24.762  14.075   5.542  0.00  0.00     0.117 A 
HETATM    8  C   UNK N   1      25.874  14.823   5.086  0.00  0.00     0.053 A 
HETATM    9  C   UNK N   1      25.744  16.199   4.833  0.00  0.00    -0.009 A 
HETATM   10  C   UNK N   1      26.894  17.018   4.325  0.00  0.00     0.168 C 
HETATM   11  N   UNK N   1      27.241  18.080   5.259  0.00  0.00    -0.328 N 
HETATM   12  C   UNK N   1      26.286  19.162   5.507  0.00  0.00     0.148 C 
HETATM   13  C   UNK N   1      25.086  19.155   4.550  0.00  0.00     0.148 C 
HETATM   14  C   UNK N   1      28.446  18.095   5.930  0.00  0.00     0.320 C 
HETATM   15  O   UNK N   1      28.624  18.953   6.791  0.00  0.00    -0.247 OA
HETATM   16  N   UNK N   1      29.471  17.206   5.675  0.00  0.00    -0.334 N 
HETATM   17  C   UNK N   1      30.683  17.256   6.466  0.00  0.00     0.127 C 
HETATM   18  C   UNK N   1      30.951  15.874   7.063  0.00  0.00     0.020 C 
HETATM   19  C   UNK N   1      30.985  14.820   5.955  0.00  0.00     0.003 C 
HETATM   20  C   UNK N   1      29.678  14.836   5.168  0.00  0.00     0.020 C 
HETATM   21  C   UNK N   1      29.447  16.230   4.602  0.00  0.00     0.127 C 
HETATM   22  F   UNK N   1      24.901  12.754   5.804  0.00  0.00    -0.206 F 
ENDROOT
BRANCH   1  23
HETATM   23  C   UNK N   1      20.962  16.727   6.011  0.00  0.00     0.062 A 
HETATM   24  C   UNK N   1      19.918  16.449   5.202  0.00  0.00     0.077 A 
HETATM   25  C   UNK N   1      18.790  16.130   6.088  0.00  0.00     0.261 A 
HETATM   26  N   UNK N   1      19.150  16.258   7.378  0.00  0.00    -0.289 N 
HETATM   27  O   UNK N   1      17.667  15.811   5.734  0.00  0.00    -0.267 OA
HETATM   28  C   UNK N   1      20.445  16.624   7.388  0.00  0.00     0.260 A 
HETATM   29  H   UNK N   1      18.577  16.112   8.164  0.00  0.00     0.172 HD
HETATM   30  O   UNK N   1      21.088  16.779   8.413  0.00  0.00    -0.267 OA
BRANCH  24  31
HETATM   31  C   UNK N   1      19.883  16.444   3.715  0.00  0.00     0.072 A 
HETATM   32  C   UNK N   1      19.793  17.569   2.909  0.00  0.00     0.121 A 
HETATM   33  N   UNK N   1      19.753  17.162   1.613  0.00  0.00    -0.350 N 
HETATM   34  C   UNK N   1      19.850  15.819   1.663  0.00  0.00     0.111 A 
ATOM     35  HN  UNK N   1      19.668  17.747   0.782  1.00  0.00     0.166 HD
HETATM   36  N   UNK N   1      19.951  15.359   2.917  0.00  0.00    -0.306 N 
HETATM   37  C   UNK N   1      19.863  14.956   0.570  0.00  0.00     0.049 A 
HETATM   38  C   UNK N   1      20.131  14.041   3.203  0.00  0.00     0.099 A 
HETATM   39  C   UNK N   1      20.150  13.120   2.146  0.00  0.00     0.018 A 
HETATM   40  C   UNK N   1      20.003  13.583   0.826  0.00  0.00     0.005 A 
ENDBRANCH  24  31
ENDBRANCH   1  23
TORSDOF 2
ENDMDL
MODEL 8
REMARK VINA RESULT:      -8.9      2.987      4.483
REMARK  2 active torsions:
REMARK  status: ('A' for Active; 'I' for Inactive)
REMARK    1  A    between atoms: C_10  and  C_11 
REMARK    2  A    between atoms: C_12  and  C_18 
REMARK       I    between atoms: N_28  and  C_31 
REMARK       I    between atoms: C_31  and  N_33 
ROOT
HETATM    1  C   UNK N   1      23.257  17.227   3.993  0.00  0.00     0.009 A 
HETATM    2  C   UNK N   1      23.812  18.318   4.668  0.00  0.00     0.104 A 
HETATM    3  N   UNK N   1      25.150  18.279   4.543  0.00  0.00    -0.353 N 
HETATM    4  C   UNK N   1      25.455  17.216   3.788  0.00  0.00     0.053 A 
HETATM    5  C   UNK N   1      24.321  16.540   3.430  0.00  0.00     0.007 A 
HETATM    6  C   UNK N   1      24.387  15.369   2.677  0.00  0.00     0.057 A 
HETATM    7  C   UNK N   1      25.661  14.904   2.290  0.00  0.00     0.117 A 
HETATM    8  C   UNK N   1      26.828  15.621   2.650  0.00  0.00     0.053 A 
HETATM    9  C   UNK N   1      26.726  16.798   3.411  0.00  0.00    -0.009 A 
HETATM   10  C   UNK N   1      27.939  17.598   3.790  0.00  0.00     0.168 C 
HETATM   11  N   UNK N   1      28.089  17.678   5.235  0.00  0.00    -0.328 N 
HETATM   12  C   UNK N   1      27.089  18.400   6.025  0.00  0.00     0.148 C 
HETATM   13  C   UNK N   1      26.089  19.194   5.173  0.00  0.00     0.148 C 
HETATM   14  C   UNK N   1      29.148  17.085   5.892  0.00  0.00     0.320 C 
HETATM   15  O   UNK N   1      29.148  17.090   7.120  0.00  0.00    -0.247 OA
HETATM   16  N   UNK N   1      30.215  16.500   5.241  0.00  0.00    -0.334 N 
HETATM   17  C   UNK N   1      31.257  15.848   6.008  0.00  0.00     0.127 C 
HETATM   18  C   UNK N   1      31.430  14.415   5.505  0.00  0.00     0.020 C 
HETATM   19  C   UNK N   1      31.686  14.414   3.997  0.00  0.00     0.003 C 
HETATM   20  C   UNK N   1      30.549  15.121   3.266  0.00  0.00     0.020 C 
HETATM   21  C   UNK N   1      30.407  16.537   3.803  0.00  0.00     0.127 C 
HETATM   22  F   UNK N   1      25.769  13.759   1.576  0.00  0.00    -0.206 F 
ENDROOT
BRANCH   1  23
HETATM   23  C   UNK N   1      21.801  16.940   3.917  0.00  0.00     0.062 A 
HETATM   24  C   UNK N   1      21.121  16.018   4.630  0.00  0.00     0.077 A 
HETATM   25  C   UNK N   1      19.700  16.237   4.327  0.00  0.00     0.261 A 
HETATM   26  N   UNK N   1      19.554  17.229   3.431  0.00  0.00    -0.289 N 
HETATM   27  O   UNK N   1      18.762  15.609   4.791  0.00  0.00    -0.267 OA
HETATM   28  C   UNK N   1      20.788  17.681   3.143  0.00  0.00     0.260 A 
HETATM   29  H   UNK N   1      18.707  17.561   3.056  0.00  0.00     0.172 HD
HETATM   30  O   UNK N   1      20.998  18.618   2.391  0.00  0.00    -0.267 OA
BRANCH  24  31
HETATM   31  C   UNK N   1      21.664  14.987   5.553  0.00  0.00     0.072 A 
HETATM   32  C   UNK N   1      22.495  13.938   5.189  0.00  0.00     0.121 A 
HETATM   33  N   UNK N   1      22.750  13.192   6.295  0.00  0.00    -0.350 N 
HETATM   34  C   UNK N   1      22.100  13.815   7.297  0.00  0.00     0.111 A 
ATOM     35  HN  UNK N   1      23.311  12.343   6.354  1.00  0.00     0.166 HD
HETATM   36  N   UNK N   1      21.453  14.913   6.884  0.00  0.00    -0.306 N 
HETATM   37  C   UNK N   1      22.079  13.420   8.633  0.00  0.00     0.049 A 
HETATM   38  C   UNK N   1      20.789  15.739   7.737  0.00  0.00     0.099 A 
HETATM   39  C   UNK N   1      20.728  15.395   9.094  0.00  0.00     0.018 A 
HETATM   40  C   UNK N   1      21.367  14.222   9.538  0.00  0.00     0.005 A 
ENDBRANCH  24  31
ENDBRANCH   1  23
TORSDOF 2
ENDMDL
MODEL 9
REMARK VINA RESULT:      -8.6     11.630     13.595
REMARK  2 active torsions:
REMARK  status: ('A' for Active; 'I' for Inactive)
REMARK    1  A    between atoms: C_10  and  C_11 
REMARK    2  A    between atoms: C_12  and  C_18 
REMARK       I    between atoms: N_28  and  C_31 
REMARK       I    between atoms: C_31  and  N_33 
ROOT
HETATM    1  C   UNK N   1      30.616  22.794  -4.529  0.00  0.00     0.009 A 
HETATM    2  C   UNK N   1      31.930  23.240  -4.366  0.00  0.00     0.104 A 
HETATM    3  N   UNK N   1      32.745  22.503  -5.141  0.00  0.00    -0.353 N 
HETATM    4  C   UNK N   1      31.985  21.628  -5.810  0.00  0.00     0.053 A 
HETATM    5  C   UNK N   1      30.669  21.771  -5.462  0.00  0.00     0.007 A 
HETATM    6  C   UNK N   1      29.687  20.938  -5.995  0.00  0.00     0.057 A 
HETATM    7  C   UNK N   1      30.091  19.943  -6.911  0.00  0.00     0.117 A 
HETATM    8  C   UNK N   1      31.453  19.815  -7.278  0.00  0.00     0.053 A 
HETATM    9  C   UNK N   1      32.418  20.671  -6.721  0.00  0.00    -0.009 A 
HETATM   10  C   UNK N   1      33.866  20.581  -7.106  0.00  0.00     0.168 C 
HETATM   11  N   UNK N   1      34.701  20.268  -5.955  0.00  0.00    -0.328 N 
HETATM   12  C   UNK N   1      34.818  21.239  -4.865  0.00  0.00     0.148 C 
HETATM   13  C   UNK N   1      34.196  22.604  -5.187  0.00  0.00     0.148 C 
HETATM   14  C   UNK N   1      35.384  19.074  -5.853  0.00  0.00     0.320 C 
HETATM   15  O   UNK N   1      35.972  18.826  -4.804  0.00  0.00    -0.247 OA
HETATM   16  N   UNK N   1      35.455  18.149  -6.875  0.00  0.00    -0.334 N 
HETATM   17  C   UNK N   1      36.147  16.894  -6.664  0.00  0.00     0.127 C 
HETATM   18  C   UNK N   1      35.206  15.737  -7.005  0.00  0.00     0.020 C 
HETATM   19  C   UNK N   1      34.658  15.905  -8.423  0.00  0.00     0.003 C 
HETATM   20  C   UNK N   1      33.953  17.251  -8.564  0.00  0.00     0.020 C 
HETATM   21  C   UNK N   1      34.920  18.369  -8.206  0.00  0.00     0.127 C 
HETATM   22  F   UNK N   1      29.171  19.101  -7.436  0.00  0.00    -0.206 F 
ENDROOT
BRANCH   1  23
HETATM   23  C   UNK N   1      29.441  23.372  -3.827  0.00  0.00     0.062 A 
HETATM   24  C   UNK N   1      28.372  23.967  -4.396  0.00  0.00     0.077 A 
HETATM   25  C   UNK N   1      27.414  24.210  -3.309  0.00  0.00     0.261 A 
HETATM   26  N   UNK N   1      27.925  23.810  -2.130  0.00  0.00    -0.289 N 
HETATM   27  O   UNK N   1      26.313  24.722  -3.423  0.00  0.00    -0.267 OA
HETATM   28  C   UNK N   1      29.147  23.306  -2.384  0.00  0.00     0.260 A 
HETATM   29  H   UNK N   1      27.489  23.873  -1.251  0.00  0.00     0.172 HD
HETATM   30  O   UNK N   1      29.857  22.813  -1.524  0.00  0.00    -0.267 OA
BRANCH  24  31
HETATM   31  C   UNK N   1      28.165  24.308  -5.829  0.00  0.00     0.072 A 
HETATM   32  C   UNK N   1      28.924  25.210  -6.559  0.00  0.00     0.121 A 
HETATM   33  N   UNK N   1      28.412  25.279  -7.815  0.00  0.00    -0.350 N 
HETATM   34  C   UNK N   1      27.387  24.405  -7.826  0.00  0.00     0.111 A 
ATOM     35  HN  UNK N   1      28.734  25.866  -8.585  1.00  0.00     0.166 HD
HETATM   36  N   UNK N   1      27.227  23.788  -6.648  0.00  0.00    -0.306 N 
HETATM   37  C   UNK N   1      26.562  24.120  -8.912  0.00  0.00     0.049 A 
HETATM   38  C   UNK N   1      26.299  22.812  -6.450  0.00  0.00     0.099 A 
HETATM   39  C   UNK N   1      25.436  22.483  -7.502  0.00  0.00     0.018 A 
HETATM   40  C   UNK N   1      25.563  23.150  -8.734  0.00  0.00     0.005 A 
ENDBRANCH  24  31
ENDBRANCH   1  23
TORSDOF 2
ENDMDL
