MODEL 1
REMARK VINA RESULT:      -7.0      0.000      0.000
REMARK  15 active torsions:
REMARK  status: ('A' for Active; 'I' for Inactive)
REMARK    1  A    between atoms: C_3  and  C_4 
REMARK    2  A    between atoms: C_4  and  C_5 
REMARK    3  A    between atoms: C_5  and  C_7 
REMARK    4  A    between atoms: C_9  and  C_7 
REMARK    5  A    between atoms: C_13  and  C_84 
REMARK    6  A    between atoms: C_21  and  C_78 
REMARK    7  A    between atoms: C_25  and  C_75 
REMARK    8  A    between atoms: C_29  and  C_70 
REMARK    9  A    between atoms: C_41  and  C_63 
REMARK   10  A    between atoms: C_45  and  C_58 
REMARK   11  A    between atoms: C_49  and  C_54 
REMARK   12  A    between atoms: C_58  and  C_59 
REMARK   13  A    between atoms: C_63  and  C_64 
REMARK   14  A    between atoms: C_70  and  C_71 
REMARK   15  A    between atoms: C_78  and  C_79 
ROOT
HETATM    1  C   UNK N   1      27.904  15.365   5.694  0.00  0.00     0.249 C 
HETATM    2  C   UNK N   1      29.199  14.967   5.066  0.00  0.00     0.248 C 
HETATM    3  O   UNK N   1      29.474  15.349   3.944  0.00  0.00    -0.271 OA
HETATM    4  N   UNK N   1      30.068  14.187   5.759  0.00  0.00    -0.345 N 
HETATM    5  C   UNK N   1      31.390  13.813   5.270  0.00  0.00     0.180 C 
HETATM    6  C   UNK N   1      31.393  13.576   3.755  0.00  0.00     0.243 C 
HETATM    7  O   UNK N   1      32.152  14.218   3.042  0.00  0.00    -0.271 OA
HETATM    8  N   UNK N   1      30.497  12.717   3.187  0.00  0.00    -0.346 N 
HETATM    9  C   UNK N   1      29.594  11.957   4.007  0.00  0.00     0.228 C 
HETATM   10  C   UNK N   1      30.307  10.747   4.531  0.00  0.00     0.238 C 
HETATM   11  O   UNK N   1      31.334  10.896   5.176  0.00  0.00    -0.272 OA
HETATM   12  N   UNK N   1      29.814   9.506   4.278  0.00  0.00    -0.342 N 
HETATM   13  C   UNK N   1      30.524   8.286   4.712  0.00  0.00     0.179 C 
HETATM   14  C   UNK N   1      29.670   7.048   4.556  0.00  0.00     0.241 C 
HETATM   15  O   UNK N   1      29.399   6.356   5.528  0.00  0.00    -0.271 OA
HETATM   16  N   UNK N   1      29.098   6.796   3.356  0.00  0.00    -0.346 N 
HETATM   17  C   UNK N   1      27.956   5.933   3.191  0.00  0.00     0.180 C 
HETATM   18  C   UNK N   1      26.869   6.091   4.228  0.00  0.00     0.243 C 
HETATM   19  O   UNK N   1      26.850   5.312   5.168  0.00  0.00    -0.271 OA
HETATM   20  N   UNK N   1      25.882   7.029   4.057  0.00  0.00    -0.341 N 
HETATM   21  C   UNK N   1      24.565   6.987   4.720  0.00  0.00     0.179 C 
HETATM   22  C   UNK N   1      23.546   6.721   3.639  0.00  0.00     0.241 C 
HETATM   23  O   UNK N   1      23.957   6.354   2.546  0.00  0.00    -0.271 OA
HETATM   24  N   UNK N   1      22.209   6.781   3.880  0.00  0.00    -0.346 N 
HETATM   25  C   UNK N   1      21.239   6.236   2.938  0.00  0.00     0.172 C 
HETATM   26  C   UNK N   1      21.608   6.464   1.483  0.00  0.00     0.240 C 
HETATM   27  O   UNK N   1      22.050   5.519   0.849  0.00  0.00    -0.271 OA
HETATM   28  N   UNK N   1      21.596   7.689   0.909  0.00  0.00    -0.346 N 
HETATM   29  C   UNK N   1      20.813   8.771   1.427  0.00  0.00     0.172 C 
HETATM   30  C   UNK N   1      21.294   9.845   2.355  0.00  0.00     0.242 C 
HETATM   31  O   UNK N   1      20.824   9.874   3.481  0.00  0.00    -0.271 OA
HETATM   32  N   UNK N   1      22.001  10.905   1.868  0.00  0.00    -0.341 N 
HETATM   33  C   UNK N   1      21.727  12.259   2.330  0.00  0.00     0.179 C 
HETATM   34  C   UNK N   1      21.899  12.690   3.781  0.00  0.00     0.243 C 
HETATM   35  O   UNK N   1      21.943  11.853   4.665  0.00  0.00    -0.271 OA
HETATM   36  N   UNK N   1      22.033  14.022   4.094  0.00  0.00    -0.341 N 
HETATM   37  C   UNK N   1      22.035  15.078   3.091  0.00  0.00     0.179 C 
HETATM   38  C   UNK N   1      23.038  14.851   1.951  0.00  0.00     0.243 C 
HETATM   39  O   UNK N   1      22.642  14.691   0.813  0.00  0.00    -0.271 OA
HETATM   40  N   UNK N   1      24.375  14.837   2.233  0.00  0.00    -0.341 N 
HETATM   41  C   UNK N   1      24.802  15.240   3.560  0.00  0.00     0.182 C 
HETATM   42  C   UNK N   1      26.271  15.234   3.865  0.00  0.00     0.243 C 
HETATM   43  O   UNK N   1      27.039  15.791   3.094  0.00  0.00    -0.271 OA
HETATM   44  N   UNK N   1      26.692  14.837   5.101  0.00  0.00    -0.335 N 
HETATM   45  C   UNK N   1      25.784  14.143   5.988  0.00  0.00     0.154 C 
HETATM   46  C   UNK N   1      25.331  14.530   1.183  0.00  0.00     0.153 C 
HETATM   47  C   UNK N   1      22.216  14.412   5.476  0.00  0.00     0.153 C 
HETATM   48  C   UNK N   1      22.655  10.798   0.584  0.00  0.00     0.153 C 
HETATM   49  C   UNK N   1      19.322   8.677   1.167  0.00  0.00     0.042 C 
HETATM   50  C   UNK N   1      19.816   6.580   3.332  0.00  0.00     0.042 C 
HETATM   51  C   UNK N   1      26.052   8.042   3.034  0.00  0.00     0.153 C 
HETATM   52  C   UNK N   1      28.592   9.427   3.504  0.00  0.00     0.153 C 
HETATM   53  C   UNK N   1      30.398  12.587   1.754  0.00  0.00     0.153 C 
HETATM   54  H   UNK N   1      29.788  13.855   6.642  0.00  0.00     0.163 HD
HETATM   55  H   UNK N   1      29.482   7.222   2.556  0.00  0.00     0.163 HD
HETATM   56  H   UNK N   1      21.888   7.202   4.710  0.00  0.00     0.163 HD
HETATM   57  H   UNK N   1      22.146   7.842   0.105  0.00  0.00     0.163 HD
ENDROOT
BRANCH   1  58
HETATM   58  C   UNK N   1      27.722  16.823   6.092  0.00  0.00     0.163 C 
HETATM   59  O   UNK N   1      26.689  17.104   6.678  0.00  0.00    -0.295 OA
BRANCH  58  60
HETATM   60  C   UNK N   1      28.674  17.975   5.773  0.00  0.00     0.057 C 
HETATM   61  C   UNK N   1      29.309  18.535   7.028  0.00  0.00     0.018 C 
BRANCH  60  62
HETATM   62  C   UNK N   1      28.187  19.134   4.924  0.00  0.00     0.038 C 
BRANCH  62  63
HETATM   63  C   UNK N   1      27.818  20.302   5.777  0.00  0.00    -0.030 C 
HETATM   64  C   UNK N   1      26.542  20.623   5.980  0.00  0.00    -0.035 C 
HETATM   65  C   UNK N   1      26.198  21.800   6.824  0.00  0.00     0.036 C 
ENDBRANCH  62  63
ENDBRANCH  60  62
ENDBRANCH  58  60
ENDBRANCH   1  58
BRANCH   5  66
HETATM   66  C   UNK N   1      32.418  14.850   5.745  0.00  0.00     0.009 C 
HETATM   67  C   UNK N   1      33.742  14.191   6.083  0.00  0.00     0.012 C 
HETATM   68  C   UNK N   1      31.924  15.583   6.981  0.00  0.00     0.012 C 
ENDBRANCH   5  66
BRANCH  41  69
HETATM   69  C   UNK N   1      24.238  16.653   3.836  0.00  0.00     0.009 C 
HETATM   70  C   UNK N   1      23.819  16.928   5.265  0.00  0.00     0.012 C 
HETATM   71  C   UNK N   1      24.976  17.799   3.160  0.00  0.00     0.012 C 
ENDBRANCH  41  69
BRANCH  37  72
HETATM   72  C   UNK N   1      20.647  15.633   2.777  0.00  0.00     0.039 C 
BRANCH  72  73
HETATM   73  C   UNK N   1      20.651  17.022   2.136  0.00  0.00    -0.020 C 
HETATM   74  C   UNK N   1      19.938  17.040   0.795  0.00  0.00     0.009 C 
HETATM   75  C   UNK N   1      20.091  18.086   3.058  0.00  0.00     0.009 C 
ENDBRANCH  72  73
ENDBRANCH  37  72
BRANCH  13  76
HETATM   76  C   UNK N   1      31.016   8.417   6.167  0.00  0.00     0.039 C 
BRANCH  76  77
HETATM   77  C   UNK N   1      32.413   7.839   6.392  0.00  0.00    -0.020 C 
HETATM   78  C   UNK N   1      33.267   7.924   5.145  0.00  0.00     0.009 C 
HETATM   79  C   UNK N   1      33.123   8.484   7.573  0.00  0.00     0.009 C 
ENDBRANCH  76  77
ENDBRANCH  13  76
BRANCH  33  80
HETATM   80  C   UNK N   1      20.589  12.911   1.511  0.00  0.00     0.039 C 
BRANCH  80  81
HETATM   81  C   UNK N   1      19.150  12.375   1.509  0.00  0.00    -0.020 C 
HETATM   82  C   UNK N   1      18.298  13.151   0.533  0.00  0.00     0.009 C 
HETATM   83  C   UNK N   1      18.437  12.313   2.834  0.00  0.00     0.009 C 
ENDBRANCH  80  81
ENDBRANCH  33  80
BRANCH  17  84
HETATM   84  C   UNK N   1      28.192   4.528   2.648  0.00  0.00     0.009 C 
HETATM   85  C   UNK N   1      29.473   4.439   1.842  0.00  0.00     0.012 C 
HETATM   86  C   UNK N   1      27.012   4.045   1.830  0.00  0.00     0.012 C 
ENDBRANCH  17  84
BRANCH  21  87
HETATM   87  C   UNK N   1      24.398   5.915   5.835  0.00  0.00     0.039 C 
BRANCH  87  88
HETATM   88  C   UNK N   1      23.991   6.374   7.266  0.00  0.00    -0.020 C 
HETATM   89  C   UNK N   1      24.993   5.933   8.312  0.00  0.00     0.009 C 
HETATM   90  C   UNK N   1      23.687   7.856   7.446  0.00  0.00     0.009 C 
ENDBRANCH  87  88
ENDBRANCH  21  87
TORSDOF 15
ENDMDL
MODEL 2
REMARK VINA RESULT:      -6.7      1.817      9.281
REMARK  15 active torsions:
REMARK  status: ('A' for Active; 'I' for Inactive)
REMARK    1  A    between atoms: C_3  and  C_4 
REMARK    2  A    between atoms: C_4  and  C_5 
REMARK    3  A    between atoms: C_5  and  C_7 
REMARK    4  A    between atoms: C_9  and  C_7 
REMARK    5  A    between atoms: C_13  and  C_84 
REMARK    6  A    between atoms: C_21  and  C_78 
REMARK    7  A    between atoms: C_25  and  C_75 
REMARK    8  A    between atoms: C_29  and  C_70 
REMARK    9  A    between atoms: C_41  and  C_63 
REMARK   10  A    between atoms: C_45  and  C_58 
REMARK   11  A    between atoms: C_49  and  C_54 
REMARK   12  A    between atoms: C_58  and  C_59 
REMARK   13  A    between atoms: C_63  and  C_64 
REMARK   14  A    between atoms: C_70  and  C_71 
REMARK   15  A    between atoms: C_78  and  C_79 
ROOT
HETATM    1  C   UNK N   1      20.687  10.196   2.849  0.00  0.00     0.249 C 
HETATM    2  C   UNK N   1      20.880   9.043   3.777  0.00  0.00     0.248 C 
HETATM    3  O   UNK N   1      20.541   9.137   4.943  0.00  0.00    -0.271 OA
HETATM    4  N   UNK N   1      21.423   7.890   3.310  0.00  0.00    -0.345 N 
HETATM    5  C   UNK N   1      21.576   6.681   4.112  0.00  0.00     0.180 C 
HETATM    6  C   UNK N   1      21.926   7.004   5.570  0.00  0.00     0.243 C 
HETATM    7  O   UNK N   1      21.209   6.592   6.471  0.00  0.00    -0.271 OA
HETATM    8  N   UNK N   1      22.982   7.817   5.865  0.00  0.00    -0.346 N 
HETATM    9  C   UNK N   1      23.833   8.316   4.820  0.00  0.00     0.228 C 
HETATM   10  C   UNK N   1      24.840   7.265   4.465  0.00  0.00     0.238 C 
HETATM   11  O   UNK N   1      24.449   6.163   4.109  0.00  0.00    -0.272 OA
HETATM   12  N   UNK N   1      26.169   7.542   4.548  0.00  0.00    -0.342 N 
HETATM   13  C   UNK N   1      27.193   6.513   4.278  0.00  0.00     0.179 C 
HETATM   14  C   UNK N   1      28.580   7.109   4.175  0.00  0.00     0.241 C 
HETATM   15  O   UNK N   1      29.233   6.985   3.148  0.00  0.00    -0.271 OA
HETATM   16  N   UNK N   1      29.029   7.895   5.181  0.00  0.00    -0.346 N 
HETATM   17  C   UNK N   1      30.103   8.842   5.023  0.00  0.00     0.180 C 
HETATM   18  C   UNK N   1      30.075   9.648   3.747  0.00  0.00     0.243 C 
HETATM   19  O   UNK N   1      30.767   9.276   2.812  0.00  0.00    -0.271 OA
HETATM   20  N   UNK N   1      29.358  10.817   3.683  0.00  0.00    -0.341 N 
HETATM   21  C   UNK N   1      29.597  11.893   2.703  0.00  0.00     0.179 C 
HETATM   22  C   UNK N   1      30.135  13.070   3.478  0.00  0.00     0.241 C 
HETATM   23  O   UNK N   1      30.502  12.876   4.629  0.00  0.00    -0.271 OA
HETATM   24  N   UNK N   1      30.313  14.291   2.903  0.00  0.00    -0.346 N 
HETATM   25  C   UNK N   1      31.104  15.330   3.549  0.00  0.00     0.172 C 
HETATM   26  C   UNK N   1      30.925  15.386   5.055  0.00  0.00     0.240 C 
HETATM   27  O   UNK N   1      31.814  14.931   5.756  0.00  0.00    -0.271 OA
HETATM   28  N   UNK N   1      29.773  15.788   5.641  0.00  0.00    -0.346 N 
HETATM   29  C   UNK N   1      28.822  16.623   4.968  0.00  0.00     0.172 C 
HETATM   30  C   UNK N   1      27.607  16.157   4.225  0.00  0.00     0.242 C 
HETATM   31  O   UNK N   1      27.580  16.331   3.017  0.00  0.00    -0.271 OA
HETATM   32  N   UNK N   1      26.473  15.823   4.906  0.00  0.00    -0.341 N 
HETATM   33  C   UNK N   1      25.164  16.245   4.426  0.00  0.00     0.179 C 
HETATM   34  C   UNK N   1      24.596  15.813   3.080  0.00  0.00     0.243 C 
HETATM   35  O   UNK N   1      25.337  15.382   2.215  0.00  0.00    -0.271 OA
HETATM   36  N   UNK N   1      23.242  15.879   2.848  0.00  0.00    -0.341 N 
HETATM   37  C   UNK N   1      22.287  16.340   3.846  0.00  0.00     0.179 C 
HETATM   38  C   UNK N   1      22.407  15.624   5.199  0.00  0.00     0.243 C 
HETATM   39  O   UNK N   1      22.729  16.248   6.193  0.00  0.00    -0.271 OA
HETATM   40  N   UNK N   1      22.146  14.285   5.270  0.00  0.00    -0.341 N 
HETATM   41  C   UNK N   1      21.566  13.636   4.109  0.00  0.00     0.182 C 
HETATM   42  C   UNK N   1      21.269  12.168   4.192  0.00  0.00     0.243 C 
HETATM   43  O   UNK N   1      20.638  11.743   5.150  0.00  0.00    -0.271 OA
HETATM   44  N   UNK N   1      21.480  11.383   3.095  0.00  0.00    -0.335 N 
HETATM   45  C   UNK N   1      22.263  11.884   1.987  0.00  0.00     0.154 C 
HETATM   46  C   UNK N   1      22.346  13.576   6.522  0.00  0.00     0.153 C 
HETATM   47  C   UNK N   1      22.718  15.445   1.571  0.00  0.00     0.153 C 
HETATM   48  C   UNK N   1      26.554  15.499   6.311  0.00  0.00     0.153 C 
HETATM   49  C   UNK N   1      29.218  18.080   4.834  0.00  0.00     0.042 C 
HETATM   50  C   UNK N   1      31.007  16.652   2.812  0.00  0.00     0.042 C 
HETATM   51  C   UNK N   1      28.414  11.115   4.742  0.00  0.00     0.153 C 
HETATM   52  C   UNK N   1      26.538   8.874   4.979  0.00  0.00     0.153 C 
HETATM   53  C   UNK N   1      23.239   8.238   7.221  0.00  0.00     0.153 C 
HETATM   54  H   UNK N   1      21.732   7.870   2.376  0.00  0.00     0.163 HD
HETATM   55  H   UNK N   1      28.601   7.815   6.064  0.00  0.00     0.163 HD
HETATM   56  H   UNK N   1      29.897  14.476   2.031  0.00  0.00     0.163 HD
HETATM   57  H   UNK N   1      29.581  15.497   6.562  0.00  0.00     0.163 HD
ENDROOT
BRANCH   1  58
HETATM   58  C   UNK N   1      19.263  10.568   2.457  0.00  0.00     0.163 C 
HETATM   59  O   UNK N   1      18.492  10.809   3.371  0.00  0.00    -0.295 OA
BRANCH  58  60
HETATM   60  C   UNK N   1      18.694  10.603   1.040  0.00  0.00     0.057 C 
HETATM   61  C   UNK N   1      17.587  11.628   0.912  0.00  0.00     0.018 C 
BRANCH  60  62
HETATM   62  C   UNK N   1      18.233   9.314   0.386  0.00  0.00     0.038 C 
BRANCH  62  63
HETATM   63  C   UNK N   1      19.396   8.529  -0.125  0.00  0.00    -0.030 C 
HETATM   64  C   UNK N   1      20.415   9.134  -0.730  0.00  0.00    -0.035 C 
HETATM   65  C   UNK N   1      21.557   8.330  -1.243  0.00  0.00     0.036 C 
ENDBRANCH  62  63
ENDBRANCH  60  62
ENDBRANCH  58  60
ENDBRANCH   1  58
BRANCH   5  66
HETATM   66  C   UNK N   1      20.329   5.801   3.946  0.00  0.00     0.009 C 
HETATM   67  C   UNK N   1      20.678   4.331   4.069  0.00  0.00     0.012 C 
HETATM   68  C   UNK N   1      19.681   6.023   2.589  0.00  0.00     0.012 C 
ENDBRANCH   5  66
BRANCH  41  69
HETATM   69  C   UNK N   1      20.269  14.390   3.736  0.00  0.00     0.009 C 
HETATM   70  C   UNK N   1      19.763  14.173   2.325  0.00  0.00     0.012 C 
HETATM   71  C   UNK N   1      19.184  14.401   4.804  0.00  0.00     0.012 C 
ENDBRANCH  41  69
BRANCH  37  72
HETATM   72  C   UNK N   1      22.032  17.846   3.808  0.00  0.00     0.039 C 
BRANCH  72  73
HETATM   73  C   UNK N   1      21.012  18.288   2.758  0.00  0.00    -0.020 C 
HETATM   74  C   UNK N   1      19.591  17.903   3.138  0.00  0.00     0.009 C 
HETATM   75  C   UNK N   1      21.104  19.769   2.450  0.00  0.00     0.009 C 
ENDBRANCH  72  73
ENDBRANCH  37  72
BRANCH  13  76
HETATM   76  C   UNK N   1      26.858   5.716   3.002  0.00  0.00     0.039 C 
BRANCH  76  77
HETATM   77  C   UNK N   1      27.099   4.213   3.143  0.00  0.00    -0.020 C 
HETATM   78  C   UNK N   1      27.032   3.762   4.587  0.00  0.00     0.009 C 
HETATM   79  C   UNK N   1      26.152   3.391   2.281  0.00  0.00     0.009 C 
ENDBRANCH  76  77
ENDBRANCH  13  76
BRANCH  33  80
HETATM   80  C   UNK N   1      24.807  17.658   4.942  0.00  0.00     0.039 C 
BRANCH  80  81
HETATM   81  C   UNK N   1      25.521  18.928   4.459  0.00  0.00    -0.020 C 
HETATM   82  C   UNK N   1      25.972  19.762   5.635  0.00  0.00     0.009 C 
HETATM   83  C   UNK N   1      24.774  19.813   3.495  0.00  0.00     0.009 C 
ENDBRANCH  80  81
ENDBRANCH  33  80
BRANCH  17  84
HETATM   84  C   UNK N   1      31.476   8.465   5.570  0.00  0.00     0.009 C 
HETATM   85  C   UNK N   1      31.379   7.479   6.716  0.00  0.00     0.012 C 
HETATM   86  C   UNK N   1      32.261   9.692   5.987  0.00  0.00     0.012 C 
ENDBRANCH  17  84
BRANCH  21  87
HETATM   87  C   UNK N   1      30.591  11.558   1.554  0.00  0.00     0.039 C 
BRANCH  87  88
HETATM   88  C   UNK N   1      30.029  11.283   0.129  0.00  0.00    -0.020 C 
HETATM   89  C   UNK N   1      31.089  10.745  -0.809  0.00  0.00     0.009 C 
HETATM   90  C   UNK N   1      28.785  10.406   0.043  0.00  0.00     0.009 C 
ENDBRANCH  87  88
ENDBRANCH  21  87
TORSDOF 15
ENDMDL
MODEL 3
REMARK VINA RESULT:      -6.6      2.982      5.718
REMARK  15 active torsions:
REMARK  status: ('A' for Active; 'I' for Inactive)
REMARK    1  A    between atoms: C_3  and  C_4 
REMARK    2  A    between atoms: C_4  and  C_5 
REMARK    3  A    between atoms: C_5  and  C_7 
REMARK    4  A    between atoms: C_9  and  C_7 
REMARK    5  A    between atoms: C_13  and  C_84 
REMARK    6  A    between atoms: C_21  and  C_78 
REMARK    7  A    between atoms: C_25  and  C_75 
REMARK    8  A    between atoms: C_29  and  C_70 
REMARK    9  A    between atoms: C_41  and  C_63 
REMARK   10  A    between atoms: C_45  and  C_58 
REMARK   11  A    between atoms: C_49  and  C_54 
REMARK   12  A    between atoms: C_58  and  C_59 
REMARK   13  A    between atoms: C_63  and  C_64 
REMARK   14  A    between atoms: C_70  and  C_71 
REMARK   15  A    between atoms: C_78  and  C_79 
ROOT
HETATM    1  C   UNK N   1      28.759  15.611   5.923  0.00  0.00     0.249 C 
HETATM    2  C   UNK N   1      30.216  15.927   5.873  0.00  0.00     0.248 C 
HETATM    3  O   UNK N   1      30.737  16.230   4.815  0.00  0.00    -0.271 OA
HETATM    4  N   UNK N   1      30.951  15.885   7.014  0.00  0.00    -0.345 N 
HETATM    5  C   UNK N   1      32.360  16.257   7.087  0.00  0.00     0.180 C 
HETATM    6  C   UNK N   1      33.124  15.846   5.823  0.00  0.00     0.243 C 
HETATM    7  O   UNK N   1      33.724  16.692   5.174  0.00  0.00    -0.271 OA
HETATM    8  N   UNK N   1      33.072  14.559   5.370  0.00  0.00    -0.346 N 
HETATM    9  C   UNK N   1      32.369  13.551   6.115  0.00  0.00     0.228 C 
HETATM   10  C   UNK N   1      33.254  13.047   7.214  0.00  0.00     0.238 C 
HETATM   11  O   UNK N   1      33.703  13.842   8.027  0.00  0.00    -0.272 OA
HETATM   12  N   UNK N   1      33.554  11.723   7.291  0.00  0.00    -0.342 N 
HETATM   13  C   UNK N   1      34.480  11.197   8.315  0.00  0.00     0.179 C 
HETATM   14  C   UNK N   1      34.457   9.686   8.375  0.00  0.00     0.241 C 
HETATM   15  O   UNK N   1      34.147   9.112   9.410  0.00  0.00    -0.271 OA
HETATM   16  N   UNK N   1      34.648   8.983   7.234  0.00  0.00    -0.346 N 
HETATM   17  C   UNK N   1      34.232   7.614   7.071  0.00  0.00     0.180 C 
HETATM   18  C   UNK N   1      32.869   7.279   7.630  0.00  0.00     0.243 C 
HETATM   19  O   UNK N   1      32.809   6.772   8.739  0.00  0.00    -0.271 OA
HETATM   20  N   UNK N   1      31.744   7.459   6.864  0.00  0.00    -0.341 N 
HETATM   21  C   UNK N   1      30.458   6.778   7.095  0.00  0.00     0.179 C 
HETATM   22  C   UNK N   1      30.257   5.829   5.939  0.00  0.00     0.241 C 
HETATM   23  O   UNK N   1      31.215   5.604   5.213  0.00  0.00    -0.271 OA
HETATM   24  N   UNK N   1      29.088   5.157   5.753  0.00  0.00    -0.346 N 
HETATM   25  C   UNK N   1      28.994   4.030   4.835  0.00  0.00     0.172 C 
HETATM   26  C   UNK N   1      29.803   4.211   3.562  0.00  0.00     0.240 C 
HETATM   27  O   UNK N   1      30.855   3.602   3.459  0.00  0.00    -0.271 OA
HETATM   28  N   UNK N   1      29.476   5.117   2.611  0.00  0.00    -0.346 N 
HETATM   29  C   UNK N   1      28.146   5.629   2.465  0.00  0.00     0.172 C 
HETATM   30  C   UNK N   1      27.623   6.908   3.045  0.00  0.00     0.242 C 
HETATM   31  O   UNK N   1      26.760   6.830   3.904  0.00  0.00    -0.271 OA
HETATM   32  N   UNK N   1      27.892   8.098   2.433  0.00  0.00    -0.341 N 
HETATM   33  C   UNK N   1      26.855   9.110   2.285  0.00  0.00     0.179 C 
HETATM   34  C   UNK N   1      26.163   9.768   3.472  0.00  0.00     0.243 C 
HETATM   35  O   UNK N   1      26.202   9.242   4.569  0.00  0.00    -0.271 OA
HETATM   36  N   UNK N   1      25.517  10.972   3.314  0.00  0.00    -0.341 N 
HETATM   37  C   UNK N   1      25.464  11.685   2.045  0.00  0.00     0.179 C 
HETATM   38  C   UNK N   1      26.838  11.901   1.395  0.00  0.00     0.243 C 
HETATM   39  O   UNK N   1      27.096  11.381   0.326  0.00  0.00    -0.271 OA
HETATM   40  N   UNK N   1      27.760  12.686   2.030  0.00  0.00    -0.341 N 
HETATM   41  C   UNK N   1      27.332  13.447   3.189  0.00  0.00     0.182 C 
HETATM   42  C   UNK N   1      28.342  14.316   3.879  0.00  0.00     0.243 C 
HETATM   43  O   UNK N   1      29.013  15.090   3.212  0.00  0.00    -0.271 OA
HETATM   44  N   UNK N   1      28.318  14.411   5.240  0.00  0.00    -0.335 N 
HETATM   45  C   UNK N   1      27.552  13.464   6.019  0.00  0.00     0.154 C 
HETATM   46  C   UNK N   1      29.095  12.823   1.475  0.00  0.00     0.153 C 
HETATM   47  C   UNK N   1      24.883  11.593   4.457  0.00  0.00     0.153 C 
HETATM   48  C   UNK N   1      29.001   8.193   1.514  0.00  0.00     0.153 C 
HETATM   49  C   UNK N   1      27.146   4.673   1.844  0.00  0.00     0.042 C 
HETATM   50  C   UNK N   1      27.563   3.563   4.659  0.00  0.00     0.042 C 
HETATM   51  C   UNK N   1      31.850   8.229   5.640  0.00  0.00     0.153 C 
HETATM   52  C   UNK N   1      32.977  10.857   6.285  0.00  0.00     0.153 C 
HETATM   53  C   UNK N   1      33.673  14.190   4.112  0.00  0.00     0.153 C 
HETATM   54  H   UNK N   1      30.506  15.586   7.839  0.00  0.00     0.163 HD
HETATM   55  H   UNK N   1      35.093   9.431   6.479  0.00  0.00     0.163 HD
HETATM   56  H   UNK N   1      28.287   5.439   6.251  0.00  0.00     0.163 HD
HETATM   57  H   UNK N   1      30.178   5.435   1.997  0.00  0.00     0.163 HD
ENDROOT
BRANCH   1  58
HETATM   58  C   UNK N   1      27.772  16.751   5.707  0.00  0.00     0.163 C 
HETATM   59  O   UNK N   1      26.633  16.569   6.105  0.00  0.00    -0.295 OA
BRANCH  58  60
HETATM   60  C   UNK N   1      28.054  18.066   4.984  0.00  0.00     0.057 C 
HETATM   61  C   UNK N   1      27.793  19.259   5.880  0.00  0.00     0.018 C 
BRANCH  60  62
HETATM   62  C   UNK N   1      27.413  18.332   3.635  0.00  0.00     0.038 C 
BRANCH  62  63
HETATM   63  C   UNK N   1      26.438  19.459   3.719  0.00  0.00    -0.030 C 
HETATM   64  C   UNK N   1      25.246  19.378   3.133  0.00  0.00    -0.035 C 
HETATM   65  C   UNK N   1      24.296  20.520   3.220  0.00  0.00     0.036 C 
ENDBRANCH  62  63
ENDBRANCH  60  62
ENDBRANCH  58  60
ENDBRANCH   1  58
BRANCH   5  66
HETATM   66  C   UNK N   1      32.473  17.749   7.432  0.00  0.00     0.009 C 
HETATM   67  C   UNK N   1      33.825  18.067   8.041  0.00  0.00     0.012 C 
HETATM   68  C   UNK N   1      31.397  18.164   8.421  0.00  0.00     0.012 C 
ENDBRANCH   5  66
BRANCH  41  69
HETATM   69  C   UNK N   1      26.124  14.316   2.772  0.00  0.00     0.009 C 
HETATM   70  C   UNK N   1      25.224  14.780   3.899  0.00  0.00     0.012 C 
HETATM   71  C   UNK N   1      26.407  15.372   1.713  0.00  0.00     0.012 C 
ENDBRANCH  41  69
BRANCH  37  72
HETATM   72  C   UNK N   1      24.268  11.306   1.174  0.00  0.00     0.039 C 
BRANCH  72  73
HETATM   73  C   UNK N   1      23.211  12.404   1.040  0.00  0.00    -0.020 C 
HETATM   74  C   UNK N   1      23.642  13.504   0.084  0.00  0.00     0.009 C 
HETATM   75  C   UNK N   1      21.853  11.855   0.651  0.00  0.00     0.009 C 
ENDBRANCH  72  73
ENDBRANCH  37  72
BRANCH  13  76
HETATM   76  C   UNK N   1      34.173  11.793   9.702  0.00  0.00     0.039 C 
BRANCH  76  77
HETATM   77  C   UNK N   1      35.425  12.147  10.503  0.00  0.00    -0.020 C 
HETATM   78  C   UNK N   1      36.583  12.525   9.604  0.00  0.00     0.009 C 
HETATM   79  C   UNK N   1      35.166  13.239  11.531  0.00  0.00     0.009 C 
ENDBRANCH  76  77
ENDBRANCH  13  76
BRANCH  33  80
HETATM   80  C   UNK N   1      26.025   8.878   1.001  0.00  0.00     0.039 C 
BRANCH  80  81
HETATM   81  C   UNK N   1      25.067   7.691   0.831  0.00  0.00    -0.020 C 
HETATM   82  C   UNK N   1      24.499   7.666  -0.569  0.00  0.00     0.009 C 
HETATM   83  C   UNK N   1      23.934   7.574   1.817  0.00  0.00     0.009 C 
ENDBRANCH  80  81
ENDBRANCH  33  80
BRANCH  17  84
HETATM   84  C   UNK N   1      35.298   6.527   7.155  0.00  0.00     0.009 C 
HETATM   85  C   UNK N   1      36.677   7.058   6.821  0.00  0.00     0.012 C 
HETATM   86  C   UNK N   1      34.953   5.344   6.273  0.00  0.00     0.012 C 
ENDBRANCH  17  84
BRANCH  21  87
HETATM   87  C   UNK N   1      30.342   5.974   8.423  0.00  0.00     0.039 C 
BRANCH  87  88
HETATM   88  C   UNK N   1      29.234   6.365   9.445  0.00  0.00    -0.020 C 
HETATM   89  C   UNK N   1      27.903   5.723   9.117  0.00  0.00     0.009 C 
HETATM   90  C   UNK N   1      29.555   6.141  10.919  0.00  0.00     0.009 C 
ENDBRANCH  87  88
ENDBRANCH  21  87
TORSDOF 15
ENDMDL
MODEL 4
REMARK VINA RESULT:      -6.4      7.556     12.612
REMARK  15 active torsions:
REMARK  status: ('A' for Active; 'I' for Inactive)
REMARK    1  A    between atoms: C_3  and  C_4 
REMARK    2  A    between atoms: C_4  and  C_5 
REMARK    3  A    between atoms: C_5  and  C_7 
REMARK    4  A    between atoms: C_9  and  C_7 
REMARK    5  A    between atoms: C_13  and  C_84 
REMARK    6  A    between atoms: C_21  and  C_78 
REMARK    7  A    between atoms: C_25  and  C_75 
REMARK    8  A    between atoms: C_29  and  C_70 
REMARK    9  A    between atoms: C_41  and  C_63 
REMARK   10  A    between atoms: C_45  and  C_58 
REMARK   11  A    between atoms: C_49  and  C_54 
REMARK   12  A    between atoms: C_58  and  C_59 
REMARK   13  A    between atoms: C_63  and  C_64 
REMARK   14  A    between atoms: C_70  and  C_71 
REMARK   15  A    between atoms: C_78  and  C_79 
ROOT
HETATM    1  C   UNK N   1      36.364  10.650  14.198  0.00  0.00     0.249 C 
HETATM    2  C   UNK N   1      37.048   9.406  14.659  0.00  0.00     0.248 C 
HETATM    3  O   UNK N   1      38.142   9.112  14.213  0.00  0.00    -0.271 OA
HETATM    4  N   UNK N   1      36.448   8.614  15.584  0.00  0.00    -0.345 N 
HETATM    5  C   UNK N   1      37.066   7.425  16.160  0.00  0.00     0.180 C 
HETATM    6  C   UNK N   1      37.917   6.669  15.131  0.00  0.00     0.243 C 
HETATM    7  O   UNK N   1      39.101   6.461  15.359  0.00  0.00    -0.271 OA
HETATM    8  N   UNK N   1      37.385   6.302  13.929  0.00  0.00    -0.346 N 
HETATM    9  C   UNK N   1      35.998   6.543  13.640  0.00  0.00     0.228 C 
HETATM   10  C   UNK N   1      35.174   5.451  14.252  0.00  0.00     0.238 C 
HETATM   11  O   UNK N   1      35.256   5.247  15.454  0.00  0.00    -0.272 OA
HETATM   12  N   UNK N   1      34.354   4.700  13.470  0.00  0.00    -0.342 N 
HETATM   13  C   UNK N   1      33.581   3.568  14.020  0.00  0.00     0.179 C 
HETATM   14  C   UNK N   1      32.554   3.053  13.036  0.00  0.00     0.241 C 
HETATM   15  O   UNK N   1      31.364   3.057  13.323  0.00  0.00    -0.271 OA
HETATM   16  N   UNK N   1      32.955   2.720  11.787  0.00  0.00    -0.346 N 
HETATM   17  C   UNK N   1      32.056   2.639  10.664  0.00  0.00     0.180 C 
HETATM   18  C   UNK N   1      31.034   3.747  10.571  0.00  0.00     0.243 C 
HETATM   19  O   UNK N   1      29.912   3.535  11.005  0.00  0.00    -0.271 OA
HETATM   20  N   UNK N   1      31.342   4.921   9.930  0.00  0.00    -0.341 N 
HETATM   21  C   UNK N   1      30.348   5.863   9.385  0.00  0.00     0.179 C 
HETATM   22  C   UNK N   1      30.481   5.810   7.883  0.00  0.00     0.241 C 
HETATM   23  O   UNK N   1      31.135   4.895   7.400  0.00  0.00    -0.271 OA
HETATM   24  N   UNK N   1      29.820   6.677   7.070  0.00  0.00    -0.346 N 
HETATM   25  C   UNK N   1      29.705   6.443   5.636  0.00  0.00     0.172 C 
HETATM   26  C   UNK N   1      30.958   5.855   5.012  0.00  0.00     0.240 C 
HETATM   27  O   UNK N   1      30.956   4.668   4.730  0.00  0.00    -0.271 OA
HETATM   28  N   UNK N   1      32.109   6.556   4.885  0.00  0.00    -0.346 N 
HETATM   29  C   UNK N   1      32.137   7.988   4.870  0.00  0.00     0.172 C 
HETATM   30  C   UNK N   1      32.400   8.879   6.046  0.00  0.00     0.242 C 
HETATM   31  O   UNK N   1      31.486   9.587   6.437  0.00  0.00    -0.271 OA
HETATM   32  N   UNK N   1      33.679   9.097   6.468  0.00  0.00    -0.341 N 
HETATM   33  C   UNK N   1      34.122  10.431   6.847  0.00  0.00     0.179 C 
HETATM   34  C   UNK N   1      33.507  11.213   8.001  0.00  0.00     0.243 C 
HETATM   35  O   UNK N   1      32.412  10.902   8.433  0.00  0.00    -0.271 OA
HETATM   36  N   UNK N   1      34.200  12.251   8.579  0.00  0.00    -0.341 N 
HETATM   37  C   UNK N   1      35.531  12.654   8.149  0.00  0.00     0.179 C 
HETATM   38  C   UNK N   1      36.544  11.501   8.100  0.00  0.00     0.243 C 
HETATM   39  O   UNK N   1      37.034  11.164   7.038  0.00  0.00    -0.271 OA
HETATM   40  N   UNK N   1      36.889  10.866   9.260  0.00  0.00    -0.341 N 
HETATM   41  C   UNK N   1      36.441  11.440  10.515  0.00  0.00     0.182 C 
HETATM   42  C   UNK N   1      36.829  10.748  11.789  0.00  0.00     0.243 C 
HETATM   43  O   UNK N   1      38.000  10.449  11.968  0.00  0.00    -0.271 OA
HETATM   44  N   UNK N   1      35.932  10.694  12.816  0.00  0.00    -0.335 N 
HETATM   45  C   UNK N   1      34.540  11.012  12.580  0.00  0.00     0.154 C 
HETATM   46  C   UNK N   1      37.772   9.714   9.217  0.00  0.00     0.153 C 
HETATM   47  C   UNK N   1      33.609  12.969   9.688  0.00  0.00     0.153 C 
HETATM   48  C   UNK N   1      34.722   8.170   6.095  0.00  0.00     0.153 C 
HETATM   49  C   UNK N   1      31.648   8.634   3.589  0.00  0.00     0.042 C 
HETATM   50  C   UNK N   1      29.089   7.628   4.919  0.00  0.00     0.042 C 
HETATM   51  C   UNK N   1      32.728   5.192   9.602  0.00  0.00     0.153 C 
HETATM   52  C   UNK N   1      34.322   5.014  12.057  0.00  0.00     0.153 C 
HETATM   53  C   UNK N   1      38.209   5.713  12.902  0.00  0.00     0.153 C 
HETATM   54  H   UNK N   1      35.542   8.857  15.881  0.00  0.00     0.163 HD
HETATM   55  H   UNK N   1      33.908   2.523  11.639  0.00  0.00     0.163 HD
HETATM   56  H   UNK N   1      29.411   7.483   7.459  0.00  0.00     0.163 HD
HETATM   57  H   UNK N   1      32.958   6.063   4.800  0.00  0.00     0.163 HD
ENDROOT
BRANCH   1  58
HETATM   58  C   UNK N   1      36.953  11.988  14.624  0.00  0.00     0.163 C 
HETATM   59  O   UNK N   1      38.167  12.040  14.733  0.00  0.00    -0.295 OA
BRANCH  58  60
HETATM   60  C   UNK N   1      36.169  13.247  14.990  0.00  0.00     0.057 C 
HETATM   61  C   UNK N   1      37.057  14.284  15.645  0.00  0.00     0.018 C 
BRANCH  60  62
HETATM   62  C   UNK N   1      34.894  13.125  15.803  0.00  0.00     0.038 C 
BRANCH  62  63
HETATM   63  C   UNK N   1      35.184  13.211  17.265  0.00  0.00    -0.030 C 
HETATM   64  C   UNK N   1      35.151  12.124  18.033  0.00  0.00    -0.035 C 
HETATM   65  C   UNK N   1      35.431  12.237  19.491  0.00  0.00     0.036 C 
ENDBRANCH  62  63
ENDBRANCH  60  62
ENDBRANCH  58  60
ENDBRANCH   1  58
BRANCH   5  66
HETATM   66  C   UNK N   1      37.825   7.817  17.436  0.00  0.00     0.009 C 
HETATM   67  C   UNK N   1      37.977   6.629  18.366  0.00  0.00     0.012 C 
HETATM   68  C   UNK N   1      37.098   8.919  18.188  0.00  0.00     0.012 C 
ENDBRANCH   5  66
BRANCH  41  69
HETATM   69  C   UNK N   1      36.927  12.906  10.573  0.00  0.00     0.009 C 
HETATM   70  C   UNK N   1      36.227  13.794  11.581  0.00  0.00     0.012 C 
HETATM   71  C   UNK N   1      38.434  13.103  10.493  0.00  0.00     0.012 C 
ENDBRANCH  41  69
BRANCH  37  72
HETATM   72  C   UNK N   1      35.531  13.707   7.042  0.00  0.00     0.039 C 
BRANCH  72  73
HETATM   73  C   UNK N   1      34.599  14.893   7.297  0.00  0.00    -0.020 C 
HETATM   74  C   UNK N   1      35.102  15.790   8.416  0.00  0.00     0.009 C 
HETATM   75  C   UNK N   1      34.329  15.697   6.042  0.00  0.00     0.009 C 
ENDBRANCH  72  73
ENDBRANCH  37  72
BRANCH  13  76
HETATM   76  C   UNK N   1      32.902   3.952  15.349  0.00  0.00     0.039 C 
BRANCH  76  77
HETATM   77  C   UNK N   1      33.059   2.894  16.440  0.00  0.00    -0.020 C 
HETATM   78  C   UNK N   1      31.764   2.154  16.701  0.00  0.00     0.009 C 
HETATM   79  C   UNK N   1      34.184   1.914  16.140  0.00  0.00     0.009 C 
ENDBRANCH  76  77
ENDBRANCH  13  76
BRANCH  33  80
HETATM   80  C   UNK N   1      34.616  11.227   5.616  0.00  0.00     0.039 C 
BRANCH  80  81
HETATM   81  C   UNK N   1      33.669  11.760   4.532  0.00  0.00    -0.020 C 
HETATM   82  C   UNK N   1      34.439  12.544   3.496  0.00  0.00     0.009 C 
HETATM   83  C   UNK N   1      32.494  12.584   4.990  0.00  0.00     0.009 C 
ENDBRANCH  80  81
ENDBRANCH  33  80
BRANCH  17  84
HETATM   84  C   UNK N   1      31.619   1.256  10.195  0.00  0.00     0.009 C 
HETATM   85  C   UNK N   1      32.645   0.192  10.531  0.00  0.00     0.012 C 
HETATM   86  C   UNK N   1      31.306   1.247   8.713  0.00  0.00     0.012 C 
ENDBRANCH  17  84
BRANCH  21  87
HETATM   87  C   UNK N   1      28.865   5.581   9.763  0.00  0.00     0.039 C 
BRANCH  87  88
HETATM   88  C   UNK N   1      27.877   5.127   8.649  0.00  0.00    -0.020 C 
HETATM   89  C   UNK N   1      27.721   3.621   8.604  0.00  0.00     0.009 C 
HETATM   90  C   UNK N   1      26.500   5.779   8.650  0.00  0.00     0.009 C 
ENDBRANCH  87  88
ENDBRANCH  21  87
TORSDOF 15
ENDMDL
MODEL 5
REMARK VINA RESULT:      -6.3      7.425     10.292
REMARK  15 active torsions:
REMARK  status: ('A' for Active; 'I' for Inactive)
REMARK    1  A    between atoms: C_3  and  C_4 
REMARK    2  A    between atoms: C_4  and  C_5 
REMARK    3  A    between atoms: C_5  and  C_7 
REMARK    4  A    between atoms: C_9  and  C_7 
REMARK    5  A    between atoms: C_13  and  C_84 
REMARK    6  A    between atoms: C_21  and  C_78 
REMARK    7  A    between atoms: C_25  and  C_75 
REMARK    8  A    between atoms: C_29  and  C_70 
REMARK    9  A    between atoms: C_41  and  C_63 
REMARK   10  A    between atoms: C_45  and  C_58 
REMARK   11  A    between atoms: C_49  and  C_54 
REMARK   12  A    between atoms: C_58  and  C_59 
REMARK   13  A    between atoms: C_63  and  C_64 
REMARK   14  A    between atoms: C_70  and  C_71 
REMARK   15  A    between atoms: C_78  and  C_79 
ROOT
HETATM    1  C   UNK N   1      33.957  14.332   6.526  0.00  0.00     0.249 C 
HETATM    2  C   UNK N   1      35.078  14.340   7.511  0.00  0.00     0.248 C 
HETATM    3  O   UNK N   1      36.224  14.488   7.128  0.00  0.00    -0.271 OA
HETATM    4  N   UNK N   1      34.809  14.191   8.833  0.00  0.00    -0.345 N 
HETATM    5  C   UNK N   1      35.820  14.266   9.882  0.00  0.00     0.180 C 
HETATM    6  C   UNK N   1      37.155  13.659   9.432  0.00  0.00     0.243 C 
HETATM    7  O   UNK N   1      38.172  14.339   9.462  0.00  0.00    -0.271 OA
HETATM    8  N   UNK N   1      37.202  12.395   8.920  0.00  0.00    -0.346 N 
HETATM    9  C   UNK N   1      36.018  11.582   8.871  0.00  0.00     0.228 C 
HETATM   10  C   UNK N   1      35.803  10.949  10.212  0.00  0.00     0.238 C 
HETATM   11  O   UNK N   1      35.703  11.664  11.198  0.00  0.00    -0.272 OA
HETATM   12  N   UNK N   1      35.730   9.595  10.320  0.00  0.00    -0.342 N 
HETATM   13  C   UNK N   1      35.592   8.928  11.630  0.00  0.00     0.179 C 
HETATM   14  C   UNK N   1      35.269   7.458  11.486  0.00  0.00     0.241 C 
HETATM   15  O   UNK N   1      34.241   6.999  11.964  0.00  0.00    -0.271 OA
HETATM   16  N   UNK N   1      36.063   6.688  10.704  0.00  0.00    -0.346 N 
HETATM   17  C   UNK N   1      35.639   5.429  10.148  0.00  0.00     0.180 C 
HETATM   18  C   UNK N   1      34.235   5.403   9.595  0.00  0.00     0.243 C 
HETATM   19  O   UNK N   1      33.343   4.962  10.303  0.00  0.00    -0.271 OA
HETATM   20  N   UNK N   1      33.995   5.781   8.297  0.00  0.00    -0.341 N 
HETATM   21  C   UNK N   1      32.806   5.389   7.518  0.00  0.00     0.179 C 
HETATM   22  C   UNK N   1      33.290   4.460   6.432  0.00  0.00     0.241 C 
HETATM   23  O   UNK N   1      34.425   4.014   6.526  0.00  0.00    -0.271 OA
HETATM   24  N   UNK N   1      32.473   4.036   5.430  0.00  0.00    -0.346 N 
HETATM   25  C   UNK N   1      32.838   2.918   4.569  0.00  0.00     0.172 C 
HETATM   26  C   UNK N   1      34.313   2.882   4.210  0.00  0.00     0.240 C 
HETATM   27  O   UNK N   1      35.021   2.065   4.777  0.00  0.00    -0.271 OA
HETATM   28  N   UNK N   1      34.892   3.798   3.400  0.00  0.00    -0.346 N 
HETATM   29  C   UNK N   1      34.141   4.568   2.453  0.00  0.00     0.172 C 
HETATM   30  C   UNK N   1      33.598   5.948   2.668  0.00  0.00     0.242 C 
HETATM   31  O   UNK N   1      32.386   6.082   2.701  0.00  0.00    -0.271 OA
HETATM   32  N   UNK N   1      34.416   7.033   2.541  0.00  0.00    -0.341 N 
HETATM   33  C   UNK N   1      33.961   8.230   1.847  0.00  0.00     0.179 C 
HETATM   34  C   UNK N   1      32.775   9.062   2.319  0.00  0.00     0.243 C 
HETATM   35  O   UNK N   1      31.959   8.580   3.084  0.00  0.00    -0.271 OA
HETATM   36  N   UNK N   1      32.637  10.366   1.905  0.00  0.00    -0.341 N 
HETATM   37  C   UNK N   1      33.594  11.026   1.027  0.00  0.00     0.179 C 
HETATM   38  C   UNK N   1      35.048  10.930   1.508  0.00  0.00     0.243 C 
HETATM   39  O   UNK N   1      35.872  10.328   0.845  0.00  0.00    -0.271 OA
HETATM   40  N   UNK N   1      35.403  11.531   2.683  0.00  0.00    -0.341 N 
HETATM   41  C   UNK N   1      34.440  12.407   3.324  0.00  0.00     0.182 C 
HETATM   42  C   UNK N   1      34.835  13.075   4.608  0.00  0.00     0.243 C 
HETATM   43  O   UNK N   1      35.902  13.668   4.665  0.00  0.00    -0.271 OA
HETATM   44  N   UNK N   1      33.903  13.225   5.594  0.00  0.00    -0.335 N 
HETATM   45  C   UNK N   1      32.661  12.485   5.534  0.00  0.00     0.154 C 
HETATM   46  C   UNK N   1      36.752  11.369   3.198  0.00  0.00     0.153 C 
HETATM   47  C   UNK N   1      31.515  11.146   2.379  0.00  0.00     0.153 C 
HETATM   48  C   UNK N   1      35.847   6.863   2.633  0.00  0.00     0.153 C 
HETATM   49  C   UNK N   1      33.691   3.815   1.216  0.00  0.00     0.042 C 
HETATM   50  C   UNK N   1      31.863   2.750   3.420  0.00  0.00     0.042 C 
HETATM   51  C   UNK N   1      35.042   6.466   7.566  0.00  0.00     0.153 C 
HETATM   52  C   UNK N   1      35.859   8.829   9.098  0.00  0.00     0.153 C 
HETATM   53  C   UNK N   1      38.424  11.862   8.368  0.00  0.00     0.153 C 
HETATM   54  H   UNK N   1      33.877  14.020   9.099  0.00  0.00     0.163 HD
HETATM   55  H   UNK N   1      36.973   7.005  10.507  0.00  0.00     0.163 HD
HETATM   56  H   UNK N   1      31.615   4.495   5.283  0.00  0.00     0.163 HD
HETATM   57  H   UNK N   1      35.865   3.942   3.464  0.00  0.00     0.163 HD
ENDROOT
BRANCH   1  58
HETATM   58  C   UNK N   1      33.608  15.642   5.832  0.00  0.00     0.163 C 
HETATM   59  O   UNK N   1      34.522  16.433   5.668  0.00  0.00    -0.295 OA
BRANCH  58  60
HETATM   60  C   UNK N   1      32.217  16.085   5.381  0.00  0.00     0.057 C 
HETATM   61  C   UNK N   1      32.247  17.470   4.769  0.00  0.00     0.018 C 
BRANCH  60  62
HETATM   62  C   UNK N   1      31.057  16.017   6.356  0.00  0.00     0.038 C 
BRANCH  62  63
HETATM   63  C   UNK N   1      31.222  17.015   7.453  0.00  0.00    -0.030 C 
HETATM   64  C   UNK N   1      30.163  17.583   8.026  0.00  0.00    -0.035 C 
HETATM   65  C   UNK N   1      30.353  18.586   9.109  0.00  0.00     0.036 C 
ENDBRANCH  62  63
ENDBRANCH  60  62
ENDBRANCH  58  60
ENDBRANCH   1  58
BRANCH   5  66
HETATM   66  C   UNK N   1      35.926  15.715  10.380  0.00  0.00     0.009 C 
HETATM   67  C   UNK N   1      35.844  15.779  11.893  0.00  0.00     0.012 C 
HETATM   68  C   UNK N   1      34.810  16.573   9.807  0.00  0.00     0.012 C 
ENDBRANCH   5  66
BRANCH  41  69
HETATM   69  C   UNK N   1      34.024  13.490   2.303  0.00  0.00     0.009 C 
HETATM   70  C   UNK N   1      32.772  14.272   2.643  0.00  0.00     0.012 C 
HETATM   71  C   UNK N   1      35.160  14.330   1.734  0.00  0.00     0.012 C 
ENDBRANCH  41  69
BRANCH  37  72
HETATM   72  C   UNK N   1      33.277  10.869  -0.459  0.00  0.00     0.039 C 
BRANCH  72  73
HETATM   73  C   UNK N   1      32.492  12.034  -1.065  0.00  0.00    -0.020 C 
HETATM   74  C   UNK N   1      33.154  12.585  -2.318  0.00  0.00     0.009 C 
HETATM   75  C   UNK N   1      31.044  11.677  -1.333  0.00  0.00     0.009 C 
ENDBRANCH  72  73
ENDBRANCH  37  72
BRANCH  13  76
HETATM   76  C   UNK N   1      34.529   9.626  12.501  0.00  0.00     0.039 C 
BRANCH  76  77
HETATM   77  C   UNK N   1      34.888   9.665  13.986  0.00  0.00    -0.020 C 
HETATM   78  C   UNK N   1      36.348  10.001  14.206  0.00  0.00     0.009 C 
HETATM   79  C   UNK N   1      33.996  10.614  14.773  0.00  0.00     0.009 C 
ENDBRANCH  76  77
ENDBRANCH  13  76
BRANCH  33  80
HETATM   80  C   UNK N   1      34.213   8.126   0.325  0.00  0.00     0.039 C 
BRANCH  80  81
HETATM   81  C   UNK N   1      33.422   7.179  -0.588  0.00  0.00    -0.020 C 
HETATM   82  C   UNK N   1      33.950   7.243  -2.002  0.00  0.00     0.009 C 
HETATM   83  C   UNK N   1      31.925   7.346  -0.620  0.00  0.00     0.009 C 
ENDBRANCH  80  81
ENDBRANCH  33  80
BRANCH  17  84
HETATM   84  C   UNK N   1      36.145   4.149  10.805  0.00  0.00     0.009 C 
HETATM   85  C   UNK N   1      37.441   4.373  11.559  0.00  0.00     0.012 C 
HETATM   86  C   UNK N   1      36.301   3.032   9.794  0.00  0.00     0.012 C 
ENDBRANCH  17  84
BRANCH  21  87
HETATM   87  C   UNK N   1      31.674   4.678   8.314  0.00  0.00     0.039 C 
BRANCH  87  88
HETATM   88  C   UNK N   1      30.281   5.364   8.417  0.00  0.00    -0.020 C 
HETATM   89  C   UNK N   1      30.267   6.475   9.445  0.00  0.00     0.009 C 
HETATM   90  C   UNK N   1      29.671   5.870   7.115  0.00  0.00     0.009 C 
ENDBRANCH  87  88
ENDBRANCH  21  87
TORSDOF 15
ENDMDL
MODEL 6
REMARK VINA RESULT:      -6.2      4.708     10.415
REMARK  15 active torsions:
REMARK  status: ('A' for Active; 'I' for Inactive)
REMARK    1  A    between atoms: C_3  and  C_4 
REMARK    2  A    between atoms: C_4  and  C_5 
REMARK    3  A    between atoms: C_5  and  C_7 
REMARK    4  A    between atoms: C_9  and  C_7 
REMARK    5  A    between atoms: C_13  and  C_84 
REMARK    6  A    between atoms: C_21  and  C_78 
REMARK    7  A    between atoms: C_25  and  C_75 
REMARK    8  A    between atoms: C_29  and  C_70 
REMARK    9  A    between atoms: C_41  and  C_63 
REMARK   10  A    between atoms: C_45  and  C_58 
REMARK   11  A    between atoms: C_49  and  C_54 
REMARK   12  A    between atoms: C_58  and  C_59 
REMARK   13  A    between atoms: C_63  and  C_64 
REMARK   14  A    between atoms: C_70  and  C_71 
REMARK   15  A    between atoms: C_78  and  C_79 
ROOT
HETATM    1  C   UNK N   1      29.501  13.823   4.937  0.00  0.00     0.249 C 
HETATM    2  C   UNK N   1      30.421  14.930   5.330  0.00  0.00     0.248 C 
HETATM    3  O   UNK N   1      30.977  15.592   4.473  0.00  0.00    -0.271 OA
HETATM    4  N   UNK N   1      30.624  15.198   6.645  0.00  0.00    -0.345 N 
HETATM    5  C   UNK N   1      31.436  16.307   7.132  0.00  0.00     0.180 C 
HETATM    6  C   UNK N   1      32.656  16.558   6.237  0.00  0.00     0.243 C 
HETATM    7  O   UNK N   1      32.823  17.660   5.732  0.00  0.00    -0.271 OA
HETATM    8  N   UNK N   1      33.511  15.538   5.931  0.00  0.00    -0.346 N 
HETATM    9  C   UNK N   1      33.331  14.236   6.510  0.00  0.00     0.228 C 
HETATM   10  C   UNK N   1      33.928  14.223   7.885  0.00  0.00     0.238 C 
HETATM   11  O   UNK N   1      33.537  15.036   8.710  0.00  0.00    -0.272 OA
HETATM   12  N   UNK N   1      34.895  13.320   8.196  0.00  0.00    -0.342 N 
HETATM   13  C   UNK N   1      35.561  13.321   9.514  0.00  0.00     0.179 C 
HETATM   14  C   UNK N   1      36.402  12.081   9.725  0.00  0.00     0.241 C 
HETATM   15  O   UNK N   1      36.168  11.325  10.658  0.00  0.00    -0.271 OA
HETATM   16  N   UNK N   1      37.322  11.750   8.790  0.00  0.00    -0.346 N 
HETATM   17  C   UNK N   1      37.860  10.421   8.647  0.00  0.00     0.180 C 
HETATM   18  C   UNK N   1      36.856   9.299   8.765  0.00  0.00     0.243 C 
HETATM   19  O   UNK N   1      36.746   8.734   9.842  0.00  0.00    -0.271 OA
HETATM   20  N   UNK N   1      36.160   8.875   7.661  0.00  0.00    -0.341 N 
HETATM   21  C   UNK N   1      35.520   7.553   7.533  0.00  0.00     0.179 C 
HETATM   22  C   UNK N   1      36.296   6.797   6.482  0.00  0.00     0.241 C 
HETATM   23  O   UNK N   1      37.378   7.251   6.135  0.00  0.00    -0.271 OA
HETATM   24  N   UNK N   1      35.874   5.597   5.999  0.00  0.00    -0.346 N 
HETATM   25  C   UNK N   1      36.757   4.733   5.226  0.00  0.00     0.172 C 
HETATM   26  C   UNK N   1      37.667   5.488   4.274  0.00  0.00     0.240 C 
HETATM   27  O   UNK N   1      38.840   5.618   4.584  0.00  0.00    -0.271 OA
HETATM   28  N   UNK N   1      37.206   6.133   3.177  0.00  0.00    -0.346 N 
HETATM   29  C   UNK N   1      35.962   5.790   2.552  0.00  0.00     0.172 C 
HETATM   30  C   UNK N   1      34.641   6.456   2.791  0.00  0.00     0.242 C 
HETATM   31  O   UNK N   1      33.763   5.798   3.326  0.00  0.00    -0.271 OA
HETATM   32  N   UNK N   1      34.349   7.638   2.177  0.00  0.00    -0.341 N 
HETATM   33  C   UNK N   1      33.035   7.869   1.593  0.00  0.00     0.179 C 
HETATM   34  C   UNK N   1      31.751   7.870   2.413  0.00  0.00     0.243 C 
HETATM   35  O   UNK N   1      31.730   7.348   3.513  0.00  0.00    -0.271 OA
HETATM   36  N   UNK N   1      30.621   8.484   1.926  0.00  0.00    -0.341 N 
HETATM   37  C   UNK N   1      30.579   9.166   0.641  0.00  0.00     0.179 C 
HETATM   38  C   UNK N   1      31.689  10.210   0.454  0.00  0.00     0.243 C 
HETATM   39  O   UNK N   1      32.531  10.057  -0.411  0.00  0.00    -0.271 OA
HETATM   40  N   UNK N   1      31.716  11.308   1.266  0.00  0.00    -0.341 N 
HETATM   41  C   UNK N   1      30.578  11.547   2.135  0.00  0.00     0.182 C 
HETATM   42  C   UNK N   1      30.604  12.760   3.018  0.00  0.00     0.243 C 
HETATM   43  O   UNK N   1      30.872  13.847   2.527  0.00  0.00    -0.271 OA
HETATM   44  N   UNK N   1      30.090  12.674   4.280  0.00  0.00    -0.335 N 
HETATM   45  C   UNK N   1      29.815  11.379   4.864  0.00  0.00     0.154 C 
HETATM   46  C   UNK N   1      32.813  12.255   1.164  0.00  0.00     0.153 C 
HETATM   47  C   UNK N   1      29.416   8.491   2.728  0.00  0.00     0.153 C 
HETATM   48  C   UNK N   1      35.420   8.460   1.664  0.00  0.00     0.153 C 
HETATM   49  C   UNK N   1      35.972   4.506   1.746  0.00  0.00     0.042 C 
HETATM   50  C   UNK N   1      36.016   3.545   4.645  0.00  0.00     0.042 C 
HETATM   51  C   UNK N   1      36.189   9.691   6.463  0.00  0.00     0.153 C 
HETATM   52  C   UNK N   1      35.294  12.396   7.155  0.00  0.00     0.153 C 
HETATM   53  C   UNK N   1      34.583  15.727   4.984  0.00  0.00     0.153 C 
HETATM   54  H   UNK N   1      30.199  14.608   7.308  0.00  0.00     0.163 HD
HETATM   55  H   UNK N   1      37.640  12.452   8.177  0.00  0.00     0.163 HD
HETATM   56  H   UNK N   1      34.951   5.305   6.177  0.00  0.00     0.163 HD
HETATM   57  H   UNK N   1      37.744   6.864   2.794  0.00  0.00     0.163 HD
ENDROOT
BRANCH   1  58
HETATM   58  C   UNK N   1      28.172  14.194   4.291  0.00  0.00     0.163 C 
HETATM   59  O   UNK N   1      27.229  13.454   4.520  0.00  0.00    -0.295 OA
BRANCH  58  60
HETATM   60  C   UNK N   1      27.924  15.361   3.338  0.00  0.00     0.057 C 
HETATM   61  C   UNK N   1      27.046  16.420   3.972  0.00  0.00     0.018 C 
BRANCH  60  62
HETATM   62  C   UNK N   1      27.407  15.087   1.938  0.00  0.00     0.038 C 
BRANCH  62  63
HETATM   63  C   UNK N   1      25.934  15.312   1.859  0.00  0.00    -0.030 C 
HETATM   64  C   UNK N   1      25.105  14.313   1.562  0.00  0.00    -0.035 C 
HETATM   65  C   UNK N   1      23.641  14.563   1.477  0.00  0.00     0.036 C 
ENDBRANCH  62  63
ENDBRANCH  60  62
ENDBRANCH  58  60
ENDBRANCH   1  58
BRANCH   5  66
HETATM   66  C   UNK N   1      30.543  17.540   7.334  0.00  0.00     0.009 C 
HETATM   67  C   UNK N   1      30.810  18.194   8.676  0.00  0.00     0.012 C 
HETATM   68  C   UNK N   1      29.072  17.163   7.274  0.00  0.00     0.012 C 
ENDBRANCH   5  66
BRANCH  41  69
HETATM   69  C   UNK N   1      29.307  11.594   1.257  0.00  0.00     0.009 C 
HETATM   70  C   UNK N   1      27.991  11.468   1.996  0.00  0.00     0.012 C 
HETATM   71  C   UNK N   1      29.312  12.632   0.145  0.00  0.00     0.012 C 
ENDBRANCH  41  69
BRANCH  37  72
HETATM   72  C   UNK N   1      30.187   8.262  -0.526  0.00  0.00     0.039 C 
BRANCH  72  73
HETATM   73  C   UNK N   1      29.132   8.856  -1.461  0.00  0.00    -0.020 C 
HETATM   74  C   UNK N   1      29.754   9.599  -2.632  0.00  0.00     0.009 C 
HETATM   75  C   UNK N   1      28.141   7.819  -1.947  0.00  0.00     0.009 C 
ENDBRANCH  72  73
ENDBRANCH  37  72
BRANCH  13  76
HETATM   76  C   UNK N   1      34.536  13.472  10.655  0.00  0.00     0.039 C 
BRANCH  76  77
HETATM   77  C   UNK N   1      34.954  14.487  11.718  0.00  0.00    -0.020 C 
HETATM   78  C   UNK N   1      35.484  13.813  12.966  0.00  0.00     0.009 C 
HETATM   79  C   UNK N   1      35.958  15.501  11.189  0.00  0.00     0.009 C 
ENDBRANCH  76  77
ENDBRANCH  13  76
BRANCH  33  80
HETATM   80  C   UNK N   1      32.966   7.341   0.141  0.00  0.00     0.039 C 
BRANCH  80  81
HETATM   81  C   UNK N   1      33.015   5.846  -0.205  0.00  0.00    -0.020 C 
HETATM   82  C   UNK N   1      33.097   5.652  -1.701  0.00  0.00     0.009 C 
HETATM   83  C   UNK N   1      31.911   4.978   0.337  0.00  0.00     0.009 C 
ENDBRANCH  80  81
ENDBRANCH  33  80
BRANCH  17  84
HETATM   84  C   UNK N   1      39.260  10.153   9.189  0.00  0.00     0.009 C 
HETATM   85  C   UNK N   1      40.159  11.367   9.062  0.00  0.00     0.012 C 
HETATM   86  C   UNK N   1      39.891   8.950   8.520  0.00  0.00     0.012 C 
ENDBRANCH  17  84
BRANCH  21  87
HETATM   87  C   UNK N   1      35.469   6.692   8.828  0.00  0.00     0.039 C 
BRANCH  87  88
HETATM   88  C   UNK N   1      34.119   6.557   9.590  0.00  0.00    -0.020 C 
HETATM   89  C   UNK N   1      34.318   6.171  11.040  0.00  0.00     0.009 C 
HETATM   90  C   UNK N   1      33.166   7.744   9.507  0.00  0.00     0.009 C 
ENDBRANCH  87  88
ENDBRANCH  21  87
TORSDOF 15
ENDMDL
MODEL 7
REMARK VINA RESULT:      -6.2      2.172      9.408
REMARK  15 active torsions:
REMARK  status: ('A' for Active; 'I' for Inactive)
REMARK    1  A    between atoms: C_3  and  C_4 
REMARK    2  A    between atoms: C_4  and  C_5 
REMARK    3  A    between atoms: C_5  and  C_7 
REMARK    4  A    between atoms: C_9  and  C_7 
REMARK    5  A    between atoms: C_13  and  C_84 
REMARK    6  A    between atoms: C_21  and  C_78 
REMARK    7  A    between atoms: C_25  and  C_75 
REMARK    8  A    between atoms: C_29  and  C_70 
REMARK    9  A    between atoms: C_41  and  C_63 
REMARK   10  A    between atoms: C_45  and  C_58 
REMARK   11  A    between atoms: C_49  and  C_54 
REMARK   12  A    between atoms: C_58  and  C_59 
REMARK   13  A    between atoms: C_63  and  C_64 
REMARK   14  A    between atoms: C_70  and  C_71 
REMARK   15  A    between atoms: C_78  and  C_79 
ROOT
HETATM    1  C   UNK N   1      22.383  13.302   3.172  0.00  0.00     0.249 C 
HETATM    2  C   UNK N   1      22.110  11.952   3.746  0.00  0.00     0.248 C 
HETATM    3  O   UNK N   1      22.002  11.813   4.951  0.00  0.00    -0.271 OA
HETATM    4  N   UNK N   1      21.975  10.886   2.917  0.00  0.00    -0.345 N 
HETATM    5  C   UNK N   1      21.627   9.543   3.369  0.00  0.00     0.180 C 
HETATM    6  C   UNK N   1      22.262   9.217   4.727  0.00  0.00     0.243 C 
HETATM    7  O   UNK N   1      21.550   8.890   5.666  0.00  0.00    -0.271 OA
HETATM    8  N   UNK N   1      23.605   9.368   4.917  0.00  0.00    -0.346 N 
HETATM    9  C   UNK N   1      24.458   9.756   3.827  0.00  0.00     0.228 C 
HETATM   10  C   UNK N   1      24.788   8.545   3.009  0.00  0.00     0.238 C 
HETATM   11  O   UNK N   1      23.878   7.884   2.530  0.00  0.00    -0.272 OA
HETATM   12  N   UNK N   1      26.086   8.190   2.814  0.00  0.00    -0.342 N 
HETATM   13  C   UNK N   1      26.452   6.965   2.076  0.00  0.00     0.179 C 
HETATM   14  C   UNK N   1      27.931   6.914   1.761  0.00  0.00     0.241 C 
HETATM   15  O   UNK N   1      28.315   6.851   0.601  0.00  0.00    -0.271 OA
HETATM   16  N   UNK N   1      28.819   7.079   2.768  0.00  0.00    -0.346 N 
HETATM   17  C   UNK N   1      30.188   7.478   2.556  0.00  0.00     0.180 C 
HETATM   18  C   UNK N   1      30.394   8.573   1.537  0.00  0.00     0.243 C 
HETATM   19  O   UNK N   1      30.705   8.252   0.401  0.00  0.00    -0.271 OA
HETATM   20  N   UNK N   1      30.322   9.891   1.913  0.00  0.00    -0.341 N 
HETATM   21  C   UNK N   1      30.926  11.008   1.165  0.00  0.00     0.179 C 
HETATM   22  C   UNK N   1      32.051  11.540   2.018  0.00  0.00     0.241 C 
HETATM   23  O   UNK N   1      32.417  10.862   2.969  0.00  0.00    -0.271 OA
HETATM   24  N   UNK N   1      32.720  12.681   1.699  0.00  0.00    -0.346 N 
HETATM   25  C   UNK N   1      33.984  13.029   2.336  0.00  0.00     0.172 C 
HETATM   26  C   UNK N   1      34.037  12.684   3.813  0.00  0.00     0.240 C 
HETATM   27  O   UNK N   1      34.677  11.702   4.151  0.00  0.00    -0.271 OA
HETATM   28  N   UNK N   1      33.298  13.334   4.743  0.00  0.00    -0.346 N 
HETATM   29  C   UNK N   1      32.789  14.657   4.531  0.00  0.00     0.172 C 
HETATM   30  C   UNK N   1      31.419  15.007   4.033  0.00  0.00     0.242 C 
HETATM   31  O   UNK N   1      31.333  15.541   2.940  0.00  0.00    -0.271 OA
HETATM   32  N   UNK N   1      30.356  14.993   4.888  0.00  0.00    -0.341 N 
HETATM   33  C   UNK N   1      29.361  16.056   4.857  0.00  0.00     0.179 C 
HETATM   34  C   UNK N   1      28.497  16.348   3.636  0.00  0.00     0.243 C 
HETATM   35  O   UNK N   1      28.831  15.936   2.540  0.00  0.00    -0.271 OA
HETATM   36  N   UNK N   1      27.324  17.051   3.773  0.00  0.00    -0.341 N 
HETATM   37  C   UNK N   1      26.834  17.538   5.055  0.00  0.00     0.179 C 
HETATM   38  C   UNK N   1      26.760  16.458   6.143  0.00  0.00     0.243 C 
HETATM   39  O   UNK N   1      27.458  16.543   7.136  0.00  0.00    -0.271 OA
HETATM   40  N   UNK N   1      25.900  15.408   5.983  0.00  0.00    -0.341 N 
HETATM   41  C   UNK N   1      24.945  15.463   4.892  0.00  0.00     0.182 C 
HETATM   42  C   UNK N   1      23.994  14.315   4.724  0.00  0.00     0.243 C 
HETATM   43  O   UNK N   1      23.358  13.924   5.692  0.00  0.00    -0.271 OA
HETATM   44  N   UNK N   1      23.670  13.899   3.465  0.00  0.00    -0.335 N 
HETATM   45  C   UNK N   1      24.456  14.337   2.332  0.00  0.00     0.154 C 
HETATM   46  C   UNK N   1      25.887  14.331   6.958  0.00  0.00     0.153 C 
HETATM   47  C   UNK N   1      26.506  17.302   2.605  0.00  0.00     0.153 C 
HETATM   48  C   UNK N   1      30.440  14.246   6.121  0.00  0.00     0.153 C 
HETATM   49  C   UNK N   1      33.814  15.769   4.624  0.00  0.00     0.042 C 
HETATM   50  C   UNK N   1      34.442  14.423   1.955  0.00  0.00     0.042 C 
HETATM   51  C   UNK N   1      29.772  10.215   3.215  0.00  0.00     0.153 C 
HETATM   52  C   UNK N   1      27.097   9.032   3.419  0.00  0.00     0.153 C 
HETATM   53  C   UNK N   1      24.194   9.195   6.223  0.00  0.00     0.153 C 
HETATM   54  H   UNK N   1      22.122  11.028   1.954  0.00  0.00     0.163 HD
HETATM   55  H   UNK N   1      28.516   6.919   3.691  0.00  0.00     0.163 HD
HETATM   56  H   UNK N   1      32.341  13.287   1.021  0.00  0.00     0.163 HD
HETATM   57  H   UNK N   1      33.103  12.881   5.596  0.00  0.00     0.163 HD
ENDROOT
BRANCH   1  58
HETATM   58  C   UNK N   1      21.274  14.345   3.242  0.00  0.00     0.163 C 
HETATM   59  O   UNK N   1      20.485  14.239   4.166  0.00  0.00    -0.295 OA
BRANCH  58  60
HETATM   60  C   UNK N   1      21.020  15.464   2.235  0.00  0.00     0.057 C 
HETATM   61  C   UNK N   1      20.128  16.542   2.816  0.00  0.00     0.018 C 
BRANCH  60  62
HETATM   62  C   UNK N   1      20.514  15.122   0.846  0.00  0.00     0.038 C 
BRANCH  62  63
HETATM   63  C   UNK N   1      19.572  13.965   0.891  0.00  0.00    -0.030 C 
HETATM   64  C   UNK N   1      18.439  13.979   0.191  0.00  0.00    -0.035 C 
HETATM   65  C   UNK N   1      17.509  12.820   0.263  0.00  0.00     0.036 C 
ENDBRANCH  62  63
ENDBRANCH  60  62
ENDBRANCH  58  60
ENDBRANCH   1  58
BRANCH   5  66
HETATM   66  C   UNK N   1      20.101   9.377   3.334  0.00  0.00     0.009 C 
HETATM   67  C   UNK N   1      19.716   7.968   2.922  0.00  0.00     0.012 C 
HETATM   68  C   UNK N   1      19.468  10.348   2.352  0.00  0.00     0.012 C 
ENDBRANCH   5  66
BRANCH  41  69
HETATM   69  C   UNK N   1      24.133  16.771   5.031  0.00  0.00     0.009 C 
HETATM   70  C   UNK N   1      23.726  17.436   3.733  0.00  0.00     0.012 C 
HETATM   71  C   UNK N   1      23.054  16.764   6.105  0.00  0.00     0.012 C 
ENDBRANCH  41  69
BRANCH  37  72
HETATM   72  C   UNK N   1      27.328  18.939   5.413  0.00  0.00     0.039 C 
BRANCH  72  73
HETATM   73  C   UNK N   1      26.236  20.010   5.427  0.00  0.00    -0.020 C 
HETATM   74  C   UNK N   1      26.588  21.179   6.332  0.00  0.00     0.009 C 
HETATM   75  C   UNK N   1      25.884  20.495   4.035  0.00  0.00     0.009 C 
ENDBRANCH  72  73
ENDBRANCH  37  72
BRANCH  13  76
HETATM   76  C   UNK N   1      25.625   6.825   0.783  0.00  0.00     0.039 C 
BRANCH  76  77
HETATM   77  C   UNK N   1      25.067   5.419   0.567  0.00  0.00    -0.020 C 
HETATM   78  C   UNK N   1      25.788   4.689  -0.546  0.00  0.00     0.009 C 
HETATM   79  C   UNK N   1      25.073   4.590   1.843  0.00  0.00     0.009 C 
ENDBRANCH  76  77
ENDBRANCH  13  76
BRANCH  33  80
HETATM   80  C   UNK N   1      29.789  17.249   5.743  0.00  0.00     0.039 C 
BRANCH  80  81
HETATM   81  C   UNK N   1      30.699  17.094   6.968  0.00  0.00    -0.020 C 
HETATM   82  C   UNK N   1      30.102  17.797   8.164  0.00  0.00     0.009 C 
HETATM   83  C   UNK N   1      32.135  17.525   6.817  0.00  0.00     0.009 C 
ENDBRANCH  80  81
ENDBRANCH  33  80
BRANCH  17  84
HETATM   84  C   UNK N   1      31.268   6.405   2.645  0.00  0.00     0.009 C 
HETATM   85  C   UNK N   1      30.824   5.221   3.479  0.00  0.00     0.012 C 
HETATM   86  C   UNK N   1      32.569   6.973   3.173  0.00  0.00     0.012 C 
ENDBRANCH  17  84
BRANCH  21  87
HETATM   87  C   UNK N   1      31.491  10.659  -0.242  0.00  0.00     0.039 C 
BRANCH  87  88
HETATM   88  C   UNK N   1      31.168  11.600  -1.439  0.00  0.00    -0.020 C 
HETATM   89  C   UNK N   1      32.412  12.254  -2.002  0.00  0.00     0.009 C 
HETATM   90  C   UNK N   1      30.349  11.002  -2.577  0.00  0.00     0.009 C 
ENDBRANCH  87  88
ENDBRANCH  21  87
TORSDOF 15
ENDMDL
MODEL 8
REMARK VINA RESULT:      -6.1      2.796      5.845
REMARK  15 active torsions:
REMARK  status: ('A' for Active; 'I' for Inactive)
REMARK    1  A    between atoms: C_3  and  C_4 
REMARK    2  A    between atoms: C_4  and  C_5 
REMARK    3  A    between atoms: C_5  and  C_7 
REMARK    4  A    between atoms: C_9  and  C_7 
REMARK    5  A    between atoms: C_13  and  C_84 
REMARK    6  A    between atoms: C_21  and  C_78 
REMARK    7  A    between atoms: C_25  and  C_75 
REMARK    8  A    between atoms: C_29  and  C_70 
REMARK    9  A    between atoms: C_41  and  C_63 
REMARK   10  A    between atoms: C_45  and  C_58 
REMARK   11  A    between atoms: C_49  and  C_54 
REMARK   12  A    between atoms: C_58  and  C_59 
REMARK   13  A    between atoms: C_63  and  C_64 
REMARK   14  A    between atoms: C_70  and  C_71 
REMARK   15  A    between atoms: C_78  and  C_79 
ROOT
HETATM    1  C   UNK N   1      28.055  14.837   4.346  0.00  0.00     0.249 C 
HETATM    2  C   UNK N   1      29.473  14.965   3.899  0.00  0.00     0.248 C 
HETATM    3  O   UNK N   1      29.764  14.772   2.733  0.00  0.00    -0.271 OA
HETATM    4  N   UNK N   1      30.431  15.306   4.799  0.00  0.00    -0.345 N 
HETATM    5  C   UNK N   1      31.828  15.537   4.449  0.00  0.00     0.180 C 
HETATM    6  C   UNK N   1      32.304  14.587   3.343  0.00  0.00     0.243 C 
HETATM    7  O   UNK N   1      32.765  15.046   2.306  0.00  0.00    -0.271 OA
HETATM    8  N   UNK N   1      32.141  13.238   3.471  0.00  0.00    -0.346 N 
HETATM    9  C   UNK N   1      31.598  12.680   4.679  0.00  0.00     0.228 C 
HETATM   10  C   UNK N   1      32.687  12.568   5.701  0.00  0.00     0.238 C 
HETATM   11  O   UNK N   1      33.308  13.572   6.021  0.00  0.00    -0.272 OA
HETATM   12  N   UNK N   1      32.979  11.360   6.253  0.00  0.00    -0.342 N 
HETATM   13  C   UNK N   1      34.093  11.193   7.208  0.00  0.00     0.179 C 
HETATM   14  C   UNK N   1      34.063   9.839   7.881  0.00  0.00     0.241 C 
HETATM   15  O   UNK N   1      33.971   9.754   9.098  0.00  0.00    -0.271 OA
HETATM   16  N   UNK N   1      34.001   8.728   7.111  0.00  0.00    -0.346 N 
HETATM   17  C   UNK N   1      33.542   7.453   7.600  0.00  0.00     0.180 C 
HETATM   18  C   UNK N   1      32.323   7.501   8.491  0.00  0.00     0.243 C 
HETATM   19  O   UNK N   1      32.491   7.482   9.701  0.00  0.00    -0.271 OA
HETATM   20  N   UNK N   1      31.065   7.472   7.944  0.00  0.00    -0.341 N 
HETATM   21  C   UNK N   1      29.847   7.067   8.669  0.00  0.00     0.179 C 
HETATM   22  C   UNK N   1      29.394   5.763   8.059  0.00  0.00     0.241 C 
HETATM   23  O   UNK N   1      30.176   5.177   7.322  0.00  0.00    -0.271 OA
HETATM   24  N   UNK N   1      28.205   5.189   8.385  0.00  0.00    -0.346 N 
HETATM   25  C   UNK N   1      27.904   3.806   8.039  0.00  0.00     0.172 C 
HETATM   26  C   UNK N   1      28.429   3.390   6.677  0.00  0.00     0.240 C 
HETATM   27  O   UNK N   1      29.428   2.691   6.635  0.00  0.00    -0.271 OA
HETATM   28  N   UNK N   1      27.921   3.873   5.519  0.00  0.00    -0.346 N 
HETATM   29  C   UNK N   1      26.596   4.413   5.429  0.00  0.00     0.172 C 
HETATM   30  C   UNK N   1      26.225   5.862   5.525  0.00  0.00     0.242 C 
HETATM   31  O   UNK N   1      25.561   6.214   6.487  0.00  0.00    -0.271 OA
HETATM   32  N   UNK N   1      26.374   6.680   4.444  0.00  0.00    -0.341 N 
HETATM   33  C   UNK N   1      25.342   7.647   4.094  0.00  0.00     0.179 C 
HETATM   34  C   UNK N   1      24.925   8.785   5.017  0.00  0.00     0.243 C 
HETATM   35  O   UNK N   1      25.188   8.734   6.205  0.00  0.00    -0.271 OA
HETATM   36  N   UNK N   1      24.276   9.885   4.507  0.00  0.00    -0.341 N 
HETATM   37  C   UNK N   1      23.966  10.040   3.092  0.00  0.00     0.179 C 
HETATM   38  C   UNK N   1      25.175   9.847   2.166  0.00  0.00     0.243 C 
HETATM   39  O   UNK N   1      25.196   8.924   1.373  0.00  0.00    -0.271 OA
HETATM   40  N   UNK N   1      26.220  10.724   2.242  0.00  0.00    -0.341 N 
HETATM   41  C   UNK N   1      26.056  11.919   3.049  0.00  0.00     0.182 C 
HETATM   42  C   UNK N   1      27.200  12.888   3.122  0.00  0.00     0.243 C 
HETATM   43  O   UNK N   1      27.725  13.265   2.086  0.00  0.00    -0.271 OA
HETATM   44  N   UNK N   1      27.464  13.515   4.306  0.00  0.00    -0.335 N 
HETATM   45  C   UNK N   1      26.867  13.032   5.531  0.00  0.00     0.154 C 
HETATM   46  C   UNK N   1      27.410  10.501   1.440  0.00  0.00     0.153 C 
HETATM   47  C   UNK N   1      23.905  10.965   5.395  0.00  0.00     0.153 C 
HETATM   48  C   UNK N   1      27.266   6.296   3.375  0.00  0.00     0.153 C 
HETATM   49  C   UNK N   1      25.476   3.392   5.450  0.00  0.00     0.042 C 
HETATM   50  C   UNK N   1      26.462   3.450   8.341  0.00  0.00     0.042 C 
HETATM   51  C   UNK N   1      30.920   7.681   6.517  0.00  0.00     0.153 C 
HETATM   52  C   UNK N   1      32.192  10.228   5.813  0.00  0.00     0.153 C 
HETATM   53  C   UNK N   1      32.459  12.345   2.384  0.00  0.00     0.153 C 
HETATM   54  H   UNK N   1      30.166  15.402   5.742  0.00  0.00     0.163 HD
HETATM   55  H   UNK N   1      34.283   8.795   6.170  0.00  0.00     0.163 HD
HETATM   56  H   UNK N   1      27.530   5.722   8.865  0.00  0.00     0.163 HD
HETATM   57  H   UNK N   1      28.482   3.853   4.709  0.00  0.00     0.163 HD
ENDROOT
BRANCH   1  58
HETATM   58  C   UNK N   1      27.060  15.889   3.873  0.00  0.00     0.163 C 
HETATM   59  O   UNK N   1      26.730  15.839   2.700  0.00  0.00    -0.295 OA
BRANCH  58  60
HETATM   60  C   UNK N   1      26.488  17.034   4.707  0.00  0.00     0.057 C 
HETATM   61  C   UNK N   1      25.151  16.666   5.314  0.00  0.00     0.018 C 
BRANCH  60  62
HETATM   62  C   UNK N   1      26.372  18.419   4.097  0.00  0.00     0.038 C 
BRANCH  62  63
HETATM   63  C   UNK N   1      26.298  19.465   5.159  0.00  0.00    -0.030 C 
HETATM   64  C   UNK N   1      27.152  20.486   5.173  0.00  0.00    -0.035 C 
HETATM   65  C   UNK N   1      27.067  21.510   6.250  0.00  0.00     0.036 C 
ENDBRANCH  62  63
ENDBRANCH  60  62
ENDBRANCH  58  60
ENDBRANCH   1  58
BRANCH   5  66
HETATM   66  C   UNK N   1      32.031  17.025   4.129  0.00  0.00     0.009 C 
HETATM   67  C   UNK N   1      33.276  17.564   4.808  0.00  0.00     0.012 C 
HETATM   68  C   UNK N   1      30.842  17.850   4.593  0.00  0.00     0.012 C 
ENDBRANCH   5  66
BRANCH  41  69
HETATM   69  C   UNK N   1      24.798  12.666   2.548  0.00  0.00     0.009 C 
HETATM   70  C   UNK N   1      24.188  13.655   3.520  0.00  0.00     0.012 C 
HETATM   71  C   UNK N   1      24.849  13.145   1.104  0.00  0.00     0.012 C 
ENDBRANCH  41  69
BRANCH  37  72
HETATM   72  C   UNK N   1      22.608   9.467   2.692  0.00  0.00     0.039 C 
BRANCH  72  73
HETATM   73  C   UNK N   1      21.593  10.512   2.226  0.00  0.00    -0.020 C 
HETATM   74  C   UNK N   1      21.829  10.944   0.788  0.00  0.00     0.009 C 
HETATM   75  C   UNK N   1      20.162  10.055   2.423  0.00  0.00     0.009 C 
ENDBRANCH  72  73
ENDBRANCH  37  72
BRANCH  13  76
HETATM   76  C   UNK N   1      34.093  12.316   8.264  0.00  0.00     0.039 C 
BRANCH  76  77
HETATM   77  C   UNK N   1      35.485  12.871   8.562  0.00  0.00    -0.020 C 
HETATM   78  C   UNK N   1      36.442  12.646   7.411  0.00  0.00     0.009 C 
HETATM   79  C   UNK N   1      35.452  14.342   8.951  0.00  0.00     0.009 C 
ENDBRANCH  76  77
ENDBRANCH  13  76
BRANCH  33  80
HETATM   80  C   UNK N   1      24.258   7.008   3.196  0.00  0.00     0.039 C 
BRANCH  80  81
HETATM   81  C   UNK N   1      23.337   5.878   3.675  0.00  0.00    -0.020 C 
HETATM   82  C   UNK N   1      23.042   4.920   2.545  0.00  0.00     0.009 C 
HETATM   83  C   UNK N   1      22.038   6.277   4.325  0.00  0.00     0.009 C 
ENDBRANCH  80  81
ENDBRANCH  33  80
BRANCH  17  84
HETATM   84  C   UNK N   1      34.587   6.390   7.918  0.00  0.00     0.009 C 
HETATM   85  C   UNK N   1      35.841   6.560   7.084  0.00  0.00     0.012 C 
HETATM   86  C   UNK N   1      34.023   4.993   7.755  0.00  0.00     0.012 C 
ENDBRANCH  17  84
BRANCH  21  87
HETATM   87  C   UNK N   1      30.003   6.869  10.205  0.00  0.00     0.039 C 
BRANCH  87  88
HETATM   88  C   UNK N   1      30.020   5.423  10.780  0.00  0.00    -0.020 C 
HETATM   89  C   UNK N   1      31.427   4.885  10.929  0.00  0.00     0.009 C 
HETATM   90  C   UNK N   1      29.250   5.194  12.076  0.00  0.00     0.009 C 
ENDBRANCH  87  88
ENDBRANCH  21  87
TORSDOF 15
ENDMDL
MODEL 9
REMARK VINA RESULT:      -6.1     14.940     20.621
REMARK  15 active torsions:
REMARK  status: ('A' for Active; 'I' for Inactive)
REMARK    1  A    between atoms: C_3  and  C_4 
REMARK    2  A    between atoms: C_4  and  C_5 
REMARK    3  A    between atoms: C_5  and  C_7 
REMARK    4  A    between atoms: C_9  and  C_7 
REMARK    5  A    between atoms: C_13  and  C_84 
REMARK    6  A    between atoms: C_21  and  C_78 
REMARK    7  A    between atoms: C_25  and  C_75 
REMARK    8  A    between atoms: C_29  and  C_70 
REMARK    9  A    between atoms: C_41  and  C_63 
REMARK   10  A    between atoms: C_45  and  C_58 
REMARK   11  A    between atoms: C_49  and  C_54 
REMARK   12  A    between atoms: C_58  and  C_59 
REMARK   13  A    between atoms: C_63  and  C_64 
REMARK   14  A    between atoms: C_70  and  C_71 
REMARK   15  A    between atoms: C_78  and  C_79 
ROOT
HETATM    1  C   UNK N   1      34.514  22.038  -5.730  0.00  0.00     0.249 C 
HETATM    2  C   UNK N   1      34.809  23.454  -6.098  0.00  0.00     0.248 C 
HETATM    3  O   UNK N   1      35.231  23.719  -7.209  0.00  0.00    -0.271 OA
HETATM    4  N   UNK N   1      34.594  24.441  -5.191  0.00  0.00    -0.345 N 
HETATM    5  C   UNK N   1      34.770  25.860  -5.477  0.00  0.00     0.180 C 
HETATM    6  C   UNK N   1      35.955  26.110  -6.419  0.00  0.00     0.243 C 
HETATM    7  O   UNK N   1      35.777  26.702  -7.474  0.00  0.00    -0.271 OA
HETATM    8  N   UNK N   1      37.189  25.603  -6.127  0.00  0.00    -0.346 N 
HETATM    9  C   UNK N   1      37.417  24.901  -4.894  0.00  0.00     0.228 C 
HETATM   10  C   UNK N   1      37.651  25.896  -3.799  0.00  0.00     0.238 C 
HETATM   11  O   UNK N   1      36.799  26.742  -3.573  0.00  0.00    -0.272 OA
HETATM   12  N   UNK N   1      38.802  25.853  -3.078  0.00  0.00    -0.342 N 
HETATM   13  C   UNK N   1      39.104  26.859  -2.039  0.00  0.00     0.179 C 
HETATM   14  C   UNK N   1      40.299  26.464  -1.200  0.00  0.00     0.241 C 
HETATM   15  O   UNK N   1      40.185  26.318   0.010  0.00  0.00    -0.271 OA
HETATM   16  N   UNK N   1      41.457  26.142  -1.822  0.00  0.00    -0.346 N 
HETATM   17  C   UNK N   1      42.495  25.359  -1.201  0.00  0.00     0.180 C 
HETATM   18  C   UNK N   1      42.019  24.168  -0.404  0.00  0.00     0.243 C 
HETATM   19  O   UNK N   1      41.908  24.290   0.806  0.00  0.00    -0.271 OA
HETATM   20  N   UNK N   1      41.811  22.960  -1.022  0.00  0.00    -0.341 N 
HETATM   21  C   UNK N   1      41.793  21.658  -0.330  0.00  0.00     0.179 C 
HETATM   22  C   UNK N   1      43.016  20.906  -0.794  0.00  0.00     0.241 C 
HETATM   23  O   UNK N   1      43.876  21.532  -1.397  0.00  0.00    -0.271 OA
HETATM   24  N   UNK N   1      43.223  19.600  -0.473  0.00  0.00    -0.346 N 
HETATM   25  C   UNK N   1      44.522  18.966  -0.654  0.00  0.00     0.172 C 
HETATM   26  C   UNK N   1      45.244  19.406  -1.916  0.00  0.00     0.240 C 
HETATM   27  O   UNK N   1      46.169  20.194  -1.802  0.00  0.00    -0.271 OA
HETATM   28  N   UNK N   1      44.819  19.072  -3.156  0.00  0.00    -0.346 N 
HETATM   29  C   UNK N   1      43.985  17.933  -3.400  0.00  0.00     0.172 C 
HETATM   30  C   UNK N   1      42.491  17.941  -3.517  0.00  0.00     0.242 C 
HETATM   31  O   UNK N   1      41.852  17.362  -2.653  0.00  0.00    -0.271 OA
HETATM   32  N   UNK N   1      41.896  18.326  -4.683  0.00  0.00    -0.341 N 
HETATM   33  C   UNK N   1      40.763  17.586  -5.221  0.00  0.00     0.179 C 
HETATM   34  C   UNK N   1      39.438  17.447  -4.482  0.00  0.00     0.243 C 
HETATM   35  O   UNK N   1      39.384  17.654  -3.283  0.00  0.00    -0.271 OA
HETATM   36  N   UNK N   1      38.295  17.116  -5.171  0.00  0.00    -0.341 N 
HETATM   37  C   UNK N   1      38.270  16.897  -6.610  0.00  0.00     0.179 C 
HETATM   38  C   UNK N   1      38.887  18.043  -7.424  0.00  0.00     0.243 C 
HETATM   39  O   UNK N   1      39.888  17.850  -8.088  0.00  0.00    -0.271 OA
HETATM   40  N   UNK N   1      38.296  19.275  -7.396  0.00  0.00    -0.341 N 
HETATM   41  C   UNK N   1      36.996  19.398  -6.764  0.00  0.00     0.182 C 
HETATM   42  C   UNK N   1      36.343  20.749  -6.743  0.00  0.00     0.243 C 
HETATM   43  O   UNK N   1      36.259  21.383  -7.784  0.00  0.00    -0.271 OA
HETATM   44  N   UNK N   1      35.640  21.131  -5.637  0.00  0.00    -0.335 N 
HETATM   45  C   UNK N   1      35.781  20.395  -4.399  0.00  0.00     0.154 C 
HETATM   46  C   UNK N   1      38.921  20.391  -8.085  0.00  0.00     0.153 C 
HETATM   47  C   UNK N   1      37.041  17.008  -4.455  0.00  0.00     0.153 C 
HETATM   48  C   UNK N   1      42.638  19.121  -5.633  0.00  0.00     0.153 C 
HETATM   49  C   UNK N   1      44.681  16.589  -3.318  0.00  0.00     0.042 C 
HETATM   50  C   UNK N   1      44.461  17.473  -0.403  0.00  0.00     0.042 C 
HETATM   51  C   UNK N   1      41.777  22.915  -2.471  0.00  0.00     0.153 C 
HETATM   52  C   UNK N   1      39.754  24.815  -3.417  0.00  0.00     0.153 C 
HETATM   53  C   UNK N   1      38.278  25.713  -7.067  0.00  0.00     0.153 C 
HETATM   54  H   UNK N   1      34.302  24.182  -4.287  0.00  0.00     0.163 HD
HETATM   55  H   UNK N   1      41.597  26.459  -2.743  0.00  0.00     0.163 HD
HETATM   56  H   UNK N   1      42.477  19.070  -0.110  0.00  0.00     0.163 HD
HETATM   57  H   UNK N   1      45.093  19.632  -3.919  0.00  0.00     0.163 HD
ENDROOT
BRANCH   1  58
HETATM   58  C   UNK N   1      33.326  21.359  -6.398  0.00  0.00     0.163 C 
HETATM   59  O   UNK N   1      33.134  21.628  -7.573  0.00  0.00    -0.295 OA
BRANCH  58  60
HETATM   60  C   UNK N   1      32.318  20.430  -5.725  0.00  0.00     0.057 C 
HETATM   61  C   UNK N   1      30.922  20.631  -6.276  0.00  0.00     0.018 C 
BRANCH  60  62
HETATM   62  C   UNK N   1      32.235  20.387  -4.211  0.00  0.00     0.038 C 
BRANCH  62  63
HETATM   63  C   UNK N   1      31.086  21.201  -3.716  0.00  0.00    -0.030 C 
HETATM   64  C   UNK N   1      31.272  22.183  -2.837  0.00  0.00    -0.035 C 
HETATM   65  C   UNK N   1      30.110  22.973  -2.349  0.00  0.00     0.036 C 
ENDBRANCH  62  63
ENDBRANCH  60  62
ENDBRANCH  58  60
ENDBRANCH   1  58
BRANCH   5  66
HETATM   66  C   UNK N   1      33.440  26.446  -5.974  0.00  0.00     0.009 C 
HETATM   67  C   UNK N   1      33.277  27.886  -5.525  0.00  0.00     0.012 C 
HETATM   68  C   UNK N   1      32.260  25.647  -5.446  0.00  0.00     0.012 C 
ENDBRANCH   5  66
BRANCH  41  69
HETATM   69  C   UNK N   1      36.038  18.388  -7.436  0.00  0.00     0.009 C 
HETATM   70  C   UNK N   1      34.784  18.049  -6.657  0.00  0.00     0.012 C 
HETATM   71  C   UNK N   1      35.822  18.581  -8.931  0.00  0.00     0.012 C 
ENDBRANCH  41  69
BRANCH  37  72
HETATM   72  C   UNK N   1      38.537  15.450  -7.019  0.00  0.00     0.039 C 
BRANCH  72  73
HETATM   73  C   UNK N   1      37.592  14.911  -8.095  0.00  0.00    -0.020 C 
HETATM   74  C   UNK N   1      38.155  13.685  -8.794  0.00  0.00     0.009 C 
HETATM   75  C   UNK N   1      36.203  14.635  -7.558  0.00  0.00     0.009 C 
ENDBRANCH  72  73
ENDBRANCH  37  72
BRANCH  13  76
HETATM   76  C   UNK N   1      37.879  27.115  -1.140  0.00  0.00     0.039 C 
BRANCH  76  77
HETATM   77  C   UNK N   1      37.709  28.582  -0.747  0.00  0.00    -0.020 C 
HETATM   78  C   UNK N   1      38.353  29.515  -1.750  0.00  0.00     0.009 C 
HETATM   79  C   UNK N   1      36.251  28.958  -0.526  0.00  0.00     0.009 C 
ENDBRANCH  76  77
ENDBRANCH  13  76
BRANCH  33  80
HETATM   80  C   UNK N   1      41.232  16.401  -6.096  0.00  0.00     0.039 C 
BRANCH  80  81
HETATM   81  C   UNK N   1      41.937  15.166  -5.519  0.00  0.00    -0.020 C 
HETATM   82  C   UNK N   1      42.374  14.239  -6.629  0.00  0.00     0.009 C 
HETATM   83  C   UNK N   1      41.187  14.366  -4.486  0.00  0.00     0.009 C 
ENDBRANCH  80  81
ENDBRANCH  33  80
BRANCH  17  84
HETATM   84  C   UNK N   1      43.729  26.088  -0.682  0.00  0.00     0.009 C 
HETATM   85  C   UNK N   1      44.008  27.357  -1.462  0.00  0.00     0.012 C 
HETATM   86  C   UNK N   1      44.945  25.185  -0.680  0.00  0.00     0.012 C 
ENDBRANCH  17  84
BRANCH  21  87
HETATM   87  C   UNK N   1      41.803  21.714   1.225  0.00  0.00     0.039 C 
BRANCH  87  88
HETATM   88  C   UNK N   1      40.542  21.241   2.004  0.00  0.00    -0.020 C 
HETATM   89  C   UNK N   1      39.477  20.687   1.082  0.00  0.00     0.009 C 
HETATM   90  C   UNK N   1      40.774  20.268   3.154  0.00  0.00     0.009 C 
ENDBRANCH  87  88
ENDBRANCH  21  87
TORSDOF 15
ENDMDL
