MODEL 1
REMARK VINA RESULT:      -7.3      0.000      0.000
REMARK  22 active torsions:
REMARK  status: ('A' for Active; 'I' for Inactive)
REMARK    1  A    between atoms: C_4  and  O_47 
REMARK    2  A    between atoms: C_7  and  C_8 
REMARK    3  A    between atoms: C_8  and  C_9 
REMARK    4  A    between atoms: C_9  and  C_10 
REMARK    5  A    between atoms: C_9  and  N_33 
REMARK       I    between atoms: C_10  and  N_12 
REMARK    6  A    between atoms: C_13  and  N_12 
REMARK    7  A    between atoms: C_13  and  C_14 
REMARK    8  A    between atoms: C_13  and  C_19 
REMARK    9  A    between atoms: C_14  and  C_15 
REMARK   10  A    between atoms: C_15  and  C_16 
REMARK   11  A    between atoms: C_16  and  C_17 
REMARK   12  A    between atoms: C_17  and  N_18 
REMARK       I    between atoms: C_19  and  N_21 
REMARK   13  A    between atoms: C_22  and  N_21 
REMARK   14  A    between atoms: C_22  and  C_23 
REMARK   15  A    between atoms: C_22  and  C_30 
REMARK   16  A    between atoms: C_23  and  C_24 
REMARK       I    between atoms: C_30  and  N_32 
REMARK       I    between atoms: N_33  and  C_34 
REMARK   17  A    between atoms: C_34  and  C_36 
REMARK   18  A    between atoms: C_36  and  C_37 
REMARK   19  A    between atoms: C_36  and  N_45 
REMARK   20  A    between atoms: C_37  and  C_38 
REMARK   21  A    between atoms: C_38  and  C_39 
REMARK   22  A    between atoms: C_39  and  N_40 
REMARK       I    between atoms: N_40  and  C_41 
REMARK       I    between atoms: C_41  and  N_44 
ROOT
HETATM    1  C   UNK N   1      22.080  16.747   5.639  0.00  0.00     0.180 C 
ENDROOT
BRANCH   1   2
HETATM    2  C   UNK N   1      20.911  15.764   5.785  0.00  0.00     0.074 C 
BRANCH   2   3
HETATM    3  C   UNK N   1      20.891  14.928   7.051  0.00  0.00    -0.044 A 
HETATM    4  C   UNK N   1      20.605  15.490   8.317  0.00  0.00    -0.052 A 
HETATM    5  C   UNK N   1      20.645  14.698   9.467  0.00  0.00     0.043 A 
HETATM    6  C   UNK N   1      20.282  16.924   8.483  0.00  0.00     0.049 C 
HETATM    7  C   UNK N   1      20.971  13.348   9.382  0.00  0.00     0.066 A 
HETATM    8  C   UNK N   1      21.256  12.778   8.143  0.00  0.00     0.043 A 
HETATM    9  C   UNK N   1      21.218  13.555   6.980  0.00  0.00    -0.052 A 
HETATM   10  C   UNK N   1      21.553  12.905   5.679  0.00  0.00     0.049 C 
BRANCH   7  11
HETATM   11  O   UNK N   1      21.019  12.600  10.497  0.00  0.00    -0.361 OA
HETATM   12  H   UNK N   1      20.235  12.234  10.856  0.00  0.00     0.217 HD
ENDBRANCH   7  11
ENDBRANCH   2   3
ENDBRANCH   1   2
BRANCH   1  13
HETATM   13  C   UNK N   1      23.352  16.024   5.309  0.00  0.00     0.241 C 
HETATM   14  O   UNK N   1      23.572  15.670   4.160  0.00  0.00    -0.271 OA
HETATM   15  N   UNK N   1      24.254  15.800   6.301  0.00  0.00    -0.346 N 
HETATM   16  H   UNK N   1      23.993  16.098   7.203  0.00  0.00     0.163 HD
BRANCH  15  17
HETATM   17  C   UNK N   1      25.561  15.170   6.183  0.00  0.00     0.176 C 
BRANCH  17  18
HETATM   18  C   UNK N   1      25.795  13.942   7.052  0.00  0.00     0.035 C 
BRANCH  18  19
HETATM   19  C   UNK N   1      24.745  13.902   8.145  0.00  0.00     0.004 C 
BRANCH  19  20
HETATM   20  C   UNK N   1      24.575  12.486   8.672  0.00  0.00     0.019 C 
BRANCH  20  21
HETATM   21  C   UNK N   1      24.580  12.460  10.194  0.00  0.00     0.111 C 
BRANCH  21  22
HETATM   22  N   UNK N   1      25.609  13.350  10.709  0.00  0.00    -0.430 N 
HETATM   23  H   UNK N   1      25.738  14.361  10.699  0.00  0.00     0.149 HD
HETATM   24  H   UNK N   1      26.363  12.855  11.184  0.00  0.00     0.149 HD
ENDBRANCH  21  22
ENDBRANCH  20  21
ENDBRANCH  19  20
ENDBRANCH  18  19
ENDBRANCH  17  18
BRANCH  17  25
HETATM   25  C   UNK N   1      26.650  16.179   6.337  0.00  0.00     0.241 C 
HETATM   26  O   UNK N   1      27.190  16.306   7.425  0.00  0.00    -0.271 OA
HETATM   27  N   UNK N   1      27.041  16.938   5.284  0.00  0.00    -0.346 N 
HETATM   28  H   UNK N   1      26.559  16.869   4.428  0.00  0.00     0.163 HD
BRANCH  27  29
HETATM   29  C   UNK N   1      28.155  17.846   5.405  0.00  0.00     0.180 C 
BRANCH  29  30
HETATM   30  C   UNK N   1      29.178  17.640   4.299  0.00  0.00     0.073 C 
BRANCH  30  31
HETATM   31  C   UNK N   1      30.507  17.447   4.950  0.00  0.00    -0.056 A 
HETATM   32  C   UNK N   1      30.572  17.137   6.313  0.00  0.00     0.007 A 
HETATM   33  C   UNK N   1      31.812  17.031   6.951  0.00  0.00     0.001 A 
HETATM   34  C   UNK N   1      32.990  17.237   6.225  0.00  0.00     0.000 A 
HETATM   35  C   UNK N   1      32.928  17.542   4.862  0.00  0.00     0.001 A 
HETATM   36  C   UNK N   1      31.689  17.651   4.227  0.00  0.00     0.007 A 
ENDBRANCH  30  31
ENDBRANCH  29  30
BRANCH  29  37
HETATM   37  C   UNK N   1      27.724  19.264   5.600  0.00  0.00     0.238 C 
HETATM   38  O   UNK N   1      27.900  20.070   4.701  0.00  0.00    -0.271 OA
HETATM   39  N   UNK N   1      27.171  19.663   6.762  0.00  0.00    -0.368 N 
HETATM   40  H   UNK N   1      26.872  19.374   7.654  0.00  0.00     0.159 HD
HETATM   41  H   UNK N   1      26.995  20.629   6.690  0.00  0.00     0.159 HD
ENDBRANCH  29  37
ENDBRANCH  27  29
ENDBRANCH  17  25
ENDBRANCH  15  17
ENDBRANCH   1  13
BRANCH   1  42
HETATM   42  N   UNK N   1      21.809  17.667   4.561  0.00  0.00    -0.346 N 
HETATM   43  C   UNK N   1      21.273  18.897   4.782  0.00  0.00     0.240 C 
HETATM   44  O   UNK N   1      20.987  19.252   5.912  0.00  0.00    -0.271 OA
HETATM   45  H   UNK N   1      22.018  17.396   3.638  0.00  0.00     0.163 HD
BRANCH  43  46
HETATM   46  C   UNK N   1      21.072  19.849   3.630  0.00  0.00     0.167 C 
BRANCH  46  47
HETATM   47  C   UNK N   1      19.950  19.402   2.686  0.00  0.00     0.036 C 
BRANCH  47  48
HETATM   48  C   UNK N   1      20.440  18.732   1.401  0.00  0.00     0.023 C 
BRANCH  48  49
HETATM   49  C   UNK N   1      20.213  17.226   1.395  0.00  0.00     0.138 C 
BRANCH  49  50
HETATM   50  N   UNK N   1      19.116  16.867   0.528  0.00  0.00    -0.227 N 
HETATM   51  C   UNK N   1      18.796  15.517   0.230  0.00  0.00     0.665 C 
HETATM   52  N   UNK N   1      17.817  15.256  -0.553  0.00  0.00    -0.235 N 
HETATM   53  N   UNK N   1      19.560  14.459   0.773  0.00  0.00    -0.235 N 
HETATM   54  H   UNK N   1      17.773  14.397  -1.030  0.00  0.00     0.174 HD
ATOM     55  HN  UNK N   1      17.077  15.946  -0.683  1.00  0.00     0.174 HD
HETATM   56  H   UNK N   1      20.206  14.577   1.506  0.00  0.00     0.174 HD
HETATM   57  H   UNK N   1      19.440  13.557   0.397  0.00  0.00     0.174 HD
HETATM   58  H   UNK N   1      18.572  17.584   0.128  0.00  0.00     0.177 HD
ENDBRANCH  49  50
ENDBRANCH  48  49
ENDBRANCH  47  48
ENDBRANCH  46  47
BRANCH  46  59
HETATM   59  N   UNK N   1      22.304  20.076   2.890  0.00  0.00    -0.418 N 
HETATM   60  H   UNK N   1      23.034  20.683   2.518  0.00  0.00     0.150 HD
HETATM   61  H   UNK N   1      22.583  19.142   2.586  0.00  0.00     0.150 HD
ENDBRANCH  46  59
ENDBRANCH  43  46
ENDBRANCH   1  42
TORSDOF 22
ENDMDL
MODEL 2
REMARK VINA RESULT:      -7.2      3.708      6.124
REMARK  22 active torsions:
REMARK  status: ('A' for Active; 'I' for Inactive)
REMARK    1  A    between atoms: C_4  and  O_47 
REMARK    2  A    between atoms: C_7  and  C_8 
REMARK    3  A    between atoms: C_8  and  C_9 
REMARK    4  A    between atoms: C_9  and  C_10 
REMARK    5  A    between atoms: C_9  and  N_33 
REMARK       I    between atoms: C_10  and  N_12 
REMARK    6  A    between atoms: C_13  and  N_12 
REMARK    7  A    between atoms: C_13  and  C_14 
REMARK    8  A    between atoms: C_13  and  C_19 
REMARK    9  A    between atoms: C_14  and  C_15 
REMARK   10  A    between atoms: C_15  and  C_16 
REMARK   11  A    between atoms: C_16  and  C_17 
REMARK   12  A    between atoms: C_17  and  N_18 
REMARK       I    between atoms: C_19  and  N_21 
REMARK   13  A    between atoms: C_22  and  N_21 
REMARK   14  A    between atoms: C_22  and  C_23 
REMARK   15  A    between atoms: C_22  and  C_30 
REMARK   16  A    between atoms: C_23  and  C_24 
REMARK       I    between atoms: C_30  and  N_32 
REMARK       I    between atoms: N_33  and  C_34 
REMARK   17  A    between atoms: C_34  and  C_36 
REMARK   18  A    between atoms: C_36  and  C_37 
REMARK   19  A    between atoms: C_36  and  N_45 
REMARK   20  A    between atoms: C_37  and  C_38 
REMARK   21  A    between atoms: C_38  and  C_39 
REMARK   22  A    between atoms: C_39  and  N_40 
REMARK       I    between atoms: N_40  and  C_41 
REMARK       I    between atoms: C_41  and  N_44 
ROOT
HETATM    1  C   UNK N   1      26.056  16.883   3.376  0.00  0.00     0.180 C 
ENDROOT
BRANCH   1   2
HETATM    2  C   UNK N   1      25.303  17.710   4.425  0.00  0.00     0.074 C 
BRANCH   2   3
HETATM    3  C   UNK N   1      24.264  18.680   3.896  0.00  0.00    -0.044 A 
HETATM    4  C   UNK N   1      22.886  18.363   3.864  0.00  0.00    -0.052 A 
HETATM    5  C   UNK N   1      21.966  19.262   3.322  0.00  0.00     0.043 A 
HETATM    6  C   UNK N   1      22.369  17.073   4.370  0.00  0.00     0.049 C 
HETATM    7  C   UNK N   1      22.392  20.481   2.803  0.00  0.00     0.066 A 
HETATM    8  C   UNK N   1      23.746  20.810   2.825  0.00  0.00     0.043 A 
HETATM    9  C   UNK N   1      24.682  19.922   3.366  0.00  0.00    -0.052 A 
HETATM   10  C   UNK N   1      26.123  20.310   3.347  0.00  0.00     0.049 C 
BRANCH   7  11
HETATM   11  O   UNK N   1      21.498  21.331   2.272  0.00  0.00    -0.361 OA
HETATM   12  H   UNK N   1      21.282  22.129   2.715  0.00  0.00     0.217 HD
ENDBRANCH   7  11
ENDBRANCH   2   3
ENDBRANCH   1   2
BRANCH   1  13
HETATM   13  C   UNK N   1      27.439  16.544   3.852  0.00  0.00     0.241 C 
HETATM   14  O   UNK N   1      27.779  15.375   3.954  0.00  0.00    -0.271 OA
HETATM   15  N   UNK N   1      28.300  17.557   4.136  0.00  0.00    -0.346 N 
HETATM   16  H   UNK N   1      27.942  18.470   4.047  0.00  0.00     0.163 HD
BRANCH  15  17
HETATM   17  C   UNK N   1      29.688  17.446   4.556  0.00  0.00     0.176 C 
BRANCH  17  18
HETATM   18  C   UNK N   1      30.596  16.609   3.664  0.00  0.00     0.035 C 
BRANCH  18  19
HETATM   19  C   UNK N   1      31.966  17.258   3.607  0.00  0.00     0.004 C 
BRANCH  19  20
HETATM   20  C   UNK N   1      33.008  16.363   4.260  0.00  0.00     0.019 C 
BRANCH  20  21
HETATM   21  C   UNK N   1      32.711  14.893   4.001  0.00  0.00     0.111 C 
BRANCH  21  22
HETATM   22  N   UNK N   1      32.534  14.186   5.259  0.00  0.00    -0.430 N 
HETATM   23  H   UNK N   1      33.173  13.734   5.912  0.00  0.00     0.149 HD
HETATM   24  H   UNK N   1      31.559  14.131   5.552  0.00  0.00     0.149 HD
ENDBRANCH  21  22
ENDBRANCH  20  21
ENDBRANCH  19  20
ENDBRANCH  18  19
ENDBRANCH  17  18
BRANCH  17  25
HETATM   25  C   UNK N   1      29.777  17.032   5.987  0.00  0.00     0.241 C 
HETATM   26  O   UNK N   1      30.087  15.880   6.252  0.00  0.00    -0.271 OA
HETATM   27  N   UNK N   1      29.524  17.920   6.980  0.00  0.00    -0.346 N 
HETATM   28  H   UNK N   1      29.218  18.828   6.754  0.00  0.00     0.163 HD
BRANCH  27  29
HETATM   29  C   UNK N   1      29.700  17.549   8.362  0.00  0.00     0.180 C 
BRANCH  29  30
HETATM   30  C   UNK N   1      30.902  18.239   8.988  0.00  0.00     0.073 C 
BRANCH  30  31
HETATM   31  C   UNK N   1      32.123  17.515   8.528  0.00  0.00    -0.056 A 
HETATM   32  C   UNK N   1      32.268  16.153   8.811  0.00  0.00     0.007 A 
HETATM   33  C   UNK N   1      33.442  15.482   8.454  0.00  0.00     0.001 A 
HETATM   34  C   UNK N   1      34.474  16.175   7.814  0.00  0.00     0.000 A 
HETATM   35  C   UNK N   1      34.330  17.536   7.525  0.00  0.00     0.001 A 
HETATM   36  C   UNK N   1      33.158  18.205   7.885  0.00  0.00     0.007 A 
ENDBRANCH  30  31
ENDBRANCH  29  30
BRANCH  29  37
HETATM   37  C   UNK N   1      28.436  17.657   9.153  0.00  0.00     0.238 C 
HETATM   38  O   UNK N   1      28.204  16.835  10.024  0.00  0.00    -0.271 OA
HETATM   39  N   UNK N   1      27.544  18.635   8.897  0.00  0.00    -0.368 N 
HETATM   40  H   UNK N   1      27.353  19.427   8.346  0.00  0.00     0.159 HD
HETATM   41  H   UNK N   1      26.779  18.503   9.502  0.00  0.00     0.159 HD
ENDBRANCH  29  37
ENDBRANCH  27  29
ENDBRANCH  17  25
ENDBRANCH  15  17
ENDBRANCH   1  13
BRANCH   1  42
HETATM   42  N   UNK N   1      25.359  15.641   3.144  0.00  0.00    -0.346 N 
HETATM   43  C   UNK N   1      25.283  15.079   1.907  0.00  0.00     0.240 C 
HETATM   44  O   UNK N   1      25.795  15.628   0.947  0.00  0.00    -0.271 OA
HETATM   45  H   UNK N   1      24.925  15.187   3.902  0.00  0.00     0.163 HD
BRANCH  43  46
HETATM   46  C   UNK N   1      24.601  13.746   1.727  0.00  0.00     0.167 C 
BRANCH  46  47
HETATM   47  C   UNK N   1      23.187  13.723   2.317  0.00  0.00     0.036 C 
BRANCH  47  48
HETATM   48  C   UNK N   1      22.072  13.670   1.271  0.00  0.00     0.023 C 
BRANCH  48  49
HETATM   49  C   UNK N   1      20.879  14.547   1.632  0.00  0.00     0.138 C 
BRANCH  49  50
HETATM   50  N   UNK N   1      20.808  15.708   0.778  0.00  0.00    -0.227 N 
HETATM   51  C   UNK N   1      20.090  16.875   1.146  0.00  0.00     0.665 C 
HETATM   52  N   UNK N   1      20.052  17.874   0.346  0.00  0.00    -0.235 N 
HETATM   53  N   UNK N   1      19.399  16.938   2.378  0.00  0.00    -0.235 N 
HETATM   54  H   UNK N   1      19.327  18.537   0.406  0.00  0.00     0.174 HD
ATOM     55  HN  UNK N   1      20.780  17.983  -0.361  1.00  0.00     0.174 HD
HETATM   56  H   UNK N   1      19.526  16.287   3.105  0.00  0.00     0.174 HD
HETATM   57  H   UNK N   1      18.757  17.673   2.515  0.00  0.00     0.174 HD
HETATM   58  H   UNK N   1      21.272  15.689  -0.090  0.00  0.00     0.177 HD
ENDBRANCH  49  50
ENDBRANCH  48  49
ENDBRANCH  47  48
ENDBRANCH  46  47
BRANCH  46  59
HETATM   59  N   UNK N   1      25.397  12.652   2.261  0.00  0.00    -0.418 N 
HETATM   60  H   UNK N   1      26.207  12.286   2.761  0.00  0.00     0.150 HD
HETATM   61  H   UNK N   1      24.872  11.817   2.000  0.00  0.00     0.150 HD
ENDBRANCH  46  59
ENDBRANCH  43  46
ENDBRANCH   1  42
TORSDOF 22
ENDMDL
MODEL 3
REMARK VINA RESULT:      -7.2      2.814      5.523
REMARK  22 active torsions:
REMARK  status: ('A' for Active; 'I' for Inactive)
REMARK    1  A    between atoms: C_4  and  O_47 
REMARK    2  A    between atoms: C_7  and  C_8 
REMARK    3  A    between atoms: C_8  and  C_9 
REMARK    4  A    between atoms: C_9  and  C_10 
REMARK    5  A    between atoms: C_9  and  N_33 
REMARK       I    between atoms: C_10  and  N_12 
REMARK    6  A    between atoms: C_13  and  N_12 
REMARK    7  A    between atoms: C_13  and  C_14 
REMARK    8  A    between atoms: C_13  and  C_19 
REMARK    9  A    between atoms: C_14  and  C_15 
REMARK   10  A    between atoms: C_15  and  C_16 
REMARK   11  A    between atoms: C_16  and  C_17 
REMARK   12  A    between atoms: C_17  and  N_18 
REMARK       I    between atoms: C_19  and  N_21 
REMARK   13  A    between atoms: C_22  and  N_21 
REMARK   14  A    between atoms: C_22  and  C_23 
REMARK   15  A    between atoms: C_22  and  C_30 
REMARK   16  A    between atoms: C_23  and  C_24 
REMARK       I    between atoms: C_30  and  N_32 
REMARK       I    between atoms: N_33  and  C_34 
REMARK   17  A    between atoms: C_34  and  C_36 
REMARK   18  A    between atoms: C_36  and  C_37 
REMARK   19  A    between atoms: C_36  and  N_45 
REMARK   20  A    between atoms: C_37  and  C_38 
REMARK   21  A    between atoms: C_38  and  C_39 
REMARK   22  A    between atoms: C_39  and  N_40 
REMARK       I    between atoms: N_40  and  C_41 
REMARK       I    between atoms: C_41  and  N_44 
ROOT
HETATM    1  C   UNK N   1      22.263  15.789   3.460  0.00  0.00     0.180 C 
ENDROOT
BRANCH   1   2
HETATM    2  C   UNK N   1      21.764  16.971   4.301  0.00  0.00     0.074 C 
BRANCH   2   3
HETATM    3  C   UNK N   1      21.599  18.291   3.572  0.00  0.00    -0.044 A 
HETATM    4  C   UNK N   1      22.650  19.233   3.477  0.00  0.00    -0.052 A 
HETATM    5  C   UNK N   1      22.445  20.459   2.841  0.00  0.00     0.043 A 
HETATM    6  C   UNK N   1      23.985  18.977   4.060  0.00  0.00     0.049 C 
HETATM    7  C   UNK N   1      21.203  20.773   2.297  0.00  0.00     0.066 A 
HETATM    8  C   UNK N   1      20.156  19.857   2.382  0.00  0.00     0.043 A 
HETATM    9  C   UNK N   1      20.344  18.622   3.013  0.00  0.00    -0.052 A 
HETATM   10  C   UNK N   1      19.186  17.684   3.099  0.00  0.00     0.049 C 
BRANCH   7  11
HETATM   11  O   UNK N   1      21.015  21.961   1.700  0.00  0.00    -0.361 OA
HETATM   12  H   UNK N   1      20.407  22.579   2.056  0.00  0.00     0.217 HD
ENDBRANCH   7  11
ENDBRANCH   2   3
ENDBRANCH   1   2
BRANCH   1  13
HETATM   13  C   UNK N   1      23.193  14.920   4.255  0.00  0.00     0.241 C 
HETATM   14  O   UNK N   1      22.987  13.718   4.335  0.00  0.00    -0.271 OA
HETATM   15  N   UNK N   1      24.272  15.492   4.853  0.00  0.00    -0.346 N 
HETATM   16  H   UNK N   1      24.355  16.469   4.758  0.00  0.00     0.163 HD
BRANCH  15  17
HETATM   17  C   UNK N   1      25.316  14.827   5.618  0.00  0.00     0.176 C 
BRANCH  17  18
HETATM   18  C   UNK N   1      25.151  14.838   7.131  0.00  0.00     0.035 C 
BRANCH  18  19
HETATM   19  C   UNK N   1      25.100  13.407   7.633  0.00  0.00     0.004 C 
BRANCH  19  20
HETATM   20  C   UNK N   1      24.015  13.248   8.686  0.00  0.00     0.019 C 
BRANCH  20  21
HETATM   21  C   UNK N   1      24.555  12.564   9.934  0.00  0.00     0.111 C 
BRANCH  21  22
HETATM   22  N   UNK N   1      25.558  13.400  10.572  0.00  0.00    -0.430 N 
HETATM   23  H   UNK N   1      26.223  14.093  10.230  0.00  0.00     0.149 HD
HETATM   24  H   UNK N   1      25.607  13.265  11.582  0.00  0.00     0.149 HD
ENDBRANCH  21  22
ENDBRANCH  20  21
ENDBRANCH  19  20
ENDBRANCH  18  19
ENDBRANCH  17  18
BRANCH  17  25
HETATM   25  C   UNK N   1      26.666  15.308   5.199  0.00  0.00     0.241 C 
HETATM   26  O   UNK N   1      26.917  15.402   4.008  0.00  0.00    -0.271 OA
HETATM   27  N   UNK N   1      27.597  15.642   6.126  0.00  0.00    -0.346 N 
HETATM   28  H   UNK N   1      27.404  15.506   7.082  0.00  0.00     0.163 HD
BRANCH  27  29
HETATM   29  C   UNK N   1      28.867  16.195   5.726  0.00  0.00     0.180 C 
BRANCH  29  30
HETATM   30  C   UNK N   1      29.251  17.402   6.567  0.00  0.00     0.073 C 
BRANCH  30  31
HETATM   31  C   UNK N   1      28.443  18.559   6.082  0.00  0.00    -0.056 A 
HETATM   32  C   UNK N   1      28.292  18.772   4.708  0.00  0.00     0.007 A 
HETATM   33  C   UNK N   1      27.603  19.896   4.243  0.00  0.00     0.001 A 
HETATM   34  C   UNK N   1      27.064  20.811   5.153  0.00  0.00     0.000 A 
HETATM   35  C   UNK N   1      27.209  20.599   6.528  0.00  0.00     0.001 A 
HETATM   36  C   UNK N   1      27.902  19.477   6.991  0.00  0.00     0.007 A 
ENDBRANCH  30  31
ENDBRANCH  29  30
BRANCH  29  37
HETATM   37  C   UNK N   1      29.935  15.156   5.603  0.00  0.00     0.238 C 
HETATM   38  O   UNK N   1      30.884  15.181   6.369  0.00  0.00    -0.271 OA
HETATM   39  N   UNK N   1      29.872  14.213   4.642  0.00  0.00    -0.368 N 
HETATM   40  H   UNK N   1      29.339  13.858   3.894  0.00  0.00     0.159 HD
HETATM   41  H   UNK N   1      30.682  13.659   4.718  0.00  0.00     0.159 HD
ENDBRANCH  29  37
ENDBRANCH  27  29
ENDBRANCH  17  25
ENDBRANCH  15  17
ENDBRANCH   1  13
BRANCH   1  42
HETATM   42  N   UNK N   1      21.144  14.973   3.056  0.00  0.00    -0.346 N 
HETATM   43  C   UNK N   1      20.806  14.811   1.748  0.00  0.00     0.240 C 
HETATM   44  O   UNK N   1      21.439  15.375   0.873  0.00  0.00    -0.271 OA
HETATM   45  H   UNK N   1      20.608  14.520   3.747  0.00  0.00     0.163 HD
BRANCH  43  46
HETATM   46  C   UNK N   1      19.670  13.894   1.372  0.00  0.00     0.167 C 
BRANCH  46  47
HETATM   47  C   UNK N   1      20.148  12.623   0.663  0.00  0.00     0.036 C 
BRANCH  47  48
HETATM   48  C   UNK N   1      21.053  11.732   1.516  0.00  0.00     0.023 C 
BRANCH  48  49
HETATM   49  C   UNK N   1      22.394  11.443   0.852  0.00  0.00     0.138 C 
BRANCH  49  50
HETATM   50  N   UNK N   1      23.489  11.945   1.648  0.00  0.00    -0.227 N 
HETATM   51  C   UNK N   1      24.229  13.097   1.277  0.00  0.00     0.665 C 
HETATM   52  N   UNK N   1      25.196  13.494   2.015  0.00  0.00    -0.235 N 
HETATM   53  N   UNK N   1      23.922  13.798   0.088  0.00  0.00    -0.235 N 
HETATM   54  H   UNK N   1      25.913  14.056   1.643  0.00  0.00     0.174 HD
ATOM     55  HN  UNK N   1      25.224  13.226   2.999  1.00  0.00     0.174 HD
HETATM   56  H   UNK N   1      23.096  13.656  -0.429  0.00  0.00     0.174 HD
HETATM   57  H   UNK N   1      24.568  14.465  -0.240  0.00  0.00     0.174 HD
HETATM   58  H   UNK N   1      23.731  11.472   2.477  0.00  0.00     0.177 HD
ENDBRANCH  49  50
ENDBRANCH  48  49
ENDBRANCH  47  48
ENDBRANCH  46  47
BRANCH  46  59
HETATM   59  N   UNK N   1      18.662  14.577   0.576  0.00  0.00    -0.418 N 
HETATM   60  H   UNK N   1      18.367  15.111  -0.242  0.00  0.00     0.150 HD
HETATM   61  H   UNK N   1      17.802  14.459   1.113  0.00  0.00     0.150 HD
ENDBRANCH  46  59
ENDBRANCH  43  46
ENDBRANCH   1  42
TORSDOF 22
ENDMDL
MODEL 4
REMARK VINA RESULT:      -7.1      2.548      9.492
REMARK  22 active torsions:
REMARK  status: ('A' for Active; 'I' for Inactive)
REMARK    1  A    between atoms: C_4  and  O_47 
REMARK    2  A    between atoms: C_7  and  C_8 
REMARK    3  A    between atoms: C_8  and  C_9 
REMARK    4  A    between atoms: C_9  and  C_10 
REMARK    5  A    between atoms: C_9  and  N_33 
REMARK       I    between atoms: C_10  and  N_12 
REMARK    6  A    between atoms: C_13  and  N_12 
REMARK    7  A    between atoms: C_13  and  C_14 
REMARK    8  A    between atoms: C_13  and  C_19 
REMARK    9  A    between atoms: C_14  and  C_15 
REMARK   10  A    between atoms: C_15  and  C_16 
REMARK   11  A    between atoms: C_16  and  C_17 
REMARK   12  A    between atoms: C_17  and  N_18 
REMARK       I    between atoms: C_19  and  N_21 
REMARK   13  A    between atoms: C_22  and  N_21 
REMARK   14  A    between atoms: C_22  and  C_23 
REMARK   15  A    between atoms: C_22  and  C_30 
REMARK   16  A    between atoms: C_23  and  C_24 
REMARK       I    between atoms: C_30  and  N_32 
REMARK       I    between atoms: N_33  and  C_34 
REMARK   17  A    between atoms: C_34  and  C_36 
REMARK   18  A    between atoms: C_36  and  C_37 
REMARK   19  A    between atoms: C_36  and  N_45 
REMARK   20  A    between atoms: C_37  and  C_38 
REMARK   21  A    between atoms: C_38  and  C_39 
REMARK   22  A    between atoms: C_39  and  N_40 
REMARK       I    between atoms: N_40  and  C_41 
REMARK       I    between atoms: C_41  and  N_44 
ROOT
HETATM    1  C   UNK N   1      27.523  17.359   6.616  0.00  0.00     0.180 C 
ENDROOT
BRANCH   1   2
HETATM    2  C   UNK N   1      27.802  17.986   5.244  0.00  0.00     0.074 C 
BRANCH   2   3
HETATM    3  C   UNK N   1      26.671  18.790   4.630  0.00  0.00    -0.044 A 
HETATM    4  C   UNK N   1      25.832  18.259   3.623  0.00  0.00    -0.052 A 
HETATM    5  C   UNK N   1      24.835  19.047   3.047  0.00  0.00     0.043 A 
HETATM    6  C   UNK N   1      25.989  16.876   3.124  0.00  0.00     0.049 C 
HETATM    7  C   UNK N   1      24.655  20.366   3.452  0.00  0.00     0.066 A 
HETATM    8  C   UNK N   1      25.473  20.906   4.443  0.00  0.00     0.043 A 
HETATM    9  C   UNK N   1      26.477  20.131   5.034  0.00  0.00    -0.052 A 
HETATM   10  C   UNK N   1      27.342  20.760   6.074  0.00  0.00     0.049 C 
BRANCH   7  11
HETATM   11  O   UNK N   1      23.700  21.118   2.880  0.00  0.00    -0.361 OA
HETATM   12  H   UNK N   1      23.795  21.412   1.996  0.00  0.00     0.217 HD
ENDBRANCH   7  11
ENDBRANCH   2   3
ENDBRANCH   1   2
BRANCH   1  13
HETATM   13  C   UNK N   1      27.104  15.925   6.475  0.00  0.00     0.241 C 
HETATM   14  O   UNK N   1      27.826  15.133   5.888  0.00  0.00    -0.271 OA
HETATM   15  N   UNK N   1      25.930  15.529   7.035  0.00  0.00    -0.346 N 
HETATM   16  H   UNK N   1      25.397  16.232   7.473  0.00  0.00     0.163 HD
BRANCH  15  17
HETATM   17  C   UNK N   1      25.371  14.185   7.059  0.00  0.00     0.176 C 
BRANCH  17  18
HETATM   18  C   UNK N   1      24.419  13.832   5.925  0.00  0.00     0.035 C 
BRANCH  18  19
HETATM   19  C   UNK N   1      23.746  15.099   5.432  0.00  0.00     0.004 C 
BRANCH  19  20
HETATM   20  C   UNK N   1      23.104  14.870   4.073  0.00  0.00     0.019 C 
BRANCH  20  21
HETATM   21  C   UNK N   1      22.392  16.123   3.582  0.00  0.00     0.111 C 
BRANCH  21  22
HETATM   22  N   UNK N   1      21.199  15.763   2.833  0.00  0.00    -0.430 N 
HETATM   23  H   UNK N   1      20.506  15.021   2.921  0.00  0.00     0.149 HD
HETATM   24  H   UNK N   1      21.016  16.390   2.050  0.00  0.00     0.149 HD
ENDBRANCH  21  22
ENDBRANCH  20  21
ENDBRANCH  19  20
ENDBRANCH  18  19
ENDBRANCH  17  18
BRANCH  17  25
HETATM   25  C   UNK N   1      24.781  13.882   8.397  0.00  0.00     0.241 C 
HETATM   26  O   UNK N   1      25.480  14.000   9.392  0.00  0.00    -0.271 OA
HETATM   27  N   UNK N   1      23.488  13.490   8.509  0.00  0.00    -0.346 N 
HETATM   28  H   UNK N   1      22.953  13.341   7.697  0.00  0.00     0.163 HD
BRANCH  27  29
HETATM   29  C   UNK N   1      22.891  13.287   9.805  0.00  0.00     0.180 C 
BRANCH  29  30
HETATM   30  C   UNK N   1      21.374  13.367   9.750  0.00  0.00     0.073 C 
BRANCH  30  31
HETATM   31  C   UNK N   1      21.015  14.291   8.635  0.00  0.00    -0.056 A 
HETATM   32  C   UNK N   1      20.955  15.669   8.868  0.00  0.00     0.007 A 
HETATM   33  C   UNK N   1      20.545  16.536   7.852  0.00  0.00     0.001 A 
HETATM   34  C   UNK N   1      20.191  16.026   6.599  0.00  0.00     0.000 A 
HETATM   35  C   UNK N   1      20.255  14.649   6.360  0.00  0.00     0.001 A 
HETATM   36  C   UNK N   1      20.662  13.783   7.378  0.00  0.00     0.007 A 
ENDBRANCH  30  31
ENDBRANCH  29  30
BRANCH  29  37
HETATM   37  C   UNK N   1      23.427  12.079  10.505  0.00  0.00     0.238 C 
HETATM   38  O   UNK N   1      23.094  10.970  10.121  0.00  0.00    -0.271 OA
HETATM   39  N   UNK N   1      24.248  12.205  11.566  0.00  0.00    -0.368 N 
HETATM   40  H   UNK N   1      24.725  12.841  12.146  0.00  0.00     0.159 HD
HETATM   41  H   UNK N   1      24.452  11.298  11.891  0.00  0.00     0.159 HD
ENDBRANCH  29  37
ENDBRANCH  27  29
ENDBRANCH  17  25
ENDBRANCH  15  17
ENDBRANCH   1  13
BRANCH   1  42
HETATM   42  N   UNK N   1      28.724  17.385   7.416  0.00  0.00    -0.346 N 
HETATM   43  C   UNK N   1      28.697  17.676   8.744  0.00  0.00     0.240 C 
HETATM   44  O   UNK N   1      27.644  17.943   9.297  0.00  0.00    -0.271 OA
HETATM   45  H   UNK N   1      29.588  17.187   6.987  0.00  0.00     0.163 HD
BRANCH  43  46
HETATM   46  C   UNK N   1      29.970  17.624   9.552  0.00  0.00     0.167 C 
BRANCH  46  47
HETATM   47  C   UNK N   1      31.226  17.679   8.676  0.00  0.00     0.036 C 
BRANCH  47  48
HETATM   48  C   UNK N   1      31.974  16.350   8.567  0.00  0.00     0.023 C 
BRANCH  48  49
HETATM   49  C   UNK N   1      32.056  15.832   7.136  0.00  0.00     0.138 C 
BRANCH  49  50
HETATM   50  N   UNK N   1      32.036  16.919   6.186  0.00  0.00    -0.227 N 
HETATM   51  C   UNK N   1      31.308  16.848   4.970  0.00  0.00     0.665 C 
HETATM   52  N   UNK N   1      31.333  17.838   4.159  0.00  0.00    -0.235 N 
HETATM   53  N   UNK N   1      30.575  15.687   4.636  0.00  0.00    -0.235 N 
HETATM   54  H   UNK N   1      31.132  17.709   3.204  0.00  0.00     0.174 HD
ATOM     55  HN  UNK N   1      31.562  18.769   4.506  1.00  0.00     0.174 HD
HETATM   56  H   UNK N   1      30.373  14.968   5.278  0.00  0.00     0.174 HD
HETATM   57  H   UNK N   1      30.248  15.592   3.712  0.00  0.00     0.174 HD
HETATM   58  H   UNK N   1      32.545  17.736   6.389  0.00  0.00     0.177 HD
ENDBRANCH  49  50
ENDBRANCH  48  49
ENDBRANCH  47  48
ENDBRANCH  46  47
BRANCH  46  59
HETATM   59  N   UNK N   1      30.009  16.466  10.431  0.00  0.00    -0.418 N 
HETATM   60  H   UNK N   1      30.110  15.465  10.601  0.00  0.00     0.150 HD
HETATM   61  H   UNK N   1      29.856  16.858  11.361  0.00  0.00     0.150 HD
ENDBRANCH  46  59
ENDBRANCH  43  46
ENDBRANCH   1  42
TORSDOF 22
ENDMDL
MODEL 5
REMARK VINA RESULT:      -7.1      3.103      6.685
REMARK  22 active torsions:
REMARK  status: ('A' for Active; 'I' for Inactive)
REMARK    1  A    between atoms: C_4  and  O_47 
REMARK    2  A    between atoms: C_7  and  C_8 
REMARK    3  A    between atoms: C_8  and  C_9 
REMARK    4  A    between atoms: C_9  and  C_10 
REMARK    5  A    between atoms: C_9  and  N_33 
REMARK       I    between atoms: C_10  and  N_12 
REMARK    6  A    between atoms: C_13  and  N_12 
REMARK    7  A    between atoms: C_13  and  C_14 
REMARK    8  A    between atoms: C_13  and  C_19 
REMARK    9  A    between atoms: C_14  and  C_15 
REMARK   10  A    between atoms: C_15  and  C_16 
REMARK   11  A    between atoms: C_16  and  C_17 
REMARK   12  A    between atoms: C_17  and  N_18 
REMARK       I    between atoms: C_19  and  N_21 
REMARK   13  A    between atoms: C_22  and  N_21 
REMARK   14  A    between atoms: C_22  and  C_23 
REMARK   15  A    between atoms: C_22  and  C_30 
REMARK   16  A    between atoms: C_23  and  C_24 
REMARK       I    between atoms: C_30  and  N_32 
REMARK       I    between atoms: N_33  and  C_34 
REMARK   17  A    between atoms: C_34  and  C_36 
REMARK   18  A    between atoms: C_36  and  C_37 
REMARK   19  A    between atoms: C_36  and  N_45 
REMARK   20  A    between atoms: C_37  and  C_38 
REMARK   21  A    between atoms: C_38  and  C_39 
REMARK   22  A    between atoms: C_39  and  N_40 
REMARK       I    between atoms: N_40  and  C_41 
REMARK       I    between atoms: C_41  and  N_44 
ROOT
HETATM    1  C   UNK N   1      24.819  17.553   4.439  0.00  0.00     0.180 C 
ENDROOT
BRANCH   1   2
HETATM    2  C   UNK N   1      23.856  18.624   4.968  0.00  0.00     0.074 C 
BRANCH   2   3
HETATM    3  C   UNK N   1      22.797  19.112   3.998  0.00  0.00    -0.044 A 
HETATM    4  C   UNK N   1      21.485  18.584   3.990  0.00  0.00    -0.052 A 
HETATM    5  C   UNK N   1      20.552  19.023   3.049  0.00  0.00     0.043 A 
HETATM    6  C   UNK N   1      21.056  17.540   4.945  0.00  0.00     0.049 C 
HETATM    7  C   UNK N   1      20.902  19.982   2.103  0.00  0.00     0.066 A 
HETATM    8  C   UNK N   1      22.190  20.513   2.096  0.00  0.00     0.043 A 
HETATM    9  C   UNK N   1      23.138  20.087   3.033  0.00  0.00    -0.052 A 
HETATM   10  C   UNK N   1      24.511  20.669   2.972  0.00  0.00     0.049 C 
BRANCH   7  11
HETATM   11  O   UNK N   1      19.999  20.386   1.194  0.00  0.00    -0.361 OA
HETATM   12  H   UNK N   1      20.261  20.922   0.472  0.00  0.00     0.217 HD
ENDBRANCH   7  11
ENDBRANCH   2   3
ENDBRANCH   1   2
BRANCH   1  13
HETATM   13  C   UNK N   1      26.240  17.893   4.783  0.00  0.00     0.241 C 
HETATM   14  O   UNK N   1      26.485  18.878   5.463  0.00  0.00    -0.271 OA
HETATM   15  N   UNK N   1      27.232  17.071   4.348  0.00  0.00    -0.346 N 
HETATM   16  H   UNK N   1      26.953  16.309   3.789  0.00  0.00     0.163 HD
BRANCH  15  17
HETATM   17  C   UNK N   1      28.658  17.188   4.614  0.00  0.00     0.176 C 
BRANCH  17  18
HETATM   18  C   UNK N   1      29.584  16.466   3.645  0.00  0.00     0.035 C 
BRANCH  18  19
HETATM   19  C   UNK N   1      31.021  16.811   3.987  0.00  0.00     0.004 C 
BRANCH  19  20
HETATM   20  C   UNK N   1      31.861  15.548   4.098  0.00  0.00     0.019 C 
BRANCH  20  21
HETATM   21  C   UNK N   1      30.993  14.300   4.019  0.00  0.00     0.111 C 
BRANCH  21  22
HETATM   22  N   UNK N   1      30.931  13.646   5.315  0.00  0.00    -0.430 N 
HETATM   23  H   UNK N   1      31.287  12.762   5.679  0.00  0.00     0.149 HD
HETATM   24  H   UNK N   1      30.423  14.189   6.013  0.00  0.00     0.149 HD
ENDBRANCH  21  22
ENDBRANCH  20  21
ENDBRANCH  19  20
ENDBRANCH  18  19
ENDBRANCH  17  18
BRANCH  17  25
HETATM   25  C   UNK N   1      28.961  16.846   6.035  0.00  0.00     0.241 C 
HETATM   26  O   UNK N   1      28.972  15.672   6.372  0.00  0.00    -0.271 OA
HETATM   27  N   UNK N   1      29.228  17.821   6.939  0.00  0.00    -0.346 N 
HETATM   28  H   UNK N   1      29.157  18.766   6.670  0.00  0.00     0.163 HD
BRANCH  27  29
HETATM   29  C   UNK N   1      29.612  17.489   8.288  0.00  0.00     0.180 C 
BRANCH  29  30
HETATM   30  C   UNK N   1      30.914  18.164   8.690  0.00  0.00     0.073 C 
BRANCH  30  31
HETATM   31  C   UNK N   1      32.032  17.322   8.172  0.00  0.00    -0.056 A 
HETATM   32  C   UNK N   1      33.058  17.915   7.429  0.00  0.00     0.007 A 
HETATM   33  C   UNK N   1      34.069  17.125   6.873  0.00  0.00     0.001 A 
HETATM   34  C   UNK N   1      34.053  15.739   7.059  0.00  0.00     0.000 A 
HETATM   35  C   UNK N   1      33.032  15.144   7.806  0.00  0.00     0.001 A 
HETATM   36  C   UNK N   1      32.020  15.934   8.358  0.00  0.00     0.007 A 
ENDBRANCH  30  31
ENDBRANCH  29  30
BRANCH  29  37
HETATM   37  C   UNK N   1      28.493  17.661   9.265  0.00  0.00     0.238 C 
HETATM   38  O   UNK N   1      28.422  16.916  10.228  0.00  0.00    -0.271 OA
HETATM   39  N   UNK N   1      27.554  18.609   9.077  0.00  0.00    -0.368 N 
HETATM   40  H   UNK N   1      27.260  19.350   8.501  0.00  0.00     0.159 HD
HETATM   41  H   UNK N   1      26.901  18.527   9.810  0.00  0.00     0.159 HD
ENDBRANCH  29  37
ENDBRANCH  27  29
ENDBRANCH  17  25
ENDBRANCH  15  17
ENDBRANCH   1  13
BRANCH   1  42
HETATM   42  N   UNK N   1      24.515  16.282   5.051  0.00  0.00    -0.346 N 
HETATM   43  C   UNK N   1      23.841  15.307   4.385  0.00  0.00     0.240 C 
HETATM   44  O   UNK N   1      23.454  15.491   3.244  0.00  0.00    -0.271 OA
HETATM   45  H   UNK N   1      24.804  16.116   5.977  0.00  0.00     0.163 HD
BRANCH  43  46
HETATM   46  C   UNK N   1      23.606  13.970   5.043  0.00  0.00     0.167 C 
BRANCH  46  47
HETATM   47  C   UNK N   1      23.457  14.081   6.564  0.00  0.00     0.036 C 
BRANCH  47  48
HETATM   48  C   UNK N   1      22.256  13.322   7.133  0.00  0.00     0.023 C 
BRANCH  48  49
HETATM   49  C   UNK N   1      21.748  13.916   8.442  0.00  0.00     0.138 C 
BRANCH  49  50
HETATM   50  N   UNK N   1      21.466  12.881   9.408  0.00  0.00    -0.227 N 
HETATM   51  C   UNK N   1      22.420  12.465  10.372  0.00  0.00     0.665 C 
HETATM   52  N   UNK N   1      22.121  11.537  11.200  0.00  0.00    -0.235 N 
HETATM   53  N   UNK N   1      23.706  13.051  10.411  0.00  0.00    -0.235 N 
HETATM   54  H   UNK N   1      22.826  11.010  11.640  0.00  0.00     0.174 HD
ATOM     55  HN  UNK N   1      21.141  11.341  11.407  1.00  0.00     0.174 HD
HETATM   56  H   UNK N   1      23.943  13.875   9.927  0.00  0.00     0.174 HD
HETATM   57  H   UNK N   1      24.403  12.611  10.952  0.00  0.00     0.174 HD
HETATM   58  H   UNK N   1      20.581  12.450   9.398  0.00  0.00     0.177 HD
ENDBRANCH  49  50
ENDBRANCH  48  49
ENDBRANCH  47  48
ENDBRANCH  46  47
BRANCH  46  59
HETATM   59  N   UNK N   1      24.639  13.006   4.698  0.00  0.00    -0.418 N 
HETATM   60  H   UNK N   1      25.311  12.597   4.048  0.00  0.00     0.150 HD
HETATM   61  H   UNK N   1      24.748  12.449   5.546  0.00  0.00     0.150 HD
ENDBRANCH  46  59
ENDBRANCH  43  46
ENDBRANCH   1  42
TORSDOF 22
ENDMDL
MODEL 6
REMARK VINA RESULT:      -7.1      1.779      2.960
REMARK  22 active torsions:
REMARK  status: ('A' for Active; 'I' for Inactive)
REMARK    1  A    between atoms: C_4  and  O_47 
REMARK    2  A    between atoms: C_7  and  C_8 
REMARK    3  A    between atoms: C_8  and  C_9 
REMARK    4  A    between atoms: C_9  and  C_10 
REMARK    5  A    between atoms: C_9  and  N_33 
REMARK       I    between atoms: C_10  and  N_12 
REMARK    6  A    between atoms: C_13  and  N_12 
REMARK    7  A    between atoms: C_13  and  C_14 
REMARK    8  A    between atoms: C_13  and  C_19 
REMARK    9  A    between atoms: C_14  and  C_15 
REMARK   10  A    between atoms: C_15  and  C_16 
REMARK   11  A    between atoms: C_16  and  C_17 
REMARK   12  A    between atoms: C_17  and  N_18 
REMARK       I    between atoms: C_19  and  N_21 
REMARK   13  A    between atoms: C_22  and  N_21 
REMARK   14  A    between atoms: C_22  and  C_23 
REMARK   15  A    between atoms: C_22  and  C_30 
REMARK   16  A    between atoms: C_23  and  C_24 
REMARK       I    between atoms: C_30  and  N_32 
REMARK       I    between atoms: N_33  and  C_34 
REMARK   17  A    between atoms: C_34  and  C_36 
REMARK   18  A    between atoms: C_36  and  C_37 
REMARK   19  A    between atoms: C_36  and  N_45 
REMARK   20  A    between atoms: C_37  and  C_38 
REMARK   21  A    between atoms: C_38  and  C_39 
REMARK   22  A    between atoms: C_39  and  N_40 
REMARK       I    between atoms: N_40  and  C_41 
REMARK       I    between atoms: C_41  and  N_44 
ROOT
HETATM    1  C   UNK N   1      21.862  16.380   5.640  0.00  0.00     0.180 C 
ENDROOT
BRANCH   1   2
HETATM    2  C   UNK N   1      20.649  15.532   6.044  0.00  0.00     0.074 C 
BRANCH   2   3
HETATM    3  C   UNK N   1      20.810  14.680   7.290  0.00  0.00    -0.044 A 
HETATM    4  C   UNK N   1      21.139  13.306   7.223  0.00  0.00    -0.052 A 
HETATM    5  C   UNK N   1      21.228  12.544   8.389  0.00  0.00     0.043 A 
HETATM    6  C   UNK N   1      21.372  12.619   5.935  0.00  0.00     0.049 C 
HETATM    7  C   UNK N   1      20.992  13.125   9.632  0.00  0.00     0.066 A 
HETATM    8  C   UNK N   1      20.666  14.478   9.716  0.00  0.00     0.043 A 
HETATM    9  C   UNK N   1      20.574  15.258   8.558  0.00  0.00    -0.052 A 
HETATM   10  C   UNK N   1      20.201  16.696   8.697  0.00  0.00     0.049 C 
BRANCH   7  11
HETATM   11  O   UNK N   1      21.068  12.378  10.746  0.00  0.00    -0.361 OA
HETATM   12  H   UNK N   1      20.294  12.010  11.123  0.00  0.00     0.217 HD
ENDBRANCH   7  11
ENDBRANCH   2   3
ENDBRANCH   1   2
BRANCH   1  13
HETATM   13  C   UNK N   1      22.984  15.511   5.150  0.00  0.00     0.241 C 
HETATM   14  O   UNK N   1      22.985  15.109   3.997  0.00  0.00    -0.271 OA
HETATM   15  N   UNK N   1      23.999  15.212   6.004  0.00  0.00    -0.346 N 
HETATM   16  H   UNK N   1      23.913  15.559   6.922  0.00  0.00     0.163 HD
BRANCH  15  17
HETATM   17  C   UNK N   1      25.197  14.438   5.716  0.00  0.00     0.176 C 
BRANCH  17  18
HETATM   18  C   UNK N   1      25.644  13.464   6.797  0.00  0.00     0.035 C 
BRANCH  18  19
HETATM   19  C   UNK N   1      24.959  13.826   8.101  0.00  0.00     0.004 C 
BRANCH  19  20
HETATM   20  C   UNK N   1      24.643  12.573   8.905  0.00  0.00     0.019 C 
BRANCH  20  21
HETATM   21  C   UNK N   1      25.087  12.722  10.353  0.00  0.00     0.111 C 
BRANCH  21  22
HETATM   22  N   UNK N   1      24.006  12.351  11.251  0.00  0.00    -0.430 N 
HETATM   23  H   UNK N   1      23.633  12.751  12.112  0.00  0.00     0.149 HD
HETATM   24  H   UNK N   1      23.512  11.510  10.956  0.00  0.00     0.149 HD
ENDBRANCH  21  22
ENDBRANCH  20  21
ENDBRANCH  19  20
ENDBRANCH  18  19
ENDBRANCH  17  18
BRANCH  17  25
HETATM   25  C   UNK N   1      26.310  15.330   5.274  0.00  0.00     0.241 C 
HETATM   26  O   UNK N   1      26.183  15.966   4.239  0.00  0.00    -0.271 OA
HETATM   27  N   UNK N   1      27.442  15.440   6.013  0.00  0.00    -0.346 N 
HETATM   28  H   UNK N   1      27.557  14.878   6.812  0.00  0.00     0.163 HD
BRANCH  27  29
HETATM   29  C   UNK N   1      28.478  16.370   5.638  0.00  0.00     0.180 C 
BRANCH  29  30
HETATM   30  C   UNK N   1      28.710  17.424   6.709  0.00  0.00     0.073 C 
BRANCH  30  31
HETATM   31  C   UNK N   1      28.075  18.689   6.237  0.00  0.00    -0.056 A 
HETATM   32  C   UNK N   1      27.957  18.935   4.864  0.00  0.00     0.007 A 
HETATM   33  C   UNK N   1      27.436  20.150   4.410  0.00  0.00     0.001 A 
HETATM   34  C   UNK N   1      27.032  21.123   5.330  0.00  0.00     0.000 A 
HETATM   35  C   UNK N   1      27.144  20.879   6.702  0.00  0.00     0.001 A 
HETATM   36  C   UNK N   1      27.669  19.666   7.155  0.00  0.00     0.007 A 
ENDBRANCH  30  31
ENDBRANCH  29  30
BRANCH  29  37
HETATM   37  C   UNK N   1      29.717  15.689   5.154  0.00  0.00     0.238 C 
HETATM   38  O   UNK N   1      30.547  16.331   4.531  0.00  0.00    -0.271 OA
HETATM   39  N   UNK N   1      29.912  14.374   5.376  0.00  0.00    -0.368 N 
HETATM   40  H   UNK N   1      29.544  13.564   5.794  0.00  0.00     0.159 HD
HETATM   41  H   UNK N   1      30.764  14.126   4.950  0.00  0.00     0.159 HD
ENDBRANCH  29  37
ENDBRANCH  27  29
ENDBRANCH  17  25
ENDBRANCH  15  17
ENDBRANCH   1  13
BRANCH   1  42
HETATM   42  N   UNK N   1      21.497  17.267   4.562  0.00  0.00    -0.346 N 
HETATM   43  C   UNK N   1      21.154  18.565   4.783  0.00  0.00     0.240 C 
HETATM   44  O   UNK N   1      21.130  19.012   5.917  0.00  0.00    -0.271 OA
HETATM   45  H   UNK N   1      21.495  16.923   3.639  0.00  0.00     0.163 HD
BRANCH  43  46
HETATM   46  C   UNK N   1      20.846  19.471   3.618  0.00  0.00     0.167 C 
BRANCH  46  47
HETATM   47  C   UNK N   1      19.860  18.842   2.627  0.00  0.00     0.036 C 
BRANCH  47  48
HETATM   48  C   UNK N   1      20.509  18.315   1.346  0.00  0.00     0.023 C 
BRANCH  48  49
HETATM   49  C   UNK N   1      19.820  17.070   0.803  0.00  0.00     0.138 C 
BRANCH  49  50
HETATM   50  N   UNK N   1      20.659  15.904   0.946  0.00  0.00    -0.227 N 
HETATM   51  C   UNK N   1      20.388  14.889   1.899  0.00  0.00     0.665 C 
HETATM   52  N   UNK N   1      21.171  13.880   1.990  0.00  0.00    -0.235 N 
HETATM   53  N   UNK N   1      19.273  14.990   2.762  0.00  0.00    -0.235 N 
HETATM   54  H   UNK N   1      21.211  13.350   2.818  0.00  0.00     0.174 HD
ATOM     55  HN  UNK N   1      21.758  13.624   1.196  1.00  0.00     0.174 HD
HETATM   56  H   UNK N   1      18.544  15.639   2.634  0.00  0.00     0.174 HD
HETATM   57  H   UNK N   1      19.223  14.379   3.533  0.00  0.00     0.174 HD
HETATM   58  H   UNK N   1      21.448  15.812   0.364  0.00  0.00     0.177 HD
ENDBRANCH  49  50
ENDBRANCH  48  49
ENDBRANCH  47  48
ENDBRANCH  46  47
BRANCH  46  59
HETATM   59  N   UNK N   1      22.053  19.907   2.934  0.00  0.00    -0.418 N 
HETATM   60  H   UNK N   1      22.539  20.339   2.148  0.00  0.00     0.150 HD
HETATM   61  H   UNK N   1      22.805  19.644   3.572  0.00  0.00     0.150 HD
ENDBRANCH  46  59
ENDBRANCH  43  46
ENDBRANCH   1  42
TORSDOF 22
ENDMDL
MODEL 7
REMARK VINA RESULT:      -7.0      3.774      6.973
REMARK  22 active torsions:
REMARK  status: ('A' for Active; 'I' for Inactive)
REMARK    1  A    between atoms: C_4  and  O_47 
REMARK    2  A    between atoms: C_7  and  C_8 
REMARK    3  A    between atoms: C_8  and  C_9 
REMARK    4  A    between atoms: C_9  and  C_10 
REMARK    5  A    between atoms: C_9  and  N_33 
REMARK       I    between atoms: C_10  and  N_12 
REMARK    6  A    between atoms: C_13  and  N_12 
REMARK    7  A    between atoms: C_13  and  C_14 
REMARK    8  A    between atoms: C_13  and  C_19 
REMARK    9  A    between atoms: C_14  and  C_15 
REMARK   10  A    between atoms: C_15  and  C_16 
REMARK   11  A    between atoms: C_16  and  C_17 
REMARK   12  A    between atoms: C_17  and  N_18 
REMARK       I    between atoms: C_19  and  N_21 
REMARK   13  A    between atoms: C_22  and  N_21 
REMARK   14  A    between atoms: C_22  and  C_23 
REMARK   15  A    between atoms: C_22  and  C_30 
REMARK   16  A    between atoms: C_23  and  C_24 
REMARK       I    between atoms: C_30  and  N_32 
REMARK       I    between atoms: N_33  and  C_34 
REMARK   17  A    between atoms: C_34  and  C_36 
REMARK   18  A    between atoms: C_36  and  C_37 
REMARK   19  A    between atoms: C_36  and  N_45 
REMARK   20  A    between atoms: C_37  and  C_38 
REMARK   21  A    between atoms: C_38  and  C_39 
REMARK   22  A    between atoms: C_39  and  N_40 
REMARK       I    between atoms: N_40  and  C_41 
REMARK       I    between atoms: C_41  and  N_44 
ROOT
HETATM    1  C   UNK N   1      20.896  16.467   4.704  0.00  0.00     0.180 C 
ENDROOT
BRANCH   1   2
HETATM    2  C   UNK N   1      21.133  17.903   5.187  0.00  0.00     0.074 C 
BRANCH   2   3
HETATM    3  C   UNK N   1      22.118  18.729   4.380  0.00  0.00    -0.044 A 
HETATM    4  C   UNK N   1      21.695  19.733   3.478  0.00  0.00    -0.052 A 
HETATM    5  C   UNK N   1      22.629  20.437   2.716  0.00  0.00     0.043 A 
HETATM    6  C   UNK N   1      20.265  20.059   3.285  0.00  0.00     0.049 C 
HETATM    7  C   UNK N   1      23.987  20.158   2.830  0.00  0.00     0.066 A 
HETATM    8  C   UNK N   1      24.422  19.171   3.713  0.00  0.00     0.043 A 
HETATM    9  C   UNK N   1      23.500  18.457   4.487  0.00  0.00    -0.052 A 
HETATM   10  C   UNK N   1      24.012  17.394   5.402  0.00  0.00     0.049 C 
BRANCH   7  11
HETATM   11  O   UNK N   1      24.875  20.833   2.082  0.00  0.00    -0.361 OA
HETATM   12  H   UNK N   1      24.934  20.676   1.160  0.00  0.00     0.217 HD
ENDBRANCH   7  11
ENDBRANCH   2   3
ENDBRANCH   1   2
BRANCH   1  13
HETATM   13  C   UNK N   1      20.169  15.664   5.743  0.00  0.00     0.241 C 
HETATM   14  O   UNK N   1      19.042  15.250   5.516  0.00  0.00    -0.271 OA
HETATM   15  N   UNK N   1      20.800  15.390   6.916  0.00  0.00    -0.346 N 
HETATM   16  H   UNK N   1      21.698  15.777   7.028  0.00  0.00     0.163 HD
BRANCH  15  17
HETATM   17  C   UNK N   1      20.298  14.591   8.024  0.00  0.00     0.176 C 
BRANCH  17  18
HETATM   18  C   UNK N   1      19.838  15.361   9.254  0.00  0.00     0.035 C 
BRANCH  18  19
HETATM   19  C   UNK N   1      19.510  16.786   8.851  0.00  0.00     0.004 C 
BRANCH  19  20
HETATM   20  C   UNK N   1      18.020  17.054   9.002  0.00  0.00     0.019 C 
BRANCH  20  21
HETATM   21  C   UNK N   1      17.753  18.066  10.108  0.00  0.00     0.111 C 
BRANCH  21  22
HETATM   22  N   UNK N   1      18.844  19.023  10.189  0.00  0.00    -0.430 N 
HETATM   23  H   UNK N   1      18.908  20.000  10.475  0.00  0.00     0.149 HD
HETATM   24  H   UNK N   1      19.740  18.633   9.896  0.00  0.00     0.149 HD
ENDBRANCH  21  22
ENDBRANCH  20  21
ENDBRANCH  19  20
ENDBRANCH  18  19
ENDBRANCH  17  18
BRANCH  17  25
HETATM   25  C   UNK N   1      21.262  13.506   8.372  0.00  0.00     0.241 C 
HETATM   26  O   UNK N   1      21.057  12.376   7.957  0.00  0.00    -0.271 OA
HETATM   27  N   UNK N   1      22.354  13.770   9.131  0.00  0.00    -0.346 N 
HETATM   28  H   UNK N   1      22.478  14.670   9.509  0.00  0.00     0.163 HD
BRANCH  27  29
HETATM   29  C   UNK N   1      23.335  12.746   9.391  0.00  0.00     0.180 C 
BRANCH  29  30
HETATM   30  C   UNK N   1      24.747  13.219   9.082  0.00  0.00     0.073 C 
BRANCH  30  31
HETATM   31  C   UNK N   1      24.942  13.109   7.607  0.00  0.00    -0.056 A 
HETATM   32  C   UNK N   1      25.599  14.134   6.917  0.00  0.00     0.007 A 
HETATM   33  C   UNK N   1      25.719  14.078   5.525  0.00  0.00     0.001 A 
HETATM   34  C   UNK N   1      25.180  12.997   4.820  0.00  0.00     0.000 A 
HETATM   35  C   UNK N   1      24.527  11.969   5.507  0.00  0.00     0.001 A 
HETATM   36  C   UNK N   1      24.405  12.027   6.898  0.00  0.00     0.007 A 
ENDBRANCH  30  31
ENDBRANCH  29  30
BRANCH  29  37
HETATM   37  C   UNK N   1      23.169  12.116  10.737  0.00  0.00     0.238 C 
HETATM   38  O   UNK N   1      24.135  12.025  11.476  0.00  0.00    -0.271 OA
HETATM   39  N   UNK N   1      21.975  11.629  11.127  0.00  0.00    -0.368 N 
HETATM   40  H   UNK N   1      21.031  11.510  10.876  0.00  0.00     0.159 HD
HETATM   41  H   UNK N   1      22.095  11.234  12.021  0.00  0.00     0.159 HD
ENDBRANCH  29  37
ENDBRANCH  27  29
ENDBRANCH  17  25
ENDBRANCH  15  17
ENDBRANCH   1  13
BRANCH   1  42
HETATM   42  N   UNK N   1      20.077  16.483   3.515  0.00  0.00    -0.346 N 
HETATM   43  C   UNK N   1      20.571  16.134   2.297  0.00  0.00     0.240 C 
HETATM   44  O   UNK N   1      21.740  15.811   2.173  0.00  0.00    -0.271 OA
HETATM   45  H   UNK N   1      19.134  16.755   3.588  0.00  0.00     0.163 HD
BRANCH  43  46
HETATM   46  C   UNK N   1      19.659  16.101   1.097  0.00  0.00     0.167 C 
BRANCH  46  47
HETATM   47  C   UNK N   1      19.701  14.758   0.360  0.00  0.00     0.036 C 
BRANCH  47  48
HETATM   48  C   UNK N   1      18.672  13.739   0.854  0.00  0.00     0.023 C 
BRANCH  48  49
HETATM   49  C   UNK N   1      19.235  12.790   1.904  0.00  0.00     0.138 C 
BRANCH  49  50
HETATM   50  N   UNK N   1      20.547  12.319   1.531  0.00  0.00    -0.227 N 
HETATM   51  C   UNK N   1      21.660  12.407   2.406  0.00  0.00     0.665 C 
HETATM   52  N   UNK N   1      22.804  11.982   2.021  0.00  0.00    -0.235 N 
HETATM   53  N   UNK N   1      21.522  12.979   3.692  0.00  0.00    -0.235 N 
HETATM   54  H   UNK N   1      23.630  12.313   2.441  0.00  0.00     0.174 HD
ATOM     55  HN  UNK N   1      22.861  11.292   1.271  1.00  0.00     0.174 HD
HETATM   56  H   UNK N   1      20.652  13.165   4.113  0.00  0.00     0.174 HD
HETATM   57  H   UNK N   1      22.341  13.204   4.192  0.00  0.00     0.174 HD
HETATM   58  H   UNK N   1      20.675  11.924   0.638  0.00  0.00     0.177 HD
ENDBRANCH  49  50
ENDBRANCH  48  49
ENDBRANCH  47  48
ENDBRANCH  46  47
BRANCH  46  59
HETATM   59  N   UNK N   1      19.929  17.197   0.179  0.00  0.00    -0.418 N 
HETATM   60  H   UNK N   1      20.477  17.645  -0.556  0.00  0.00     0.150 HD
HETATM   61  H   UNK N   1      19.181  17.866   0.368  0.00  0.00     0.150 HD
ENDBRANCH  46  59
ENDBRANCH  43  46
ENDBRANCH   1  42
TORSDOF 22
ENDMDL
MODEL 8
REMARK VINA RESULT:      -7.0      6.853     12.117
REMARK  22 active torsions:
REMARK  status: ('A' for Active; 'I' for Inactive)
REMARK    1  A    between atoms: C_4  and  O_47 
REMARK    2  A    between atoms: C_7  and  C_8 
REMARK    3  A    between atoms: C_8  and  C_9 
REMARK    4  A    between atoms: C_9  and  C_10 
REMARK    5  A    between atoms: C_9  and  N_33 
REMARK       I    between atoms: C_10  and  N_12 
REMARK    6  A    between atoms: C_13  and  N_12 
REMARK    7  A    between atoms: C_13  and  C_14 
REMARK    8  A    between atoms: C_13  and  C_19 
REMARK    9  A    between atoms: C_14  and  C_15 
REMARK   10  A    between atoms: C_15  and  C_16 
REMARK   11  A    between atoms: C_16  and  C_17 
REMARK   12  A    between atoms: C_17  and  N_18 
REMARK       I    between atoms: C_19  and  N_21 
REMARK   13  A    between atoms: C_22  and  N_21 
REMARK   14  A    between atoms: C_22  and  C_23 
REMARK   15  A    between atoms: C_22  and  C_30 
REMARK   16  A    between atoms: C_23  and  C_24 
REMARK       I    between atoms: C_30  and  N_32 
REMARK       I    between atoms: N_33  and  C_34 
REMARK   17  A    between atoms: C_34  and  C_36 
REMARK   18  A    between atoms: C_36  and  C_37 
REMARK   19  A    between atoms: C_36  and  N_45 
REMARK   20  A    between atoms: C_37  and  C_38 
REMARK   21  A    between atoms: C_38  and  C_39 
REMARK   22  A    between atoms: C_39  and  N_40 
REMARK       I    between atoms: N_40  and  C_41 
REMARK       I    between atoms: C_41  and  N_44 
ROOT
HETATM    1  C   UNK N   1      33.667  16.358   8.153  0.00  0.00     0.180 C 
ENDROOT
BRANCH   1   2
HETATM    2  C   UNK N   1      34.037  17.032   6.824  0.00  0.00     0.074 C 
BRANCH   2   3
HETATM    3  C   UNK N   1      33.859  16.192   5.573  0.00  0.00    -0.044 A 
HETATM    4  C   UNK N   1      34.752  15.149   5.235  0.00  0.00    -0.052 A 
HETATM    5  C   UNK N   1      34.583  14.432   4.049  0.00  0.00     0.043 A 
HETATM    6  C   UNK N   1      35.901  14.794   6.095  0.00  0.00     0.049 C 
HETATM    7  C   UNK N   1      33.538  14.736   3.183  0.00  0.00     0.066 A 
HETATM    8  C   UNK N   1      32.649  15.762   3.500  0.00  0.00     0.043 A 
HETATM    9  C   UNK N   1      32.800  16.489   4.685  0.00  0.00    -0.052 A 
HETATM   10  C   UNK N   1      31.836  17.593   4.970  0.00  0.00     0.049 C 
BRANCH   7  11
HETATM   11  O   UNK N   1      33.395  14.047   2.038  0.00  0.00    -0.361 OA
HETATM   12  H   UNK N   1      34.142  13.844   1.512  0.00  0.00     0.217 HD
ENDBRANCH   7  11
ENDBRANCH   2   3
ENDBRANCH   1   2
BRANCH   1  13
HETATM   13  C   UNK N   1      34.805  16.436   9.128  0.00  0.00     0.241 C 
HETATM   14  O   UNK N   1      35.148  17.517   9.581  0.00  0.00    -0.271 OA
HETATM   15  N   UNK N   1      35.418  15.284   9.510  0.00  0.00    -0.346 N 
HETATM   16  H   UNK N   1      35.096  14.456   9.083  0.00  0.00     0.163 HD
BRANCH  15  17
HETATM   17  C   UNK N   1      36.496  15.134  10.476  0.00  0.00     0.176 C 
BRANCH  17  18
HETATM   18  C   UNK N   1      37.775  14.489   9.962  0.00  0.00     0.035 C 
BRANCH  18  19
HETATM   19  C   UNK N   1      37.488  13.044   9.599  0.00  0.00     0.004 C 
BRANCH  19  20
HETATM   20  C   UNK N   1      38.145  12.685   8.275  0.00  0.00     0.019 C 
BRANCH  20  21
HETATM   21  C   UNK N   1      37.326  11.649   7.517  0.00  0.00     0.111 C 
BRANCH  21  22
HETATM   22  N   UNK N   1      35.986  11.563   8.073  0.00  0.00    -0.430 N 
HETATM   23  H   UNK N   1      35.053  11.508   7.664  0.00  0.00     0.149 HD
HETATM   24  H   UNK N   1      35.975  11.555   9.092  0.00  0.00     0.149 HD
ENDBRANCH  21  22
ENDBRANCH  20  21
ENDBRANCH  19  20
ENDBRANCH  18  19
ENDBRANCH  17  18
BRANCH  17  25
HETATM   25  C   UNK N   1      36.001  14.477  11.722  0.00  0.00     0.241 C 
HETATM   26  O   UNK N   1      34.803  14.277  11.850  0.00  0.00    -0.271 OA
HETATM   27  N   UNK N   1      36.868  14.100  12.695  0.00  0.00    -0.346 N 
HETATM   28  H   UNK N   1      37.823  14.320  12.607  0.00  0.00     0.163 HD
BRANCH  27  29
HETATM   29  C   UNK N   1      36.403  13.382  13.856  0.00  0.00     0.180 C 
BRANCH  29  30
HETATM   30  C   UNK N   1      36.931  11.957  13.891  0.00  0.00     0.073 C 
BRANCH  30  31
HETATM   31  C   UNK N   1      35.941  11.097  13.179  0.00  0.00    -0.056 A 
HETATM   32  C   UNK N   1      36.312  10.448  11.996  0.00  0.00     0.007 A 
HETATM   33  C   UNK N   1      35.371   9.703  11.279  0.00  0.00     0.001 A 
HETATM   34  C   UNK N   1      34.056   9.606  11.744  0.00  0.00     0.000 A 
HETATM   35  C   UNK N   1      33.683  10.248  12.929  0.00  0.00     0.001 A 
HETATM   36  C   UNK N   1      34.624  10.996  13.643  0.00  0.00     0.007 A 
ENDBRANCH  30  31
ENDBRANCH  29  30
BRANCH  29  37
HETATM   37  C   UNK N   1      36.597  14.150  15.124  0.00  0.00     0.238 C 
HETATM   38  O   UNK N   1      36.041  13.772  16.142  0.00  0.00    -0.271 OA
HETATM   39  N   UNK N   1      37.355  15.265  15.146  0.00  0.00    -0.368 N 
HETATM   40  H   UNK N   1      37.928  15.861  14.613  0.00  0.00     0.159 HD
HETATM   41  H   UNK N   1      37.320  15.627  16.061  0.00  0.00     0.159 HD
ENDBRANCH  29  37
ENDBRANCH  27  29
ENDBRANCH  17  25
ENDBRANCH  15  17
ENDBRANCH   1  13
BRANCH   1  42
HETATM   42  N   UNK N   1      32.540  17.037   8.744  0.00  0.00    -0.346 N 
HETATM   43  C   UNK N   1      31.258  16.659   8.492  0.00  0.00     0.240 C 
HETATM   44  O   UNK N   1      31.026  15.734   7.733  0.00  0.00    -0.271 OA
HETATM   45  H   UNK N   1      32.703  17.797   9.349  0.00  0.00     0.163 HD
BRANCH  43  46
HETATM   46  C   UNK N   1      30.116  17.356   9.187  0.00  0.00     0.167 C 
BRANCH  46  47
HETATM   47  C   UNK N   1      28.817  17.311   8.376  0.00  0.00     0.036 C 
BRANCH  47  48
HETATM   48  C   UNK N   1      28.158  18.676   8.169  0.00  0.00     0.023 C 
BRANCH  48  49
HETATM   49  C   UNK N   1      28.218  19.149   6.722  0.00  0.00     0.138 C 
BRANCH  49  50
HETATM   50  N   UNK N   1      26.906  19.502   6.234  0.00  0.00    -0.227 N 
HETATM   51  C   UNK N   1      26.654  19.762   4.862  0.00  0.00     0.665 C 
HETATM   52  N   UNK N   1      25.473  20.081   4.485  0.00  0.00    -0.235 N 
HETATM   53  N   UNK N   1      27.698  19.694   3.912  0.00  0.00    -0.235 N 
HETATM   54  H   UNK N   1      25.330  20.573   3.645  0.00  0.00     0.174 HD
ATOM     55  HN  UNK N   1      24.672  19.821   5.061  1.00  0.00     0.174 HD
HETATM   56  H   UNK N   1      28.578  19.294   4.099  0.00  0.00     0.174 HD
HETATM   57  H   UNK N   1      27.537  20.068   3.014  0.00  0.00     0.174 HD
HETATM   58  H   UNK N   1      26.162  19.566   6.875  0.00  0.00     0.177 HD
ENDBRANCH  49  50
ENDBRANCH  48  49
ENDBRANCH  47  48
ENDBRANCH  46  47
BRANCH  46  59
HETATM   59  N   UNK N   1      30.452  18.727   9.542  0.00  0.00    -0.418 N 
HETATM   60  H   UNK N   1      30.458  19.730   9.359  0.00  0.00     0.150 HD
HETATM   61  H   UNK N   1      30.927  18.638  10.440  0.00  0.00     0.150 HD
ENDBRANCH  46  59
ENDBRANCH  43  46
ENDBRANCH   1  42
TORSDOF 22
ENDMDL
MODEL 9
REMARK VINA RESULT:      -7.0      3.440      5.919
REMARK  22 active torsions:
REMARK  status: ('A' for Active; 'I' for Inactive)
REMARK    1  A    between atoms: C_4  and  O_47 
REMARK    2  A    between atoms: C_7  and  C_8 
REMARK    3  A    between atoms: C_8  and  C_9 
REMARK    4  A    between atoms: C_9  and  C_10 
REMARK    5  A    between atoms: C_9  and  N_33 
REMARK       I    between atoms: C_10  and  N_12 
REMARK    6  A    between atoms: C_13  and  N_12 
REMARK    7  A    between atoms: C_13  and  C_14 
REMARK    8  A    between atoms: C_13  and  C_19 
REMARK    9  A    between atoms: C_14  and  C_15 
REMARK   10  A    between atoms: C_15  and  C_16 
REMARK   11  A    between atoms: C_16  and  C_17 
REMARK   12  A    between atoms: C_17  and  N_18 
REMARK       I    between atoms: C_19  and  N_21 
REMARK   13  A    between atoms: C_22  and  N_21 
REMARK   14  A    between atoms: C_22  and  C_23 
REMARK   15  A    between atoms: C_22  and  C_30 
REMARK   16  A    between atoms: C_23  and  C_24 
REMARK       I    between atoms: C_30  and  N_32 
REMARK       I    between atoms: N_33  and  C_34 
REMARK   17  A    between atoms: C_34  and  C_36 
REMARK   18  A    between atoms: C_36  and  C_37 
REMARK   19  A    between atoms: C_36  and  N_45 
REMARK   20  A    between atoms: C_37  and  C_38 
REMARK   21  A    between atoms: C_38  and  C_39 
REMARK   22  A    between atoms: C_39  and  N_40 
REMARK       I    between atoms: N_40  and  C_41 
REMARK       I    between atoms: C_41  and  N_44 
ROOT
HETATM    1  C   UNK N   1      25.353  17.534   3.874  0.00  0.00     0.180 C 
ENDROOT
BRANCH   1   2
HETATM    2  C   UNK N   1      24.226  18.194   4.678  0.00  0.00     0.074 C 
BRANCH   2   3
HETATM    3  C   UNK N   1      23.001  18.621   3.891  0.00  0.00    -0.044 A 
HETATM    4  C   UNK N   1      22.966  19.825   3.150  0.00  0.00    -0.052 A 
HETATM    5  C   UNK N   1      21.803  20.209   2.480  0.00  0.00     0.043 A 
HETATM    6  C   UNK N   1      24.132  20.732   3.075  0.00  0.00     0.049 C 
HETATM    7  C   UNK N   1      20.662  19.414   2.536  0.00  0.00     0.066 A 
HETATM    8  C   UNK N   1      20.678  18.224   3.262  0.00  0.00     0.043 A 
HETATM    9  C   UNK N   1      21.836  17.823   3.938  0.00  0.00    -0.052 A 
HETATM   10  C   UNK N   1      21.798  16.552   4.720  0.00  0.00     0.049 C 
BRANCH   7  11
HETATM   11  O   UNK N   1      19.545  19.801   1.898  0.00  0.00    -0.361 OA
HETATM   12  H   UNK N   1      18.736  19.350   2.042  0.00  0.00     0.217 HD
ENDBRANCH   7  11
ENDBRANCH   2   3
ENDBRANCH   1   2
BRANCH   1  13
HETATM   13  C   UNK N   1      26.684  17.765   4.527  0.00  0.00     0.241 C 
HETATM   14  O   UNK N   1      26.747  18.369   5.587  0.00  0.00    -0.271 OA
HETATM   15  N   UNK N   1      27.800  17.266   3.932  0.00  0.00    -0.346 N 
HETATM   16  H   UNK N   1      27.666  16.809   3.069  0.00  0.00     0.163 HD
BRANCH  15  17
HETATM   17  C   UNK N   1      29.169  17.332   4.422  0.00  0.00     0.176 C 
BRANCH  17  18
HETATM   18  C   UNK N   1      30.208  16.559   3.620  0.00  0.00     0.035 C 
BRANCH  18  19
HETATM   19  C   UNK N   1      31.586  16.862   4.177  0.00  0.00     0.004 C 
BRANCH  19  20
HETATM   20  C   UNK N   1      32.341  15.573   4.464  0.00  0.00     0.019 C 
BRANCH  20  21
HETATM   21  C   UNK N   1      33.735  15.604   3.853  0.00  0.00     0.111 C 
BRANCH  21  22
HETATM   22  N   UNK N   1      33.666  15.335   2.427  0.00  0.00    -0.430 N 
HETATM   23  H   UNK N   1      34.364  15.144   1.709  0.00  0.00     0.149 HD
HETATM   24  H   UNK N   1      32.712  15.335   2.066  0.00  0.00     0.149 HD
ENDBRANCH  21  22
ENDBRANCH  20  21
ENDBRANCH  19  20
ENDBRANCH  18  19
ENDBRANCH  17  18
BRANCH  17  25
HETATM   25  C   UNK N   1      29.226  17.000   5.876  0.00  0.00     0.241 C 
HETATM   26  O   UNK N   1      29.120  15.833   6.221  0.00  0.00    -0.271 OA
HETATM   27  N   UNK N   1      29.402  17.976   6.800  0.00  0.00    -0.346 N 
HETATM   28  H   UNK N   1      29.427  18.918   6.515  0.00  0.00     0.163 HD
BRANCH  27  29
HETATM   29  C   UNK N   1      29.552  17.649   8.197  0.00  0.00     0.180 C 
BRANCH  29  30
HETATM   30  C   UNK N   1      30.761  18.333   8.814  0.00  0.00     0.073 C 
BRANCH  30  31
HETATM   31  C   UNK N   1      31.964  17.531   8.446  0.00  0.00    -0.056 A 
HETATM   32  C   UNK N   1      33.091  18.174   7.923  0.00  0.00     0.007 A 
HETATM   33  C   UNK N   1      34.195  17.426   7.502  0.00  0.00     0.001 A 
HETATM   34  C   UNK N   1      34.172  16.031   7.603  0.00  0.00     0.000 A 
HETATM   35  C   UNK N   1      33.049  15.386   8.130  0.00  0.00     0.001 A 
HETATM   36  C   UNK N   1      31.945  16.135   8.547  0.00  0.00     0.007 A 
ENDBRANCH  30  31
ENDBRANCH  29  30
BRANCH  29  37
HETATM   37  C   UNK N   1      28.281  17.814   8.967  0.00  0.00     0.238 C 
HETATM   38  O   UNK N   1      27.965  16.968   9.786  0.00  0.00    -0.271 OA
HETATM   39  N   UNK N   1      27.473  18.870   8.746  0.00  0.00    -0.368 N 
HETATM   40  H   UNK N   1      27.356  19.703   8.235  0.00  0.00     0.159 HD
HETATM   41  H   UNK N   1      26.686  18.766   9.327  0.00  0.00     0.159 HD
ENDBRANCH  29  37
ENDBRANCH  27  29
ENDBRANCH  17  25
ENDBRANCH  15  17
ENDBRANCH   1  13
BRANCH   1  42
HETATM   42  N   UNK N   1      25.138  16.108   3.818  0.00  0.00    -0.346 N 
HETATM   43  C   UNK N   1      25.492  15.370   2.731  0.00  0.00     0.240 C 
HETATM   44  O   UNK N   1      25.991  15.905   1.757  0.00  0.00    -0.271 OA
HETATM   45  H   UNK N   1      24.723  15.656   4.587  0.00  0.00     0.163 HD
BRANCH  43  46
HETATM   46  C   UNK N   1      25.309  13.873   2.746  0.00  0.00     0.167 C 
BRANCH  46  47
HETATM   47  C   UNK N   1      24.704  13.340   1.444  0.00  0.00     0.036 C 
BRANCH  47  48
HETATM   48  C   UNK N   1      23.625  14.241   0.838  0.00  0.00     0.023 C 
BRANCH  48  49
HETATM   49  C   UNK N   1      22.239  13.973   1.413  0.00  0.00     0.138 C 
BRANCH  49  50
HETATM   50  N   UNK N   1      21.386  15.130   1.278  0.00  0.00    -0.227 N 
HETATM   51  C   UNK N   1      20.032  15.028   0.868  0.00  0.00     0.665 C 
HETATM   52  N   UNK N   1      19.323  16.087   0.756  0.00  0.00    -0.235 N 
HETATM   53  N   UNK N   1      19.465  13.770   0.562  0.00  0.00    -0.235 N 
HETATM   54  H   UNK N   1      18.524  16.098   0.181  0.00  0.00     0.174 HD
ATOM     55  HN  UNK N   1      19.588  16.929   1.268  1.00  0.00     0.174 HD
HETATM   56  H   UNK N   1      19.892  12.912   0.788  0.00  0.00     0.174 HD
HETATM   57  H   UNK N   1      18.597  13.750   0.097  0.00  0.00     0.174 HD
HETATM   58  H   UNK N   1      21.758  16.020   1.477  0.00  0.00     0.177 HD
ENDBRANCH  49  50
ENDBRANCH  48  49
ENDBRANCH  47  48
ENDBRANCH  46  47
BRANCH  46  59
HETATM   59  N   UNK N   1      24.529  13.432   3.892  0.00  0.00    -0.418 N 
HETATM   60  H   UNK N   1      24.048  13.603   4.775  0.00  0.00     0.150 HD
HETATM   61  H   UNK N   1      24.390  12.435   3.726  0.00  0.00     0.150 HD
ENDBRANCH  46  59
ENDBRANCH  43  46
ENDBRANCH   1  42
TORSDOF 22
ENDMDL
