REMARK  7 active torsions:
REMARK  status: ('A' for Active; 'I' for Inactive)
REMARK    1  A    between atoms: C_9  and  C_29 
REMARK    2  A    between atoms: N_13  and  C_14 
REMARK    3  A    between atoms: C_17  and  O_20 
REMARK    4  A    between atoms: O_20  and  C_21 
REMARK    5  A    between atoms: C_21  and  C_22 
REMARK    6  A    between atoms: C_22  and  C_23 
REMARK    7  A    between atoms: C_23  and  N_24 
ROOT
HETATM    1  C   UNK N   1      -0.032   2.043   0.136  0.00  0.00     0.089 C 
HETATM    2  C   UNK N   1       1.084   1.051   0.069  0.00  0.00     0.087 A 
HETATM    3  N   UNK N   1       2.347   1.540   0.047  0.00  0.00    -0.345 N 
ATOM      4  HN  UNK N   1       2.482   2.551   0.062  1.00  0.00     0.167 HD
HETATM    5  C   UNK N   1       3.434   0.738   0.006  0.00  0.00     0.050 A 
HETATM    6  C   UNK N   1       4.701   1.318  -0.030  0.00  0.00     0.030 A 
HETATM    7  C   UNK N   1       5.839   0.522  -0.089  0.00  0.00     0.003 A 
HETATM    8  C   UNK N   1       5.719  -0.864  -0.119  0.00  0.00     0.017 A 
HETATM    9  C   UNK N   1       4.462  -1.487  -0.084  0.00  0.00     0.065 A 
HETATM   10  C   UNK N   1       3.285  -0.663  -0.011  0.00  0.00     0.074 A 
HETATM   11  C   UNK N   1       1.968  -1.171   0.031  0.00  0.00     0.267 A 
HETATM   12  O   UNK N   1       1.797  -2.376  -0.003  0.00  0.00    -0.267 OA
HETATM   13  N   UNK N   1       0.865  -0.313   0.072  0.00  0.00    -0.268 N 
ENDROOT
BRANCH  13  14
HETATM   14  C   UNK N   1      -0.483  -0.883   0.074  0.00  0.00     0.044 A 
HETATM   15  C   UNK N   1      -0.691  -2.181   0.562  0.00  0.00     0.033 A 
HETATM   16  C   UNK N   1      -1.906  -2.816   0.421  0.00  0.00     0.039 A 
HETATM   17  C   UNK N   1      -2.970  -2.181  -0.219  0.00  0.00     0.068 A 
HETATM   18  C   UNK N   1      -2.819  -0.857  -0.644  0.00  0.00     0.039 A 
HETATM   19  C   UNK N   1      -1.581  -0.214  -0.505  0.00  0.00     0.033 A 
BRANCH  17  20
HETATM   20  O   UNK N   1      -4.129  -2.841  -0.459  0.00  0.00    -0.351 OA
BRANCH  20  21
HETATM   21  C   UNK N   1      -4.204  -4.151  -0.920  0.00  0.00     0.177 C 
BRANCH  21  22
HETATM   22  C   UNK N   1      -3.285  -5.137  -0.200  0.00  0.00     0.057 C 
BRANCH  22  23
HETATM   23  C   UNK N   1      -3.699  -6.561  -0.498  0.00  0.00     0.274 C 
BRANCH  23  24
HETATM   24  N   UNK N   1      -4.496  -7.087   0.605  0.00  0.00     0.088 N 
HETATM   25  C   UNK N   1      -4.774  -8.486   0.304  0.00  0.00     0.272 C 
HETATM   26  C   UNK N   1      -6.222  -8.609  -0.135  0.00  0.00     0.032 C 
HETATM   27  C   UNK N   1      -6.721  -7.196  -0.265  0.00  0.00     0.032 C 
HETATM   28  C   UNK N   1      -5.791  -6.413   0.625  0.00  0.00     0.272 C 
ENDBRANCH  23  24
ENDBRANCH  22  23
ENDBRANCH  21  22
ENDBRANCH  20  21
ENDBRANCH  17  20
ENDBRANCH  13  14
BRANCH   9  29
HETATM   29  C   UNK N   1       4.438  -3.007  -0.139  0.00  0.00     0.418 C 
HETATM   30  F   UNK N   1       3.844  -3.523   1.000  0.00  0.00    -0.166 F 
HETATM   31  F   UNK N   1       3.752  -3.432  -1.265  0.00  0.00    -0.166 F 
HETATM   32  F   UNK N   1       5.720  -3.525  -0.214  0.00  0.00    -0.166 F 
ENDBRANCH   9  29
TORSDOF 7
