MODEL 1
REMARK VINA RESULT:      -7.7      0.000      0.000
REMARK  7 active torsions:
REMARK  status: ('A' for Active; 'I' for Inactive)
REMARK    1  A    between atoms: C_9  and  C_29 
REMARK    2  A    between atoms: N_13  and  C_14 
REMARK    3  A    between atoms: C_17  and  O_20 
REMARK    4  A    between atoms: O_20  and  C_21 
REMARK    5  A    between atoms: C_21  and  C_22 
REMARK    6  A    between atoms: C_22  and  C_23 
REMARK    7  A    between atoms: C_23  and  N_24 
ROOT
HETATM    1  C   UNK N   1      37.236  11.596  10.513  0.00  0.00     0.089 C 
HETATM    2  C   UNK N   1      36.838  11.742  11.946  0.00  0.00     0.087 A 
HETATM    3  N   UNK N   1      37.191  10.745  12.792  0.00  0.00    -0.345 N 
ATOM      4  HN  UNK N   1      37.694   9.940  12.419  1.00  0.00     0.167 HD
HETATM    5  C   UNK N   1      36.901  10.778  14.112  0.00  0.00     0.050 A 
HETATM    6  C   UNK N   1      37.285   9.705  14.915  0.00  0.00     0.030 A 
HETATM    7  C   UNK N   1      36.988   9.700  16.273  0.00  0.00     0.003 A 
HETATM    8  C   UNK N   1      36.298  10.767  16.839  0.00  0.00     0.017 A 
HETATM    9  C   UNK N   1      35.894  11.866  16.065  0.00  0.00     0.065 A 
HETATM   10  C   UNK N   1      36.212  11.876  14.662  0.00  0.00     0.074 A 
HETATM   11  C   UNK N   1      35.862  12.924  13.782  0.00  0.00     0.267 A 
HETATM   12  O   UNK N   1      35.247  13.881  14.216  0.00  0.00    -0.267 OA
HETATM   13  N   UNK N   1      36.176  12.857  12.421  0.00  0.00    -0.268 N 
ENDROOT
BRANCH  13  14
HETATM   14  C   UNK N   1      35.758  13.947  11.538  0.00  0.00     0.044 A 
HETATM   15  C   UNK N   1      36.499  15.137  11.500  0.00  0.00     0.033 A 
HETATM   16  C   UNK N   1      36.044  16.245  10.818  0.00  0.00     0.039 A 
HETATM   17  C   UNK N   1      34.823  16.215  10.146  0.00  0.00     0.068 A 
HETATM   18  C   UNK N   1      34.099  15.019  10.098  0.00  0.00     0.039 A 
HETATM   19  C   UNK N   1      34.560  13.894  10.796  0.00  0.00     0.033 A 
BRANCH  17  20
HETATM   20  O   UNK N   1      34.319  17.334   9.570  0.00  0.00    -0.351 OA
BRANCH  20  21
HETATM   21  C   UNK N   1      34.399  17.620   8.212  0.00  0.00     0.177 C 
BRANCH  21  22
HETATM   22  C   UNK N   1      33.051  17.759   7.506  0.00  0.00     0.057 C 
BRANCH  22  23
HETATM   23  C   UNK N   1      31.943  17.959   8.516  0.00  0.00     0.274 C 
BRANCH  23  24
HETATM   24  N   UNK N   1      30.910  16.946   8.328  0.00  0.00     0.088 N 
HETATM   25  C   UNK N   1      30.607  16.903   6.902  0.00  0.00     0.272 C 
HETATM   26  C   UNK N   1      29.271  17.584   6.670  0.00  0.00     0.032 C 
HETATM   27  C   UNK N   1      28.900  18.198   7.992  0.00  0.00     0.032 C 
HETATM   28  C   UNK N   1      29.683  17.383   8.988  0.00  0.00     0.272 C 
ENDBRANCH  23  24
ENDBRANCH  22  23
ENDBRANCH  21  22
ENDBRANCH  20  21
ENDBRANCH  17  20
ENDBRANCH  13  14
BRANCH   9  29
HETATM   29  C   UNK N   1      35.130  12.973  16.776  0.00  0.00     0.418 C 
HETATM   30  F   UNK N   1      35.863  14.147  16.770  0.00  0.00    -0.166 F 
HETATM   31  F   UNK N   1      33.905  13.176  16.161  0.00  0.00    -0.166 F 
HETATM   32  F   UNK N   1      34.882  12.641  18.097  0.00  0.00    -0.166 F 
ENDBRANCH   9  29
TORSDOF 7
ENDMDL
MODEL 2
REMARK VINA RESULT:      -7.5      3.765      9.878
REMARK  7 active torsions:
REMARK  status: ('A' for Active; 'I' for Inactive)
REMARK    1  A    between atoms: C_9  and  C_29 
REMARK    2  A    between atoms: N_13  and  C_14 
REMARK    3  A    between atoms: C_17  and  O_20 
REMARK    4  A    between atoms: O_20  and  C_21 
REMARK    5  A    between atoms: C_21  and  C_22 
REMARK    6  A    between atoms: C_22  and  C_23 
REMARK    7  A    between atoms: C_23  and  N_24 
ROOT
HETATM    1  C   UNK N   1      34.203  15.724   5.947  0.00  0.00     0.089 C 
HETATM    2  C   UNK N   1      32.910  16.297   6.429  0.00  0.00     0.087 A 
HETATM    3  N   UNK N   1      31.996  16.641   5.490  0.00  0.00    -0.345 N 
ATOM      4  HN  UNK N   1      32.231  16.510   4.506  1.00  0.00     0.167 HD
HETATM    5  C   UNK N   1      30.786  17.151   5.809  0.00  0.00     0.050 A 
HETATM    6  C   UNK N   1      29.906  17.495   4.785  0.00  0.00     0.030 A 
HETATM    7  C   UNK N   1      28.660  18.037   5.078  0.00  0.00     0.003 A 
HETATM    8  C   UNK N   1      28.285  18.246   6.402  0.00  0.00     0.017 A 
HETATM    9  C   UNK N   1      29.142  17.913   7.462  0.00  0.00     0.065 A 
HETATM   10  C   UNK N   1      30.427  17.341   7.158  0.00  0.00     0.074 A 
HETATM   11  C   UNK N   1      31.374  16.964   8.136  0.00  0.00     0.267 A 
HETATM   12  O   UNK N   1      31.109  17.133   9.312  0.00  0.00    -0.267 OA
HETATM   13  N   UNK N   1      32.618  16.441   7.772  0.00  0.00    -0.268 N 
ENDROOT
BRANCH  13  14
HETATM   14  C   UNK N   1      33.583  16.102   8.817  0.00  0.00     0.044 A 
HETATM   15  C   UNK N   1      33.484  14.874   9.487  0.00  0.00     0.033 A 
HETATM   16  C   UNK N   1      34.261  14.592  10.590  0.00  0.00     0.039 A 
HETATM   17  C   UNK N   1      35.172  15.529  11.076  0.00  0.00     0.068 A 
HETATM   18  C   UNK N   1      35.353  16.729  10.382  0.00  0.00     0.039 A 
HETATM   19  C   UNK N   1      34.558  17.018   9.264  0.00  0.00     0.033 A 
BRANCH  17  20
HETATM   20  O   UNK N   1      35.856  15.301  12.224  0.00  0.00    -0.351 OA
BRANCH  20  21
HETATM   21  C   UNK N   1      36.080  14.040  12.766  0.00  0.00     0.177 C 
BRANCH  21  22
HETATM   22  C   UNK N   1      36.189  14.007  14.290  0.00  0.00     0.057 C 
BRANCH  22  23
HETATM   23  C   UNK N   1      36.183  12.580  14.791  0.00  0.00     0.274 C 
BRANCH  23  24
HETATM   24  N   UNK N   1      34.943  12.312  15.511  0.00  0.00     0.088 N 
HETATM   25  C   UNK N   1      34.944  13.161  16.697  0.00  0.00     0.272 C 
HETATM   26  C   UNK N   1      35.242  12.298  17.910  0.00  0.00     0.032 C 
HETATM   27  C   UNK N   1      35.608  10.947  17.359  0.00  0.00     0.032 C 
HETATM   28  C   UNK N   1      34.959  10.936  15.999  0.00  0.00     0.272 C 
ENDBRANCH  23  24
ENDBRANCH  22  23
ENDBRANCH  21  22
ENDBRANCH  20  21
ENDBRANCH  17  20
ENDBRANCH  13  14
BRANCH   9  29
HETATM   29  C   UNK N   1      28.646  18.197   8.872  0.00  0.00     0.418 C 
HETATM   30  F   UNK N   1      28.439  17.014   9.560  0.00  0.00    -0.166 F 
HETATM   31  F   UNK N   1      29.562  18.985   9.549  0.00  0.00    -0.166 F 
HETATM   32  F   UNK N   1      27.444  18.884   8.850  0.00  0.00    -0.166 F 
ENDBRANCH   9  29
TORSDOF 7
ENDMDL
MODEL 3
REMARK VINA RESULT:      -7.4      1.560      1.988
REMARK  7 active torsions:
REMARK  status: ('A' for Active; 'I' for Inactive)
REMARK    1  A    between atoms: C_9  and  C_29 
REMARK    2  A    between atoms: N_13  and  C_14 
REMARK    3  A    between atoms: C_17  and  O_20 
REMARK    4  A    between atoms: O_20  and  C_21 
REMARK    5  A    between atoms: C_21  and  C_22 
REMARK    6  A    between atoms: C_22  and  C_23 
REMARK    7  A    between atoms: C_23  and  N_24 
ROOT
HETATM    1  C   UNK N   1      36.824  10.700  10.956  0.00  0.00     0.089 C 
HETATM    2  C   UNK N   1      36.490  11.093  12.359  0.00  0.00     0.087 A 
HETATM    3  N   UNK N   1      36.702  10.170  13.328  0.00  0.00    -0.345 N 
ATOM      4  HN  UNK N   1      37.062   9.254  13.062  1.00  0.00     0.167 HD
HETATM    5  C   UNK N   1      36.454  10.420  14.633  0.00  0.00     0.050 A 
HETATM    6  C   UNK N   1      36.683   9.413  15.569  0.00  0.00     0.030 A 
HETATM    7  C   UNK N   1      36.423   9.632  16.917  0.00  0.00     0.003 A 
HETATM    8  C   UNK N   1      35.924  10.860  17.340  0.00  0.00     0.017 A 
HETATM    9  C   UNK N   1      35.680  11.899  16.429  0.00  0.00     0.065 A 
HETATM   10  C   UNK N   1      35.960  11.677  15.036  0.00  0.00     0.074 A 
HETATM   11  C   UNK N   1      35.758  12.643  14.026  0.00  0.00     0.267 A 
HETATM   12  O   UNK N   1      35.313  13.734  14.332  0.00  0.00    -0.267 OA
HETATM   13  N   UNK N   1      36.024  12.352  12.685  0.00  0.00    -0.268 N 
ENDROOT
BRANCH  13  14
HETATM   14  C   UNK N   1      35.761  13.370  11.668  0.00  0.00     0.044 A 
HETATM   15  C   UNK N   1      36.784  14.247  11.278  0.00  0.00     0.033 A 
HETATM   16  C   UNK N   1      36.533  15.325  10.457  0.00  0.00     0.039 A 
HETATM   17  C   UNK N   1      35.243  15.578   9.990  0.00  0.00     0.068 A 
HETATM   18  C   UNK N   1      34.218  14.677  10.295  0.00  0.00     0.039 A 
HETATM   19  C   UNK N   1      34.473  13.583  11.134  0.00  0.00     0.033 A 
BRANCH  17  20
HETATM   20  O   UNK N   1      34.971  16.697   9.277  0.00  0.00    -0.351 OA
BRANCH  20  21
HETATM   21  C   UNK N   1      33.691  17.102   8.911  0.00  0.00     0.177 C 
BRANCH  21  22
HETATM   22  C   UNK N   1      33.584  17.700   7.509  0.00  0.00     0.057 C 
BRANCH  22  23
HETATM   23  C   UNK N   1      34.112  16.727   6.477  0.00  0.00     0.274 C 
BRANCH  23  24
HETATM   24  N   UNK N   1      32.999  16.105   5.768  0.00  0.00     0.088 N 
HETATM   25  C   UNK N   1      33.520  15.619   4.496  0.00  0.00     0.272 C 
HETATM   26  C   UNK N   1      33.044  16.546   3.392  0.00  0.00     0.032 C 
HETATM   27  C   UNK N   1      32.388  17.701   4.096  0.00  0.00     0.032 C 
HETATM   28  C   UNK N   1      32.010  17.126   5.436  0.00  0.00     0.272 C 
ENDBRANCH  23  24
ENDBRANCH  22  23
ENDBRANCH  21  22
ENDBRANCH  20  21
ENDBRANCH  17  20
ENDBRANCH  13  14
BRANCH   9  29
HETATM   29  C   UNK N   1      35.118  13.197  16.990  0.00  0.00     0.418 C 
HETATM   30  F   UNK N   1      36.019  14.232  16.810  0.00  0.00    -0.166 F 
HETATM   31  F   UNK N   1      33.916  13.501  16.373  0.00  0.00    -0.166 F 
HETATM   32  F   UNK N   1      34.871  13.089  18.348  0.00  0.00    -0.166 F 
ENDBRANCH   9  29
TORSDOF 7
ENDMDL
MODEL 4
REMARK VINA RESULT:      -7.3      4.732     10.972
REMARK  7 active torsions:
REMARK  status: ('A' for Active; 'I' for Inactive)
REMARK    1  A    between atoms: C_9  and  C_29 
REMARK    2  A    between atoms: N_13  and  C_14 
REMARK    3  A    between atoms: C_17  and  O_20 
REMARK    4  A    between atoms: O_20  and  C_21 
REMARK    5  A    between atoms: C_21  and  C_22 
REMARK    6  A    between atoms: C_22  and  C_23 
REMARK    7  A    between atoms: C_23  and  N_24 
ROOT
HETATM    1  C   UNK N   1      29.779  18.610   9.672  0.00  0.00     0.089 C 
HETATM    2  C   UNK N   1      29.661  18.157   8.253  0.00  0.00     0.087 A 
HETATM    3  N   UNK N   1      28.524  18.481   7.592  0.00  0.00    -0.345 N 
ATOM      4  HN  UNK N   1      27.800  19.002   8.087  1.00  0.00     0.167 HD
HETATM    5  C   UNK N   1      28.315  18.141   6.300  0.00  0.00     0.050 A 
HETATM    6  C   UNK N   1      27.112  18.499   5.694  0.00  0.00     0.030 A 
HETATM    7  C   UNK N   1      26.858  18.150   4.372  0.00  0.00     0.003 A 
HETATM    8  C   UNK N   1      27.805  17.434   3.647  0.00  0.00     0.017 A 
HETATM    9  C   UNK N   1      29.028  17.056   4.220  0.00  0.00     0.065 A 
HETATM   10  C   UNK N   1      29.295  17.427   5.584  0.00  0.00     0.074 A 
HETATM   11  C   UNK N   1      30.488  17.106   6.270  0.00  0.00     0.267 A 
HETATM   12  O   UNK N   1      31.351  16.471   5.692  0.00  0.00    -0.267 OA
HETATM   13  N   UNK N   1      30.672  17.472   7.607  0.00  0.00    -0.268 N 
ENDROOT
BRANCH  13  14
HETATM   14  C   UNK N   1      31.906  17.084   8.290  0.00  0.00     0.044 A 
HETATM   15  C   UNK N   1      33.025  17.928   8.243  0.00  0.00     0.033 A 
HETATM   16  C   UNK N   1      34.252  17.523   8.721  0.00  0.00     0.039 A 
HETATM   17  C   UNK N   1      34.418  16.250   9.266  0.00  0.00     0.068 A 
HETATM   18  C   UNK N   1      33.304  15.415   9.401  0.00  0.00     0.039 A 
HETATM   19  C   UNK N   1      32.057  15.826   8.909  0.00  0.00     0.033 A 
BRANCH  17  20
HETATM   20  O   UNK N   1      35.644  15.806   9.634  0.00  0.00    -0.351 OA
BRANCH  20  21
HETATM   21  C   UNK N   1      36.111  15.790  10.944  0.00  0.00     0.177 C 
BRANCH  21  22
HETATM   22  C   UNK N   1      36.211  14.400  11.571  0.00  0.00     0.057 C 
BRANCH  22  23
HETATM   23  C   UNK N   1      36.097  14.489  13.076  0.00  0.00     0.274 C 
BRANCH  23  24
HETATM   24  N   UNK N   1      35.423  13.303  13.594  0.00  0.00     0.088 N 
HETATM   25  C   UNK N   1      35.599  13.308  15.041  0.00  0.00     0.272 C 
HETATM   26  C   UNK N   1      36.634  12.259  15.407  0.00  0.00     0.032 C 
HETATM   27  C   UNK N   1      37.197  11.780  14.097  0.00  0.00     0.032 C 
HETATM   28  C   UNK N   1      36.110  12.110  13.107  0.00  0.00     0.272 C 
ENDBRANCH  23  24
ENDBRANCH  22  23
ENDBRANCH  21  22
ENDBRANCH  20  21
ENDBRANCH  17  20
ENDBRANCH  13  14
BRANCH   9  29
HETATM   29  C   UNK N   1      29.988  16.260   3.348  0.00  0.00     0.418 C 
HETATM   30  F   UNK N   1      30.269  15.036   3.931  0.00  0.00    -0.166 F 
HETATM   31  F   UNK N   1      29.443  16.072   2.089  0.00  0.00    -0.166 F 
HETATM   32  F   UNK N   1      31.188  16.931   3.185  0.00  0.00    -0.166 F 
ENDBRANCH   9  29
TORSDOF 7
ENDMDL
MODEL 5
REMARK VINA RESULT:      -7.2      7.950     12.171
REMARK  7 active torsions:
REMARK  status: ('A' for Active; 'I' for Inactive)
REMARK    1  A    between atoms: C_9  and  C_29 
REMARK    2  A    between atoms: N_13  and  C_14 
REMARK    3  A    between atoms: C_17  and  O_20 
REMARK    4  A    between atoms: O_20  and  C_21 
REMARK    5  A    between atoms: C_21  and  C_22 
REMARK    6  A    between atoms: C_22  and  C_23 
REMARK    7  A    between atoms: C_23  and  N_24 
ROOT
HETATM    1  C   UNK N   1      27.844  16.115   2.841  0.00  0.00     0.089 C 
HETATM    2  C   UNK N   1      28.264  16.552   4.207  0.00  0.00     0.087 A 
HETATM    3  N   UNK N   1      29.358  15.956   4.739  0.00  0.00    -0.345 N 
ATOM      4  HN  UNK N   1      29.835  15.234   4.199  1.00  0.00     0.167 HD
HETATM    5  C   UNK N   1      29.840  16.283   5.959  0.00  0.00     0.050 A 
HETATM    6  C   UNK N   1      30.962  15.613   6.444  0.00  0.00     0.030 A 
HETATM    7  C   UNK N   1      31.474  15.914   7.700  0.00  0.00     0.003 A 
HETATM    8  C   UNK N   1      30.863  16.885   8.487  0.00  0.00     0.017 A 
HETATM    9  C   UNK N   1      29.732  17.583   8.036  0.00  0.00     0.065 A 
HETATM   10  C   UNK N   1      29.210  17.279   6.730  0.00  0.00     0.074 A 
HETATM   11  C   UNK N   1      28.081  17.912   6.166  0.00  0.00     0.267 A 
HETATM   12  O   UNK N   1      27.496  18.764   6.810  0.00  0.00    -0.267 OA
HETATM   13  N   UNK N   1      27.607  17.549   4.901  0.00  0.00    -0.268 N 
ENDROOT
BRANCH  13  14
HETATM   14  C   UNK N   1      26.410  18.204   4.373  0.00  0.00     0.044 A 
HETATM   15  C   UNK N   1      26.525  19.423   3.689  0.00  0.00     0.033 A 
HETATM   16  C   UNK N   1      25.414  20.155   3.331  0.00  0.00     0.039 A 
HETATM   17  C   UNK N   1      24.133  19.701   3.644  0.00  0.00     0.068 A 
HETATM   18  C   UNK N   1      23.981  18.451   4.253  0.00  0.00     0.039 A 
HETATM   19  C   UNK N   1      25.113  17.710   4.621  0.00  0.00     0.033 A 
BRANCH  17  20
HETATM   20  O   UNK N   1      23.044  20.469   3.394  0.00  0.00    -0.351 OA
BRANCH  20  21
HETATM   21  C   UNK N   1      21.958  20.062   2.627  0.00  0.00     0.177 C 
BRANCH  21  22
HETATM   22  C   UNK N   1      20.656  19.881   3.406  0.00  0.00     0.057 C 
BRANCH  22  23
HETATM   23  C   UNK N   1      19.972  18.593   3.003  0.00  0.00     0.274 C 
BRANCH  23  24
HETATM   24  N   UNK N   1      20.911  17.737   2.287  0.00  0.00     0.088 N 
HETATM   25  C   UNK N   1      20.263  17.335   1.044  0.00  0.00     0.272 C 
HETATM   26  C   UNK N   1      19.823  15.888   1.173  0.00  0.00     0.032 C 
HETATM   27  C   UNK N   1      20.067  15.523   2.612  0.00  0.00     0.032 C 
HETATM   28  C   UNK N   1      21.118  16.509   3.050  0.00  0.00     0.272 C 
ENDBRANCH  23  24
ENDBRANCH  22  23
ENDBRANCH  21  22
ENDBRANCH  20  21
ENDBRANCH  17  20
ENDBRANCH  13  14
BRANCH   9  29
HETATM   29  C   UNK N   1      29.128  18.612   8.979  0.00  0.00     0.418 C 
HETATM   30  F   UNK N   1      28.998  19.834   8.341  0.00  0.00    -0.166 F 
HETATM   31  F   UNK N   1      27.892  18.179   9.429  0.00  0.00    -0.166 F 
HETATM   32  F   UNK N   1      29.931  18.803  10.091  0.00  0.00    -0.166 F 
ENDBRANCH   9  29
TORSDOF 7
ENDMDL
MODEL 6
REMARK VINA RESULT:      -7.2      7.873     11.502
REMARK  7 active torsions:
REMARK  status: ('A' for Active; 'I' for Inactive)
REMARK    1  A    between atoms: C_9  and  C_29 
REMARK    2  A    between atoms: N_13  and  C_14 
REMARK    3  A    between atoms: C_17  and  O_20 
REMARK    4  A    between atoms: O_20  and  C_21 
REMARK    5  A    between atoms: C_21  and  C_22 
REMARK    6  A    between atoms: C_22  and  C_23 
REMARK    7  A    between atoms: C_23  and  N_24 
ROOT
HETATM    1  C   UNK N   1      29.634  15.774   2.982  0.00  0.00     0.089 C 
HETATM    2  C   UNK N   1      29.708  16.306   4.377  0.00  0.00     0.087 A 
HETATM    3  N   UNK N   1      30.942  16.546   4.883  0.00  0.00    -0.345 N 
ATOM      4  HN  UNK N   1      31.757  16.342   4.305  1.00  0.00     0.167 HD
HETATM    5  C   UNK N   1      31.131  17.044   6.125  0.00  0.00     0.050 A 
HETATM    6  C   UNK N   1      32.432  17.249   6.580  0.00  0.00     0.030 A 
HETATM    7  C   UNK N   1      32.662  17.745   7.858  0.00  0.00     0.003 A 
HETATM    8  C   UNK N   1      31.590  18.035   8.696  0.00  0.00     0.017 A 
HETATM    9  C   UNK N   1      30.265  17.844   8.276  0.00  0.00     0.065 A 
HETATM   10  C   UNK N   1      30.027  17.341   6.949  0.00  0.00     0.074 A 
HETATM   11  C   UNK N   1      28.742  17.108   6.412  0.00  0.00     0.267 A 
HETATM   12  O   UNK N   1      27.763  17.333   7.100  0.00  0.00    -0.267 OA
HETATM   13  N   UNK N   1      28.581  16.591   5.123  0.00  0.00    -0.268 N 
ENDROOT
BRANCH  13  14
HETATM   14  C   UNK N   1      27.232  16.327   4.623  0.00  0.00     0.044 A 
HETATM   15  C   UNK N   1      26.669  15.051   4.770  0.00  0.00     0.033 A 
HETATM   16  C   UNK N   1      25.479  14.716   4.161  0.00  0.00     0.039 A 
HETATM   17  C   UNK N   1      24.797  15.642   3.374  0.00  0.00     0.068 A 
HETATM   18  C   UNK N   1      25.290  16.948   3.274  0.00  0.00     0.039 A 
HETATM   19  C   UNK N   1      26.503  17.286   3.889  0.00  0.00     0.033 A 
BRANCH  17  20
HETATM   20  O   UNK N   1      23.687  15.284   2.684  0.00  0.00    -0.351 OA
BRANCH  20  21
HETATM   21  C   UNK N   1      22.414  15.196   3.238  0.00  0.00     0.177 C 
BRANCH  21  22
HETATM   22  C   UNK N   1      21.440  16.280   2.780  0.00  0.00     0.057 C 
BRANCH  22  23
HETATM   23  C   UNK N   1      21.584  17.518   3.637  0.00  0.00     0.274 C 
BRANCH  23  24
HETATM   24  N   UNK N   1      20.465  18.423   3.394  0.00  0.00     0.088 N 
HETATM   25  C   UNK N   1      20.282  18.499   1.949  0.00  0.00     0.272 C 
HETATM   26  C   UNK N   1      20.813  19.835   1.463  0.00  0.00     0.032 C 
HETATM   27  C   UNK N   1      21.490  20.454   2.655  0.00  0.00     0.032 C 
HETATM   28  C   UNK N   1      20.834  19.768   3.825  0.00  0.00     0.272 C 
ENDBRANCH  23  24
ENDBRANCH  22  23
ENDBRANCH  21  22
ENDBRANCH  20  21
ENDBRANCH  17  20
ENDBRANCH  13  14
BRANCH   9  29
HETATM   29  C   UNK N   1      29.165  18.174   9.273  0.00  0.00     0.418 C 
HETATM   30  F   UNK N   1      28.281  19.092   8.732  0.00  0.00    -0.166 F 
HETATM   31  F   UNK N   1      28.487  17.021   9.635  0.00  0.00    -0.166 F 
HETATM   32  F   UNK N   1      29.688  18.728  10.429  0.00  0.00    -0.166 F 
ENDBRANCH   9  29
TORSDOF 7
ENDMDL
MODEL 7
REMARK VINA RESULT:      -7.1      8.190     11.398
REMARK  7 active torsions:
REMARK  status: ('A' for Active; 'I' for Inactive)
REMARK    1  A    between atoms: C_9  and  C_29 
REMARK    2  A    between atoms: N_13  and  C_14 
REMARK    3  A    between atoms: C_17  and  O_20 
REMARK    4  A    between atoms: O_20  and  C_21 
REMARK    5  A    between atoms: C_21  and  C_22 
REMARK    6  A    between atoms: C_22  and  C_23 
REMARK    7  A    between atoms: C_23  and  N_24 
ROOT
HETATM    1  C   UNK N   1      28.042  17.883   8.843  0.00  0.00     0.089 C 
HETATM    2  C   UNK N   1      29.165  17.630   7.890  0.00  0.00     0.087 A 
HETATM    3  N   UNK N   1      30.424  17.829   8.348  0.00  0.00    -0.345 N 
ATOM      4  HN  UNK N   1      30.551  18.152   9.307  1.00  0.00     0.167 HD
HETATM    5  C   UNK N   1      31.516  17.614   7.582  0.00  0.00     0.050 A 
HETATM    6  C   UNK N   1      32.778  17.856   8.122  0.00  0.00     0.030 A 
HETATM    7  C   UNK N   1      33.922  17.661   7.356  0.00  0.00     0.003 A 
HETATM    8  C   UNK N   1      33.812  17.227   6.039  0.00  0.00     0.017 A 
HETATM    9  C   UNK N   1      32.560  16.972   5.458  0.00  0.00     0.065 A 
HETATM   10  C   UNK N   1      31.378  17.162   6.255  0.00  0.00     0.074 A 
HETATM   11  C   UNK N   1      30.065  16.938   5.785  0.00  0.00     0.267 A 
HETATM   12  O   UNK N   1      29.903  16.567   4.636  0.00  0.00    -0.267 OA
HETATM   13  N   UNK N   1      28.956  17.171   6.603  0.00  0.00    -0.268 N 
ENDROOT
BRANCH  13  14
HETATM   14  C   UNK N   1      27.613  16.964   6.061  0.00  0.00     0.044 A 
HETATM   15  C   UNK N   1      26.996  17.979   5.317  0.00  0.00     0.033 A 
HETATM   16  C   UNK N   1      25.673  17.892   4.940  0.00  0.00     0.039 A 
HETATM   17  C   UNK N   1      24.904  16.784   5.295  0.00  0.00     0.068 A 
HETATM   18  C   UNK N   1      25.512  15.718   5.966  0.00  0.00     0.039 A 
HETATM   19  C   UNK N   1      26.856  15.810   6.354  0.00  0.00     0.033 A 
BRANCH  17  20
HETATM   20  O   UNK N   1      23.577  16.745   5.024  0.00  0.00    -0.351 OA
BRANCH  20  21
HETATM   21  C   UNK N   1      22.579  16.733   5.993  0.00  0.00     0.177 C 
BRANCH  21  22
HETATM   22  C   UNK N   1      21.821  15.412   6.115  0.00  0.00     0.057 C 
BRANCH  22  23
HETATM   23  C   UNK N   1      22.078  14.777   7.464  0.00  0.00     0.274 C 
BRANCH  23  24
HETATM   24  N   UNK N   1      20.965  13.904   7.821  0.00  0.00     0.088 N 
HETATM   25  C   UNK N   1      20.454  14.364   9.106  0.00  0.00     0.272 C 
HETATM   26  C   UNK N   1      20.902  13.392  10.183  0.00  0.00     0.032 C 
HETATM   27  C   UNK N   1      21.859  12.454   9.500  0.00  0.00     0.032 C 
HETATM   28  C   UNK N   1      21.469  12.553   8.048  0.00  0.00     0.272 C 
ENDBRANCH  23  24
ENDBRANCH  22  23
ENDBRANCH  21  22
ENDBRANCH  20  21
ENDBRANCH  17  20
ENDBRANCH  13  14
BRANCH   9  29
HETATM   29  C   UNK N   1      32.547  16.518   4.006  0.00  0.00     0.418 C 
HETATM   30  F   UNK N   1      31.867  15.319   3.880  0.00  0.00    -0.166 F 
HETATM   31  F   UNK N   1      31.954  17.485   3.210  0.00  0.00    -0.166 F 
HETATM   32  F   UNK N   1      33.833  16.321   3.532  0.00  0.00    -0.166 F 
ENDBRANCH   9  29
TORSDOF 7
ENDMDL
MODEL 8
REMARK VINA RESULT:      -7.1      1.461      2.187
REMARK  7 active torsions:
REMARK  status: ('A' for Active; 'I' for Inactive)
REMARK    1  A    between atoms: C_9  and  C_29 
REMARK    2  A    between atoms: N_13  and  C_14 
REMARK    3  A    between atoms: C_17  and  O_20 
REMARK    4  A    between atoms: O_20  and  C_21 
REMARK    5  A    between atoms: C_21  and  C_22 
REMARK    6  A    between atoms: C_22  and  C_23 
REMARK    7  A    between atoms: C_23  and  N_24 
ROOT
HETATM    1  C   UNK N   1      37.193   9.144  12.401  0.00  0.00     0.089 C 
HETATM    2  C   UNK N   1      36.752   9.934  13.591  0.00  0.00     0.087 A 
HETATM    3  N   UNK N   1      36.785   9.312  14.794  0.00  0.00    -0.345 N 
ATOM      4  HN  UNK N   1      37.092   8.340  14.835  1.00  0.00     0.167 HD
HETATM    5  C   UNK N   1      36.428   9.932  15.940  0.00  0.00     0.050 A 
HETATM    6  C   UNK N   1      36.475   9.219  17.137  0.00  0.00     0.030 A 
HETATM    7  C   UNK N   1      36.099   9.822  18.332  0.00  0.00     0.003 A 
HETATM    8  C   UNK N   1      35.666  11.144  18.338  0.00  0.00     0.017 A 
HETATM    9  C   UNK N   1      35.604  11.896  17.155  0.00  0.00     0.065 A 
HETATM   10  C   UNK N   1      36.005  11.275  15.921  0.00  0.00     0.074 A 
HETATM   11  C   UNK N   1      35.988  11.928  14.668  0.00  0.00     0.267 A 
HETATM   12  O   UNK N   1      35.609  13.083  14.607  0.00  0.00    -0.267 OA
HETATM   13  N   UNK N   1      36.363  11.256  13.501  0.00  0.00    -0.268 N 
ENDROOT
BRANCH  13  14
HETATM   14  C   UNK N   1      36.293  11.960  12.219  0.00  0.00     0.044 A 
HETATM   15  C   UNK N   1      37.392  12.706  11.771  0.00  0.00     0.033 A 
HETATM   16  C   UNK N   1      37.305  13.519  10.662  0.00  0.00     0.039 A 
HETATM   17  C   UNK N   1      36.110  13.627   9.951  0.00  0.00     0.068 A 
HETATM   18  C   UNK N   1      35.020  12.834  10.325  0.00  0.00     0.039 A 
HETATM   19  C   UNK N   1      35.108  12.010  11.456  0.00  0.00     0.033 A 
BRANCH  17  20
HETATM   20  O   UNK N   1      35.987  14.509   8.930  0.00  0.00    -0.351 OA
BRANCH  20  21
HETATM   21  C   UNK N   1      35.071  15.555   8.903  0.00  0.00     0.177 C 
BRANCH  21  22
HETATM   22  C   UNK N   1      34.593  15.952   7.508  0.00  0.00     0.057 C 
BRANCH  22  23
HETATM   23  C   UNK N   1      33.083  15.904   7.432  0.00  0.00     0.274 C 
BRANCH  23  24
HETATM   24  N   UNK N   1      32.563  17.219   7.071  0.00  0.00     0.088 N 
HETATM   25  C   UNK N   1      32.409  17.974   8.308  0.00  0.00     0.272 C 
HETATM   26  C   UNK N   1      30.933  18.043   8.654  0.00  0.00     0.032 C 
HETATM   27  C   UNK N   1      30.250  17.131   7.672  0.00  0.00     0.032 C 
HETATM   28  C   UNK N   1      31.219  17.068   6.521  0.00  0.00     0.272 C 
ENDBRANCH  23  24
ENDBRANCH  22  23
ENDBRANCH  21  22
ENDBRANCH  20  21
ENDBRANCH  17  20
ENDBRANCH  13  14
BRANCH   9  29
HETATM   29  C   UNK N   1      35.100  13.327  17.267  0.00  0.00     0.418 C 
HETATM   30  F   UNK N   1      36.070  14.217  16.838  0.00  0.00    -0.166 F 
HETATM   31  F   UNK N   1      33.946  13.485  16.516  0.00  0.00    -0.166 F 
HETATM   32  F   UNK N   1      34.788  13.647  18.578  0.00  0.00    -0.166 F 
ENDBRANCH   9  29
TORSDOF 7
ENDMDL
MODEL 9
REMARK VINA RESULT:      -7.1      3.974      9.390
REMARK  7 active torsions:
REMARK  status: ('A' for Active; 'I' for Inactive)
REMARK    1  A    between atoms: C_9  and  C_29 
REMARK    2  A    between atoms: N_13  and  C_14 
REMARK    3  A    between atoms: C_17  and  O_20 
REMARK    4  A    between atoms: O_20  and  C_21 
REMARK    5  A    between atoms: C_21  and  C_22 
REMARK    6  A    between atoms: C_22  and  C_23 
REMARK    7  A    between atoms: C_23  and  N_24 
ROOT
HETATM    1  C   UNK N   1      36.411  14.441   6.890  0.00  0.00     0.089 C 
HETATM    2  C   UNK N   1      35.092  15.134   6.771  0.00  0.00     0.087 A 
HETATM    3  N   UNK N   1      34.692  15.495   5.528  0.00  0.00    -0.345 N 
ATOM      4  HN  UNK N   1      35.305  15.295   4.738  1.00  0.00     0.167 HD
HETATM    5  C   UNK N   1      33.511  16.110   5.297  0.00  0.00     0.050 A 
HETATM    6  C   UNK N   1      33.177  16.464   3.990  0.00  0.00     0.030 A 
HETATM    7  C   UNK N   1      31.978  17.112   3.720  0.00  0.00     0.003 A 
HETATM    8  C   UNK N   1      31.102  17.418   4.758  0.00  0.00     0.017 A 
HETATM    9  C   UNK N   1      31.400  17.078   6.086  0.00  0.00     0.065 A 
HETATM   10  C   UNK N   1      32.637  16.397   6.364  0.00  0.00     0.074 A 
HETATM   11  C   UNK N   1      33.047  16.003   7.656  0.00  0.00     0.267 A 
HETATM   12  O   UNK N   1      32.329  16.252   8.607  0.00  0.00    -0.267 OA
HETATM   13  N   UNK N   1      34.277  15.369   7.861  0.00  0.00    -0.268 N 
ENDROOT
BRANCH  13  14
HETATM   14  C   UNK N   1      34.679  15.014   9.222  0.00  0.00     0.044 A 
HETATM   15  C   UNK N   1      35.438  15.915   9.983  0.00  0.00     0.033 A 
HETATM   16  C   UNK N   1      35.983  15.552  11.195  0.00  0.00     0.039 A 
HETATM   17  C   UNK N   1      35.794  14.266  11.703  0.00  0.00     0.068 A 
HETATM   18  C   UNK N   1      34.975  13.371  11.007  0.00  0.00     0.039 A 
HETATM   19  C   UNK N   1      34.426  13.740   9.771  0.00  0.00     0.033 A 
BRANCH  17  20
HETATM   20  O   UNK N   1      36.419  13.870  12.838  0.00  0.00    -0.351 OA
BRANCH  20  21
HETATM   21  C   UNK N   1      36.457  14.614  14.012  0.00  0.00     0.177 C 
BRANCH  21  22
HETATM   22  C   UNK N   1      36.746  13.804  15.275  0.00  0.00     0.057 C 
BRANCH  22  23
HETATM   23  C   UNK N   1      36.936  12.342  14.934  0.00  0.00     0.274 C 
BRANCH  23  24
HETATM   24  N   UNK N   1      36.129  11.516  15.825  0.00  0.00     0.088 N 
HETATM   25  C   UNK N   1      36.049  10.190  15.225  0.00  0.00     0.272 C 
HETATM   26  C   UNK N   1      34.665  10.010  14.629  0.00  0.00     0.032 C 
HETATM   27  C   UNK N   1      34.007  11.358  14.734  0.00  0.00     0.032 C 
HETATM   28  C   UNK N   1      34.763  12.031  15.851  0.00  0.00     0.272 C 
ENDBRANCH  23  24
ENDBRANCH  22  23
ENDBRANCH  21  22
ENDBRANCH  20  21
ENDBRANCH  17  20
ENDBRANCH  13  14
BRANCH   9  29
HETATM   29  C   UNK N   1      30.386  17.473   7.149  0.00  0.00     0.418 C 
HETATM   30  F   UNK N   1      29.348  18.194   6.583  0.00  0.00    -0.166 F 
HETATM   31  F   UNK N   1      29.890  16.342   7.776  0.00  0.00    -0.166 F 
HETATM   32  F   UNK N   1      30.966  18.267   8.124  0.00  0.00    -0.166 F 
ENDBRANCH   9  29
TORSDOF 7
ENDMDL
