MODEL 1
REMARK VINA RESULT:      -6.5      0.000      0.000
REMARK  11 active torsions:
REMARK  status: ('A' for Active; 'I' for Inactive)
REMARK    1  A    between atoms: C_2  and  N_3 
REMARK    2  A    between atoms: N_3  and  C_4 
REMARK    3  A    between atoms: C_4  and  C_5 
REMARK    4  A    between atoms: C_5  and  S_6 
REMARK    5  A    between atoms: S_6  and  N_9 
REMARK    6  A    between atoms: N_9  and  C_10 
REMARK    7  A    between atoms: C_11  and  C_10 
REMARK    8  A    between atoms: C_11  and  C_30 
REMARK       I    between atoms: N_12  and  C_24 
REMARK    9  A    between atoms: C_15  and  N_17 
REMARK       I    between atoms: N_17  and  C_18 
REMARK   10  A    between atoms: C_18  and  C_20 
REMARK   11  A    between atoms: C_24  and  C_26 
ROOT
HETATM    1  C   UNK N   1      33.635  15.860   7.561  0.00  0.00     0.155 C 
HETATM    2  N   UNK N   1      34.249  14.532   7.452  0.00  0.00    -0.231 N 
HETATM    3  N   UNK N   1      34.246  13.861   8.630  0.00  0.00    -0.273 N 
ATOM      4  HN  UNK N   1      34.166  12.849   8.726  1.00  0.00     0.189 HD
HETATM    5  C   UNK N   1      34.355  14.677   9.595  0.00  0.00     0.164 C 
HETATM    6  S   UNK N   1      34.579  16.448   9.027  0.00  0.00    -0.052 SA
HETATM    7  C   UNK N   1      35.284  14.301   6.546  0.00  0.00     0.247 C 
HETATM    8  O   UNK N   1      35.656  15.223   5.820  0.00  0.00    -0.271 OA
ENDROOT
BRANCH   1   9
HETATM    9  C   UNK N   1      32.364  16.108   8.424  0.00  0.00     0.182 C 
BRANCH   9  10
HETATM   10  N   UNK N   1      32.140  17.369   9.079  0.00  0.00    -0.316 N 
HETATM   11  H   UNK N   1      32.805  17.907   9.635  0.00  0.00     0.172 HD
BRANCH  10  12
HETATM   12  S   UNK N   1      30.447  17.785   8.705  0.00  0.00     0.228 S 
HETATM   13  O   UNK N   1      30.162  19.155   9.350  0.00  0.00    -0.206 OA
HETATM   14  O   UNK N   1      29.692  16.868   9.666  0.00  0.00    -0.206 OA
BRANCH  12  15
HETATM   15  C   UNK N   1      29.687  17.582   7.052  0.00  0.00     0.182 C 
BRANCH  15  16
HETATM   16  C   UNK N   1      28.167  17.410   7.157  0.00  0.00     0.130 C 
BRANCH  16  17
HETATM   17  N   UNK N   1      27.523  18.617   7.659  0.00  0.00    -0.421 N 
HETATM   18  H   UNK N   1      26.943  18.693   8.495  0.00  0.00     0.153 HD
BRANCH  17  19
HETATM   19  C   UNK N   1      27.865  19.692   6.743  0.00  0.00     0.109 C 
HETATM   20  C   UNK N   1      26.689  19.981   5.831  0.00  0.00     0.026 C 
ENDBRANCH  17  19
ENDBRANCH  16  17
ENDBRANCH  15  16
ENDBRANCH  12  15
ENDBRANCH  10  12
ENDBRANCH   9  10
ENDBRANCH   1   9
BRANCH   1  21
HETATM   21  C   UNK N   1      33.156  16.247   6.142  0.00  0.00    -0.016 A 
HETATM   22  C   UNK N   1      33.385  17.478   5.517  0.00  0.00     0.011 A 
HETATM   23  C   UNK N   1      32.727  17.777   4.307  0.00  0.00     0.001 A 
HETATM   24  C   UNK N   1      31.818  16.872   3.734  0.00  0.00     0.000 A 
HETATM   25  C   UNK N   1      31.554  15.666   4.365  0.00  0.00     0.001 A 
HETATM   26  C   UNK N   1      32.197  15.374   5.556  0.00  0.00     0.011 A 
ENDBRANCH   1  21
BRANCH   7  27
HETATM   27  C   UNK N   1      36.032  12.986   6.400  0.00  0.00     0.032 C 
HETATM   28  C   UNK N   1      35.253  11.771   6.849  0.00  0.00     0.025 C 
HETATM   29  C   UNK N   1      36.333  12.770   4.926  0.00  0.00     0.025 C 
HETATM   30  C   UNK N   1      37.358  13.049   7.142  0.00  0.00     0.025 C 
ENDBRANCH   7  27
BRANCH   5  31
HETATM   31  N   UNK N   1      34.091  14.262  10.931  0.00  0.00    -0.306 N 
HETATM   32  C   UNK N   1      34.946  13.499  11.665  0.00  0.00     0.231 C 
HETATM   33  O   UNK N   1      34.593  13.127  12.776  0.00  0.00    -0.272 OA
HETATM   34  H   UNK N   1      33.243  14.540  11.346  0.00  0.00     0.171 HD
BRANCH  32  35
HETATM   35  C   UNK N   1      36.360  13.191  11.185  0.00  0.00     0.030 C 
HETATM   36  C   UNK N   1      36.360  12.013  10.241  0.00  0.00     0.025 C 
HETATM   37  C   UNK N   1      37.276  12.835  12.340  0.00  0.00     0.025 C 
HETATM   38  C   UNK N   1      36.971  14.404  10.499  0.00  0.00     0.025 C 
ENDBRANCH  32  35
ENDBRANCH   5  31
TORSDOF 11
ENDMDL
MODEL 2
REMARK VINA RESULT:      -6.2      2.628      3.341
REMARK  11 active torsions:
REMARK  status: ('A' for Active; 'I' for Inactive)
REMARK    1  A    between atoms: C_2  and  N_3 
REMARK    2  A    between atoms: N_3  and  C_4 
REMARK    3  A    between atoms: C_4  and  C_5 
REMARK    4  A    between atoms: C_5  and  S_6 
REMARK    5  A    between atoms: S_6  and  N_9 
REMARK    6  A    between atoms: N_9  and  C_10 
REMARK    7  A    between atoms: C_11  and  C_10 
REMARK    8  A    between atoms: C_11  and  C_30 
REMARK       I    between atoms: N_12  and  C_24 
REMARK    9  A    between atoms: C_15  and  N_17 
REMARK       I    between atoms: N_17  and  C_18 
REMARK   10  A    between atoms: C_18  and  C_20 
REMARK   11  A    between atoms: C_24  and  C_26 
ROOT
HETATM    1  C   UNK N   1      34.727  14.013   8.319  0.00  0.00     0.155 C 
HETATM    2  N   UNK N   1      34.268  12.750   8.908  0.00  0.00    -0.231 N 
HETATM    3  N   UNK N   1      34.170  12.814  10.259  0.00  0.00    -0.273 N 
ATOM      4  HN  UNK N   1      33.486  12.307  10.820  1.00  0.00     0.189 HD
HETATM    5  C   UNK N   1      35.054  13.598  10.722  0.00  0.00     0.164 C 
HETATM    6  S   UNK N   1      36.196  14.268   9.398  0.00  0.00    -0.052 SA
HETATM    7  C   UNK N   1      34.587  11.531   8.310  0.00  0.00     0.247 C 
HETATM    8  O   UNK N   1      35.238  11.533   7.266  0.00  0.00    -0.271 OA
ENDROOT
BRANCH   1   9
HETATM    9  C   UNK N   1      34.240  15.392   8.851  0.00  0.00     0.182 C 
BRANCH   9  10
HETATM   10  N   UNK N   1      35.095  16.548   8.824  0.00  0.00    -0.316 N 
HETATM   11  H   UNK N   1      36.035  16.635   9.212  0.00  0.00     0.172 HD
BRANCH  10  12
HETATM   12  S   UNK N   1      34.154  17.794   7.963  0.00  0.00     0.228 S 
HETATM   13  O   UNK N   1      34.493  17.665   6.466  0.00  0.00    -0.206 OA
HETATM   14  O   UNK N   1      34.937  19.058   8.313  0.00  0.00    -0.206 OA
BRANCH  12  15
HETATM   15  C   UNK N   1      32.386  18.143   8.287  0.00  0.00     0.182 C 
BRANCH  15  16
HETATM   16  C   UNK N   1      31.479  17.211   7.476  0.00  0.00     0.130 C 
BRANCH  16  17
HETATM   17  N   UNK N   1      31.690  17.369   6.042  0.00  0.00    -0.421 N 
HETATM   18  H   UNK N   1      32.579  17.552   5.575  0.00  0.00     0.153 HD
BRANCH  17  19
HETATM   19  C   UNK N   1      30.393  17.218   5.404  0.00  0.00     0.109 C 
HETATM   20  C   UNK N   1      29.465  16.433   6.310  0.00  0.00     0.026 C 
ENDBRANCH  17  19
ENDBRANCH  16  17
ENDBRANCH  15  16
ENDBRANCH  12  15
ENDBRANCH  10  12
ENDBRANCH   9  10
ENDBRANCH   1   9
BRANCH   1  21
HETATM   21  C   UNK N   1      34.231  14.027   6.854  0.00  0.00    -0.016 A 
HETATM   22  C   UNK N   1      34.982  14.443   5.749  0.00  0.00     0.011 A 
HETATM   23  C   UNK N   1      34.351  14.597   4.497  0.00  0.00     0.001 A 
HETATM   24  C   UNK N   1      32.973  14.371   4.349  0.00  0.00     0.000 A 
HETATM   25  C   UNK N   1      32.212  13.995   5.446  0.00  0.00     0.001 A 
HETATM   26  C   UNK N   1      32.831  13.849   6.676  0.00  0.00     0.011 A 
ENDBRANCH   1  21
BRANCH   7  27
HETATM   27  C   UNK N   1      34.221  10.167   8.873  0.00  0.00     0.032 C 
HETATM   28  C   UNK N   1      33.084  10.187   9.869  0.00  0.00     0.025 C 
HETATM   29  C   UNK N   1      33.755   9.288   7.724  0.00  0.00     0.025 C 
HETATM   30  C   UNK N   1      35.440   9.509   9.497  0.00  0.00     0.025 C 
ENDBRANCH   7  27
BRANCH   5  31
HETATM   31  N   UNK N   1      34.983  14.057  12.068  0.00  0.00    -0.306 N 
HETATM   32  C   UNK N   1      35.495  13.371  13.126  0.00  0.00     0.231 C 
HETATM   33  O   UNK N   1      35.313  13.812  14.253  0.00  0.00    -0.272 OA
HETATM   34  H   UNK N   1      34.540  14.918  12.242  0.00  0.00     0.171 HD
BRANCH  32  35
HETATM   35  C   UNK N   1      36.370  12.138  12.935  0.00  0.00     0.030 C 
HETATM   36  C   UNK N   1      35.524  10.919  12.654  0.00  0.00     0.025 C 
HETATM   37  C   UNK N   1      37.187  11.836  14.176  0.00  0.00     0.025 C 
HETATM   38  C   UNK N   1      37.360  12.352  11.800  0.00  0.00     0.025 C 
ENDBRANCH  32  35
ENDBRANCH   5  31
TORSDOF 11
ENDMDL
MODEL 3
REMARK VINA RESULT:      -6.2     13.484     16.475
REMARK  11 active torsions:
REMARK  status: ('A' for Active; 'I' for Inactive)
REMARK    1  A    between atoms: C_2  and  N_3 
REMARK    2  A    between atoms: N_3  and  C_4 
REMARK    3  A    between atoms: C_4  and  C_5 
REMARK    4  A    between atoms: C_5  and  S_6 
REMARK    5  A    between atoms: S_6  and  N_9 
REMARK    6  A    between atoms: N_9  and  C_10 
REMARK    7  A    between atoms: C_11  and  C_10 
REMARK    8  A    between atoms: C_11  and  C_30 
REMARK       I    between atoms: N_12  and  C_24 
REMARK    9  A    between atoms: C_15  and  N_17 
REMARK       I    between atoms: N_17  and  C_18 
REMARK   10  A    between atoms: C_18  and  C_20 
REMARK   11  A    between atoms: C_24  and  C_26 
ROOT
HETATM    1  C   UNK N   1      28.827  23.321  -6.381  0.00  0.00     0.155 C 
HETATM    2  N   UNK N   1      29.286  21.943  -6.592  0.00  0.00    -0.231 N 
HETATM    3  N   UNK N   1      29.910  21.433  -5.502  0.00  0.00    -0.273 N 
ATOM      4  HN  UNK N   1      29.892  20.452  -5.225  1.00  0.00     0.189 HD
HETATM    5  C   UNK N   1      30.519  22.355  -4.878  0.00  0.00     0.164 C 
HETATM    6  S   UNK N   1      30.409  24.013  -5.744  0.00  0.00    -0.052 SA
HETATM    7  C   UNK N   1      29.677  21.512  -7.859  0.00  0.00     0.247 C 
HETATM    8  O   UNK N   1      29.607  22.299  -8.804  0.00  0.00    -0.271 OA
ENDROOT
BRANCH   1   9
HETATM    9  C   UNK N   1      28.213  23.784  -5.028  0.00  0.00     0.182 C 
BRANCH   9  10
HETATM   10  N   UNK N   1      28.267  25.160  -4.615  0.00  0.00    -0.316 N 
HETATM   11  H   UNK N   1      29.038  25.817  -4.738  0.00  0.00     0.172 HD
BRANCH  10  12
HETATM   12  S   UNK N   1      26.689  25.469  -3.843  0.00  0.00     0.228 S 
HETATM   13  O   UNK N   1      26.329  24.213  -3.027  0.00  0.00    -0.206 OA
HETATM   14  O   UNK N   1      25.738  25.307  -5.028  0.00  0.00    -0.206 OA
BRANCH  12  15
HETATM   15  C   UNK N   1      26.251  27.037  -3.006  0.00  0.00     0.182 C 
BRANCH  15  16
HETATM   16  C   UNK N   1      25.602  28.025  -3.982  0.00  0.00     0.130 C 
BRANCH  16  17
HETATM   17  N   UNK N   1      25.981  29.401  -3.685  0.00  0.00    -0.421 N 
HETATM   18  H   UNK N   1      25.370  30.218  -3.709  0.00  0.00     0.153 HD
BRANCH  17  19
HETATM   19  C   UNK N   1      27.395  29.388  -3.350  0.00  0.00     0.109 C 
HETATM   20  C   UNK N   1      27.688  30.458  -2.318  0.00  0.00     0.026 C 
ENDBRANCH  17  19
ENDBRANCH  16  17
ENDBRANCH  15  16
ENDBRANCH  12  15
ENDBRANCH  10  12
ENDBRANCH   9  10
ENDBRANCH   1   9
BRANCH   1  21
HETATM   21  C   UNK N   1      27.666  23.560  -7.374  0.00  0.00    -0.016 A 
HETATM   22  C   UNK N   1      27.504  24.699  -8.172  0.00  0.00     0.011 A 
HETATM   23  C   UNK N   1      26.301  24.883  -8.884  0.00  0.00     0.001 A 
HETATM   24  C   UNK N   1      25.249  23.959  -8.780  0.00  0.00     0.000 A 
HETATM   25  C   UNK N   1      25.384  22.847  -7.963  0.00  0.00     0.001 A 
HETATM   26  C   UNK N   1      26.564  22.669  -7.259  0.00  0.00     0.011 A 
ENDBRANCH   1  21
BRANCH   7  27
HETATM   27  C   UNK N   1      30.230  20.132  -8.173  0.00  0.00     0.032 C 
HETATM   28  C   UNK N   1      29.723  19.034  -7.266  0.00  0.00     0.025 C 
HETATM   29  C   UNK N   1      29.790  19.750  -9.577  0.00  0.00     0.025 C 
HETATM   30  C   UNK N   1      31.750  20.155  -8.152  0.00  0.00     0.025 C 
ENDBRANCH   7  27
BRANCH   5  31
HETATM   31  N   UNK N   1      31.008  22.138  -3.559  0.00  0.00    -0.306 N 
HETATM   32  C   UNK N   1      32.197  21.535  -3.286  0.00  0.00     0.231 C 
HETATM   33  O   UNK N   1      32.491  21.324  -2.117  0.00  0.00    -0.272 OA
HETATM   34  H   UNK N   1      30.455  22.440  -2.803  0.00  0.00     0.171 HD
BRANCH  32  35
HETATM   35  C   UNK N   1      33.207  21.219  -4.383  0.00  0.00     0.030 C 
HETATM   36  C   UNK N   1      33.289  22.351  -5.378  0.00  0.00     0.025 C 
HETATM   37  C   UNK N   1      32.818  19.973  -5.156  0.00  0.00     0.025 C 
HETATM   38  C   UNK N   1      34.582  20.953  -3.788  0.00  0.00     0.025 C 
ENDBRANCH  32  35
ENDBRANCH   5  31
TORSDOF 11
ENDMDL
MODEL 4
REMARK VINA RESULT:      -6.2      4.541      8.029
REMARK  11 active torsions:
REMARK  status: ('A' for Active; 'I' for Inactive)
REMARK    1  A    between atoms: C_2  and  N_3 
REMARK    2  A    between atoms: N_3  and  C_4 
REMARK    3  A    between atoms: C_4  and  C_5 
REMARK    4  A    between atoms: C_5  and  S_6 
REMARK    5  A    between atoms: S_6  and  N_9 
REMARK    6  A    between atoms: N_9  and  C_10 
REMARK    7  A    between atoms: C_11  and  C_10 
REMARK    8  A    between atoms: C_11  and  C_30 
REMARK       I    between atoms: N_12  and  C_24 
REMARK    9  A    between atoms: C_15  and  N_17 
REMARK       I    between atoms: N_17  and  C_18 
REMARK   10  A    between atoms: C_18  and  C_20 
REMARK   11  A    between atoms: C_24  and  C_26 
ROOT
HETATM    1  C   UNK N   1      28.353  17.341   4.795  0.00  0.00     0.155 C 
HETATM    2  N   UNK N   1      27.478  16.310   5.365  0.00  0.00    -0.231 N 
HETATM    3  N   UNK N   1      28.136  15.151   5.613  0.00  0.00    -0.273 N 
ATOM      4  HN  UNK N   1      27.921  14.509   6.375  1.00  0.00     0.189 HD
HETATM    5  C   UNK N   1      29.059  14.984   4.759  0.00  0.00     0.164 C 
HETATM    6  S   UNK N   1      29.088  16.323   3.449  0.00  0.00    -0.052 SA
HETATM    7  C   UNK N   1      26.126  16.261   5.026  0.00  0.00     0.247 C 
HETATM    8  O   UNK N   1      25.673  17.112   4.261  0.00  0.00    -0.271 OA
ENDROOT
BRANCH   1   9
HETATM    9  C   UNK N   1      29.816  17.540   5.287  0.00  0.00     0.182 C 
BRANCH   9  10
HETATM   10  N   UNK N   1      30.900  17.716   4.358  0.00  0.00    -0.316 N 
HETATM   11  H   UNK N   1      30.859  18.131   3.427  0.00  0.00     0.172 HD
BRANCH  10  12
HETATM   12  S   UNK N   1      32.330  17.052   5.191  0.00  0.00     0.228 S 
HETATM   13  O   UNK N   1      33.516  17.979   4.865  0.00  0.00    -0.206 OA
HETATM   14  O   UNK N   1      32.666  15.854   4.305  0.00  0.00    -0.206 OA
BRANCH  12  15
HETATM   15  C   UNK N   1      32.318  16.460   6.924  0.00  0.00     0.182 C 
BRANCH  15  16
HETATM   16  C   UNK N   1      32.464  17.624   7.910  0.00  0.00     0.130 C 
BRANCH  16  17
HETATM   17  N   UNK N   1      31.534  17.503   9.026  0.00  0.00    -0.421 N 
HETATM   18  H   UNK N   1      31.549  16.787   9.753  0.00  0.00     0.153 HD
BRANCH  17  19
HETATM   19  C   UNK N   1      30.583  18.594   8.906  0.00  0.00     0.109 C 
HETATM   20  C   UNK N   1      29.386  18.332   9.798  0.00  0.00     0.026 C 
ENDBRANCH  17  19
ENDBRANCH  16  17
ENDBRANCH  15  16
ENDBRANCH  12  15
ENDBRANCH  10  12
ENDBRANCH   9  10
ENDBRANCH   1   9
BRANCH   1  21
HETATM   21  C   UNK N   1      27.704  18.706   5.120  0.00  0.00    -0.016 A 
HETATM   22  C   UNK N   1      27.367  19.688   4.181  0.00  0.00     0.011 A 
HETATM   23  C   UNK N   1      26.967  20.966   4.623  0.00  0.00     0.001 A 
HETATM   24  C   UNK N   1      26.931  21.280   5.991  0.00  0.00     0.000 A 
HETATM   25  C   UNK N   1      27.298  20.327   6.929  0.00  0.00     0.001 A 
HETATM   26  C   UNK N   1      27.696  19.074   6.494  0.00  0.00     0.011 A 
ENDBRANCH   1  21
BRANCH   7  27
HETATM   27  C   UNK N   1      25.150  15.199   5.505  0.00  0.00     0.032 C 
HETATM   28  C   UNK N   1      25.595  14.454   6.743  0.00  0.00     0.025 C 
HETATM   29  C   UNK N   1      23.844  15.883   5.875  0.00  0.00     0.025 C 
HETATM   30  C   UNK N   1      24.857  14.210   4.388  0.00  0.00     0.025 C 
ENDBRANCH   7  27
BRANCH   5  31
HETATM   31  N   UNK N   1      30.070  14.002   4.965  0.00  0.00    -0.306 N 
HETATM   32  C   UNK N   1      29.927  12.692   4.624  0.00  0.00     0.231 C 
HETATM   33  O   UNK N   1      30.824  11.912   4.915  0.00  0.00    -0.272 OA
HETATM   34  H   UNK N   1      30.916  14.287   5.377  0.00  0.00     0.171 HD
BRANCH  32  35
HETATM   35  C   UNK N   1      28.741  12.201   3.804  0.00  0.00     0.030 C 
HETATM   36  C   UNK N   1      27.527  12.009   4.680  0.00  0.00     0.025 C 
HETATM   37  C   UNK N   1      29.031  10.865   3.148  0.00  0.00     0.025 C 
HETATM   38  C   UNK N   1      28.420  13.179   2.684  0.00  0.00     0.025 C 
ENDBRANCH  32  35
ENDBRANCH   5  31
TORSDOF 11
ENDMDL
MODEL 5
REMARK VINA RESULT:      -6.1      7.827     11.683
REMARK  11 active torsions:
REMARK  status: ('A' for Active; 'I' for Inactive)
REMARK    1  A    between atoms: C_2  and  N_3 
REMARK    2  A    between atoms: N_3  and  C_4 
REMARK    3  A    between atoms: C_4  and  C_5 
REMARK    4  A    between atoms: C_5  and  S_6 
REMARK    5  A    between atoms: S_6  and  N_9 
REMARK    6  A    between atoms: N_9  and  C_10 
REMARK    7  A    between atoms: C_11  and  C_10 
REMARK    8  A    between atoms: C_11  and  C_30 
REMARK       I    between atoms: N_12  and  C_24 
REMARK    9  A    between atoms: C_15  and  N_17 
REMARK       I    between atoms: N_17  and  C_18 
REMARK   10  A    between atoms: C_18  and  C_20 
REMARK   11  A    between atoms: C_24  and  C_26 
ROOT
HETATM    1  C   UNK N   1      24.026  15.449   4.682  0.00  0.00     0.155 C 
HETATM    2  N   UNK N   1      22.850  15.825   3.889  0.00  0.00    -0.231 N 
HETATM    3  N   UNK N   1      22.155  16.847   4.446  0.00  0.00    -0.273 N 
ATOM      4  HN  UNK N   1      21.641  17.557   3.925  1.00  0.00     0.189 HD
HETATM    5  C   UNK N   1      22.239  16.791   5.711  0.00  0.00     0.164 C 
HETATM    6  S   UNK N   1      23.184  15.289   6.310  0.00  0.00    -0.052 SA
HETATM    7  C   UNK N   1      22.164  14.869   3.141  0.00  0.00     0.247 C 
HETATM    8  O   UNK N   1      22.576  13.709   3.136  0.00  0.00    -0.271 OA
ENDROOT
BRANCH   1   9
HETATM    9  C   UNK N   1      24.922  16.514   5.379  0.00  0.00     0.182 C 
BRANCH   9  10
HETATM   10  N   UNK N   1      25.800  16.160   6.461  0.00  0.00    -0.316 N 
HETATM   11  H   UNK N   1      25.553  15.700   7.338  0.00  0.00     0.172 HD
BRANCH  10  12
HETATM   12  S   UNK N   1      27.417  16.697   5.933  0.00  0.00     0.228 S 
HETATM   13  O   UNK N   1      28.229  15.431   5.598  0.00  0.00    -0.206 OA
HETATM   14  O   UNK N   1      28.055  17.087   7.265  0.00  0.00    -0.206 OA
BRANCH  12  15
HETATM   15  C   UNK N   1      27.703  18.081   4.768  0.00  0.00     0.182 C 
BRANCH  15  16
HETATM   16  C   UNK N   1      27.684  19.430   5.495  0.00  0.00     0.130 C 
BRANCH  16  17
HETATM   17  N   UNK N   1      26.474  19.594   6.292  0.00  0.00    -0.421 N 
HETATM   18  H   UNK N   1      25.788  18.871   6.511  0.00  0.00     0.153 HD
BRANCH  17  19
HETATM   19  C   UNK N   1      26.431  20.984   6.715  0.00  0.00     0.109 C 
HETATM   20  C   UNK N   1      27.642  21.721   6.177  0.00  0.00     0.026 C 
ENDBRANCH  17  19
ENDBRANCH  16  17
ENDBRANCH  15  16
ENDBRANCH  12  15
ENDBRANCH  10  12
ENDBRANCH   9  10
ENDBRANCH   1   9
BRANCH   1  21
HETATM   21  C   UNK N   1      25.017  14.765   3.712  0.00  0.00    -0.016 A 
HETATM   22  C   UNK N   1      25.593  13.503   3.899  0.00  0.00     0.011 A 
HETATM   23  C   UNK N   1      26.631  13.078   3.044  0.00  0.00     0.001 A 
HETATM   24  C   UNK N   1      27.119  13.914   2.027  0.00  0.00     0.000 A 
HETATM   25  C   UNK N   1      26.581  15.182   1.857  0.00  0.00     0.001 A 
HETATM   26  C   UNK N   1      25.566  15.600   2.700  0.00  0.00     0.011 A 
ENDBRANCH   1  21
BRANCH   7  27
HETATM   27  C   UNK N   1      20.899  15.138   2.341  0.00  0.00     0.032 C 
HETATM   28  C   UNK N   1      20.660  16.596   2.021  0.00  0.00     0.025 C 
HETATM   29  C   UNK N   1      21.023  14.430   1.002  0.00  0.00     0.025 C 
HETATM   30  C   UNK N   1      19.689  14.565   3.061  0.00  0.00     0.025 C 
ENDBRANCH   7  27
BRANCH   5  31
HETATM   31  N   UNK N   1      21.843  17.898   6.515  0.00  0.00    -0.306 N 
HETATM   32  C   UNK N   1      20.754  17.884   7.331  0.00  0.00     0.231 C 
HETATM   33  O   UNK N   1      20.452  18.913   7.920  0.00  0.00    -0.272 OA
HETATM   34  H   UNK N   1      22.386  18.717   6.478  0.00  0.00     0.171 HD
BRANCH  32  35
HETATM   35  C   UNK N   1      19.973  16.604   7.607  0.00  0.00     0.030 C 
HETATM   36  C   UNK N   1      19.509  15.972   6.317  0.00  0.00     0.025 C 
HETATM   37  C   UNK N   1      18.737  16.874   8.442  0.00  0.00     0.025 C 
HETATM   38  C   UNK N   1      20.824  15.616   8.390  0.00  0.00     0.025 C 
ENDBRANCH  32  35
ENDBRANCH   5  31
TORSDOF 11
ENDMDL
MODEL 6
REMARK VINA RESULT:      -6.1      9.641     12.870
REMARK  11 active torsions:
REMARK  status: ('A' for Active; 'I' for Inactive)
REMARK    1  A    between atoms: C_2  and  N_3 
REMARK    2  A    between atoms: N_3  and  C_4 
REMARK    3  A    between atoms: C_4  and  C_5 
REMARK    4  A    between atoms: C_5  and  S_6 
REMARK    5  A    between atoms: S_6  and  N_9 
REMARK    6  A    between atoms: N_9  and  C_10 
REMARK    7  A    between atoms: C_11  and  C_10 
REMARK    8  A    between atoms: C_11  and  C_30 
REMARK       I    between atoms: N_12  and  C_24 
REMARK    9  A    between atoms: C_15  and  N_17 
REMARK       I    between atoms: N_17  and  C_18 
REMARK   10  A    between atoms: C_18  and  C_20 
REMARK   11  A    between atoms: C_24  and  C_26 
ROOT
HETATM    1  C   UNK N   1      22.771  16.299   4.927  0.00  0.00     0.155 C 
HETATM    2  N   UNK N   1      22.479  15.067   5.668  0.00  0.00    -0.231 N 
HETATM    3  N   UNK N   1      21.154  14.905   5.902  0.00  0.00    -0.273 N 
ATOM      4  HN  UNK N   1      20.675  14.006   5.953  1.00  0.00     0.189 HD
HETATM    5  C   UNK N   1      20.596  16.035   6.049  0.00  0.00     0.164 C 
HETATM    6  S   UNK N   1      21.814  17.458   5.990  0.00  0.00    -0.052 SA
HETATM    7  C   UNK N   1      23.396  14.559   6.589  0.00  0.00     0.247 C 
HETATM    8  O   UNK N   1      24.465  15.148   6.750  0.00  0.00    -0.271 OA
ENDROOT
BRANCH   1   9
HETATM    9  C   UNK N   1      21.860  16.794   3.766  0.00  0.00     0.182 C 
BRANCH   9  10
HETATM   10  N   UNK N   1      21.806  18.184   3.398  0.00  0.00    -0.316 N 
HETATM   11  H   UNK N   1      22.485  18.912   3.621  0.00  0.00     0.172 HD
BRANCH  10  12
HETATM   12  S   UNK N   1      20.294  18.352   2.468  0.00  0.00     0.228 S 
HETATM   13  O   UNK N   1      19.845  19.820   2.593  0.00  0.00    -0.206 OA
HETATM   14  O   UNK N   1      19.289  17.678   3.400  0.00  0.00    -0.206 OA
BRANCH  12  15
HETATM   15  C   UNK N   1      20.041  17.649   0.796  0.00  0.00     0.182 C 
BRANCH  15  16
HETATM   16  C   UNK N   1      20.290  16.137   0.787  0.00  0.00     0.130 C 
BRANCH  16  17
HETATM   17  N   UNK N   1      19.278  15.420   1.553  0.00  0.00    -0.421 N 
HETATM   18  H   UNK N   1      18.353  15.765   1.809  0.00  0.00     0.153 HD
BRANCH  17  19
HETATM   19  C   UNK N   1      19.839  14.121   1.883  0.00  0.00     0.109 C 
HETATM   20  C   UNK N   1      21.131  13.911   1.119  0.00  0.00     0.026 C 
ENDBRANCH  17  19
ENDBRANCH  16  17
ENDBRANCH  15  16
ENDBRANCH  12  15
ENDBRANCH  10  12
ENDBRANCH   9  10
ENDBRANCH   1   9
BRANCH   1  21
HETATM   21  C   UNK N   1      24.127  16.082   4.217  0.00  0.00    -0.016 A 
HETATM   22  C   UNK N   1      25.216  16.960   4.264  0.00  0.00     0.011 A 
HETATM   23  C   UNK N   1      26.321  16.744   3.414  0.00  0.00     0.001 A 
HETATM   24  C   UNK N   1      26.332  15.682   2.497  0.00  0.00     0.000 A 
HETATM   25  C   UNK N   1      25.241  14.828   2.415  0.00  0.00     0.001 A 
HETATM   26  C   UNK N   1      24.155  15.043   3.247  0.00  0.00     0.011 A 
ENDBRANCH   1  21
BRANCH   7  27
HETATM   27  C   UNK N   1      23.165  13.332   7.455  0.00  0.00     0.032 C 
HETATM   28  C   UNK N   1      22.269  12.286   6.832  0.00  0.00     0.025 C 
HETATM   29  C   UNK N   1      24.505  12.652   7.684  0.00  0.00     0.025 C 
HETATM   30  C   UNK N   1      22.612  13.740   8.811  0.00  0.00     0.025 C 
ENDBRANCH   7  27
BRANCH   5  31
HETATM   31  N   UNK N   1      19.178  16.154   6.020  0.00  0.00    -0.306 N 
HETATM   32  C   UNK N   1      18.417  16.369   7.128  0.00  0.00     0.231 C 
HETATM   33  O   UNK N   1      17.199  16.377   7.009  0.00  0.00    -0.272 OA
HETATM   34  H   UNK N   1      18.723  16.076   5.151  0.00  0.00     0.171 HD
BRANCH  32  35
HETATM   35  C   UNK N   1      19.042  16.702   8.477  0.00  0.00     0.030 C 
HETATM   36  C   UNK N   1      19.900  17.940   8.379  0.00  0.00     0.025 C 
HETATM   37  C   UNK N   1      19.934  15.580   8.971  0.00  0.00     0.025 C 
HETATM   38  C   UNK N   1      17.965  16.902   9.533  0.00  0.00     0.025 C 
ENDBRANCH  32  35
ENDBRANCH   5  31
TORSDOF 11
ENDMDL
MODEL 7
REMARK VINA RESULT:      -5.9      3.809      8.130
REMARK  11 active torsions:
REMARK  status: ('A' for Active; 'I' for Inactive)
REMARK    1  A    between atoms: C_2  and  N_3 
REMARK    2  A    between atoms: N_3  and  C_4 
REMARK    3  A    between atoms: C_4  and  C_5 
REMARK    4  A    between atoms: C_5  and  S_6 
REMARK    5  A    between atoms: S_6  and  N_9 
REMARK    6  A    between atoms: N_9  and  C_10 
REMARK    7  A    between atoms: C_11  and  C_10 
REMARK    8  A    between atoms: C_11  and  C_30 
REMARK       I    between atoms: N_12  and  C_24 
REMARK    9  A    between atoms: C_15  and  N_17 
REMARK       I    between atoms: N_17  and  C_18 
REMARK   10  A    between atoms: C_18  and  C_20 
REMARK   11  A    between atoms: C_24  and  C_26 
ROOT
HETATM    1  C   UNK N   1      28.546  17.216   4.955  0.00  0.00     0.155 C 
HETATM    2  N   UNK N   1      27.623  16.176   5.423  0.00  0.00    -0.231 N 
HETATM    3  N   UNK N   1      28.254  15.005   5.689  0.00  0.00    -0.273 N 
ATOM      4  HN  UNK N   1      27.975  14.343   6.413  1.00  0.00     0.189 HD
HETATM    5  C   UNK N   1      29.242  14.856   4.907  0.00  0.00     0.164 C 
HETATM    6  S   UNK N   1      29.382  16.231   3.643  0.00  0.00    -0.052 SA
HETATM    7  C   UNK N   1      26.303  16.145   4.976  0.00  0.00     0.247 C 
HETATM    8  O   UNK N   1      25.916  17.021   4.202  0.00  0.00    -0.271 OA
ENDROOT
BRANCH   1   9
HETATM    9  C   UNK N   1      29.966  17.390   5.568  0.00  0.00     0.182 C 
BRANCH   9  10
HETATM   10  N   UNK N   1      31.129  17.529   4.733  0.00  0.00    -0.316 N 
HETATM   11  H   UNK N   1      31.166  17.866   3.770  0.00  0.00     0.172 HD
BRANCH  10  12
HETATM   12  S   UNK N   1      32.490  16.988   5.749  0.00  0.00     0.228 S 
HETATM   13  O   UNK N   1      33.718  17.829   5.350  0.00  0.00    -0.206 OA
HETATM   14  O   UNK N   1      32.846  15.656   5.091  0.00  0.00    -0.206 OA
BRANCH  12  15
HETATM   15  C   UNK N   1      32.363  16.687   7.551  0.00  0.00     0.182 C 
BRANCH  15  16
HETATM   16  C   UNK N   1      32.736  17.940   8.350  0.00  0.00     0.130 C 
BRANCH  16  17
HETATM   17  N   UNK N   1      34.177  18.042   8.549  0.00  0.00    -0.421 N 
HETATM   18  H   UNK N   1      34.748  18.881   8.441  0.00  0.00     0.153 HD
BRANCH  17  19
HETATM   19  C   UNK N   1      34.646  16.720   8.929  0.00  0.00     0.109 C 
HETATM   20  C   UNK N   1      35.216  16.762  10.333  0.00  0.00     0.026 C 
ENDBRANCH  17  19
ENDBRANCH  16  17
ENDBRANCH  15  16
ENDBRANCH  12  15
ENDBRANCH  10  12
ENDBRANCH   9  10
ENDBRANCH   1   9
BRANCH   1  21
HETATM   21  C   UNK N   1      27.880  18.576   5.267  0.00  0.00    -0.016 A 
HETATM   22  C   UNK N   1      27.590  19.571   4.325  0.00  0.00     0.011 A 
HETATM   23  C   UNK N   1      27.166  20.842   4.765  0.00  0.00     0.001 A 
HETATM   24  C   UNK N   1      27.060  21.136   6.134  0.00  0.00     0.000 A 
HETATM   25  C   UNK N   1      27.382  20.170   7.075  0.00  0.00     0.001 A 
HETATM   26  C   UNK N   1      27.803  18.923   6.644  0.00  0.00     0.011 A 
ENDBRANCH   1  21
BRANCH   7  27
HETATM   27  C   UNK N   1      25.287  15.077   5.344  0.00  0.00     0.032 C 
HETATM   28  C   UNK N   1      25.628  14.293   6.591  0.00  0.00     0.025 C 
HETATM   29  C   UNK N   1      23.959  15.760   5.630  0.00  0.00     0.025 C 
HETATM   30  C   UNK N   1      25.078  14.123   4.179  0.00  0.00     0.025 C 
ENDBRANCH   7  27
BRANCH   5  31
HETATM   31  N   UNK N   1      30.228  13.861   5.165  0.00  0.00    -0.306 N 
HETATM   32  C   UNK N   1      30.121  12.570   4.749  0.00  0.00     0.231 C 
HETATM   33  O   UNK N   1      30.985  11.773   5.089  0.00  0.00    -0.272 OA
HETATM   34  H   UNK N   1      31.029  14.122   5.672  0.00  0.00     0.171 HD
BRANCH  32  35
HETATM   35  C   UNK N   1      29.022  12.123   3.792  0.00  0.00     0.030 C 
HETATM   36  C   UNK N   1      27.727  11.894   4.534  0.00  0.00     0.025 C 
HETATM   37  C   UNK N   1      29.378  10.819   3.104  0.00  0.00     0.025 C 
HETATM   38  C   UNK N   1      28.813  13.155   2.694  0.00  0.00     0.025 C 
ENDBRANCH  32  35
ENDBRANCH   5  31
TORSDOF 11
ENDMDL
MODEL 8
REMARK VINA RESULT:      -5.8     13.226     17.938
REMARK  11 active torsions:
REMARK  status: ('A' for Active; 'I' for Inactive)
REMARK    1  A    between atoms: C_2  and  N_3 
REMARK    2  A    between atoms: N_3  and  C_4 
REMARK    3  A    between atoms: C_4  and  C_5 
REMARK    4  A    between atoms: C_5  and  S_6 
REMARK    5  A    between atoms: S_6  and  N_9 
REMARK    6  A    between atoms: N_9  and  C_10 
REMARK    7  A    between atoms: C_11  and  C_10 
REMARK    8  A    between atoms: C_11  and  C_30 
REMARK       I    between atoms: N_12  and  C_24 
REMARK    9  A    between atoms: C_15  and  N_17 
REMARK       I    between atoms: N_17  and  C_18 
REMARK   10  A    between atoms: C_18  and  C_20 
REMARK   11  A    between atoms: C_24  and  C_26 
ROOT
HETATM    1  C   UNK N   1      29.316  23.711  -5.760  0.00  0.00     0.155 C 
HETATM    2  N   UNK N   1      28.890  24.806  -6.639  0.00  0.00    -0.231 N 
HETATM    3  N   UNK N   1      29.024  26.022  -6.055  0.00  0.00    -0.273 N 
ATOM      4  HN  UNK N   1      29.247  26.886  -6.548  1.00  0.00     0.189 HD
HETATM    5  C   UNK N   1      28.833  25.927  -4.804  0.00  0.00     0.164 C 
HETATM    6  S   UNK N   1      28.346  24.198  -4.274  0.00  0.00    -0.052 SA
HETATM    7  C   UNK N   1      27.869  24.612  -7.570  0.00  0.00     0.247 C 
HETATM    8  O   UNK N   1      27.349  23.500  -7.659  0.00  0.00    -0.271 OA
ENDROOT
BRANCH   1   9
HETATM    9  C   UNK N   1      30.567  23.835  -4.843  0.00  0.00     0.182 C 
BRANCH   9  10
HETATM   10  N   UNK N   1      30.569  23.305  -3.506  0.00  0.00    -0.316 N 
HETATM   11  H   UNK N   1      30.070  23.667  -2.693  0.00  0.00     0.172 HD
BRANCH  10  12
HETATM   12  S   UNK N   1      31.632  21.875  -3.582  0.00  0.00     0.228 S 
HETATM   13  O   UNK N   1      30.721  20.635  -3.647  0.00  0.00    -0.206 OA
HETATM   14  O   UNK N   1      32.117  21.783  -2.136  0.00  0.00    -0.206 OA
BRANCH  12  15
HETATM   15  C   UNK N   1      33.109  21.757  -4.658  0.00  0.00     0.182 C 
BRANCH  15  16
HETATM   16  C   UNK N   1      33.465  20.295  -4.953  0.00  0.00     0.130 C 
BRANCH  16  17
HETATM   17  N   UNK N   1      33.617  19.521  -3.728  0.00  0.00    -0.421 N 
HETATM   18  H   UNK N   1      33.395  19.832  -2.781  0.00  0.00     0.153 HD
BRANCH  17  19
HETATM   19  C   UNK N   1      34.147  18.223  -4.110  0.00  0.00     0.109 C 
HETATM   20  C   UNK N   1      35.348  18.407  -5.017  0.00  0.00     0.026 C 
ENDBRANCH  17  19
ENDBRANCH  16  17
ENDBRANCH  15  16
ENDBRANCH  12  15
ENDBRANCH  10  12
ENDBRANCH   9  10
ENDBRANCH   1   9
BRANCH   1  21
HETATM   21  C   UNK N   1      29.692  22.525  -6.678  0.00  0.00    -0.016 A 
HETATM   22  C   UNK N   1      29.157  21.233  -6.591  0.00  0.00     0.011 A 
HETATM   23  C   UNK N   1      29.727  20.193  -7.354  0.00  0.00     0.001 A 
HETATM   24  C   UNK N   1      30.843  20.423  -8.174  0.00  0.00     0.000 A 
HETATM   25  C   UNK N   1      31.404  21.690  -8.237  0.00  0.00     0.001 A 
HETATM   26  C   UNK N   1      30.848  22.711  -7.485  0.00  0.00     0.011 A 
ENDBRANCH   1  21
BRANCH   7  27
HETATM   27  C   UNK N   1      27.307  25.694  -8.478  0.00  0.00     0.032 C 
HETATM   28  C   UNK N   1      28.253  26.843  -8.741  0.00  0.00     0.025 C 
HETATM   29  C   UNK N   1      27.017  25.072  -9.835  0.00  0.00     0.025 C 
HETATM   30  C   UNK N   1      25.997  26.224  -7.919  0.00  0.00     0.025 C 
ENDBRANCH   7  27
BRANCH   5  31
HETATM   31  N   UNK N   1      29.195  26.992  -3.931  0.00  0.00    -0.306 N 
HETATM   32  C   UNK N   1      28.435  28.106  -3.748  0.00  0.00     0.231 C 
HETATM   33  O   UNK N   1      28.871  29.001  -3.037  0.00  0.00    -0.272 OA
HETATM   34  H   UNK N   1      30.041  26.919  -3.435  0.00  0.00     0.171 HD
BRANCH  32  35
HETATM   35  C   UNK N   1      27.024  28.217  -4.314  0.00  0.00     0.030 C 
HETATM   36  C   UNK N   1      27.062  28.577  -5.779  0.00  0.00     0.025 C 
HETATM   37  C   UNK N   1      26.224  29.297  -3.610  0.00  0.00     0.025 C 
HETATM   38  C   UNK N   1      26.264  26.913  -4.121  0.00  0.00     0.025 C 
ENDBRANCH  32  35
ENDBRANCH   5  31
TORSDOF 11
ENDMDL
MODEL 9
REMARK VINA RESULT:      -5.8      4.898      8.812
REMARK  11 active torsions:
REMARK  status: ('A' for Active; 'I' for Inactive)
REMARK    1  A    between atoms: C_2  and  N_3 
REMARK    2  A    between atoms: N_3  and  C_4 
REMARK    3  A    between atoms: C_4  and  C_5 
REMARK    4  A    between atoms: C_5  and  S_6 
REMARK    5  A    between atoms: S_6  and  N_9 
REMARK    6  A    between atoms: N_9  and  C_10 
REMARK    7  A    between atoms: C_11  and  C_10 
REMARK    8  A    between atoms: C_11  and  C_30 
REMARK       I    between atoms: N_12  and  C_24 
REMARK    9  A    between atoms: C_15  and  N_17 
REMARK       I    between atoms: N_17  and  C_18 
REMARK   10  A    between atoms: C_18  and  C_20 
REMARK   11  A    between atoms: C_24  and  C_26 
ROOT
HETATM    1  C   UNK N   1      26.440  15.700   4.785  0.00  0.00     0.155 C 
HETATM    2  N   UNK N   1      26.888  17.072   4.520  0.00  0.00    -0.231 N 
HETATM    3  N   UNK N   1      28.110  17.329   5.048  0.00  0.00    -0.273 N 
ATOM      4  HN  UNK N   1      28.800  17.963   4.644  1.00  0.00     0.189 HD
HETATM    5  C   UNK N   1      28.270  16.666   6.117  0.00  0.00     0.164 C 
HETATM    6  S   UNK N   1      26.747  15.688   6.600  0.00  0.00    -0.052 SA
HETATM    7  C   UNK N   1      25.964  18.112   4.415  0.00  0.00     0.247 C 
HETATM    8  O   UNK N   1      24.765  17.855   4.522  0.00  0.00    -0.271 OA
ENDROOT
BRANCH   1   9
HETATM    9  C   UNK N   1      27.420  14.491   4.728  0.00  0.00     0.182 C 
BRANCH   9  10
HETATM   10  N   UNK N   1      27.861  13.946   3.472  0.00  0.00    -0.316 N 
HETATM   11  H   UNK N   1      27.303  13.437   2.785  0.00  0.00     0.172 HD
BRANCH  10  12
HETATM   12  S   UNK N   1      29.594  14.355   3.378  0.00  0.00     0.228 S 
HETATM   13  O   UNK N   1      29.690  15.816   2.899  0.00  0.00    -0.206 OA
HETATM   14  O   UNK N   1      30.008  13.622   2.104  0.00  0.00    -0.206 OA
BRANCH  12  15
HETATM   15  C   UNK N   1      30.816  13.927   4.673  0.00  0.00     0.182 C 
BRANCH  15  16
HETATM   16  C   UNK N   1      32.238  14.293   4.236  0.00  0.00     0.130 C 
BRANCH  16  17
HETATM   17  N   UNK N   1      32.239  15.061   2.997  0.00  0.00    -0.421 N 
HETATM   18  H   UNK N   1      31.621  14.924   2.197  0.00  0.00     0.153 HD
BRANCH  17  19
HETATM   19  C   UNK N   1      33.290  16.057   3.117  0.00  0.00     0.109 C 
HETATM   20  C   UNK N   1      32.759  17.278   3.840  0.00  0.00     0.026 C 
ENDBRANCH  17  19
ENDBRANCH  16  17
ENDBRANCH  15  16
ENDBRANCH  12  15
ENDBRANCH  10  12
ENDBRANCH   9  10
ENDBRANCH   1   9
BRANCH   1  21
HETATM   21  C   UNK N   1      25.411  15.347   3.687  0.00  0.00    -0.016 A 
HETATM   22  C   UNK N   1      24.221  14.638   3.889  0.00  0.00     0.011 A 
HETATM   23  C   UNK N   1      23.469  14.209   2.776  0.00  0.00     0.001 A 
HETATM   24  C   UNK N   1      23.911  14.453   1.466  0.00  0.00     0.000 A 
HETATM   25  C   UNK N   1      25.108  15.121   1.254  0.00  0.00     0.001 A 
HETATM   26  C   UNK N   1      25.849  15.537   2.347  0.00  0.00     0.011 A 
ENDBRANCH   1  21
BRANCH   7  27
HETATM   27  C   UNK N   1      26.325  19.574   4.209  0.00  0.00     0.032 C 
HETATM   28  C   UNK N   1      27.781  19.820   3.889  0.00  0.00     0.025 C 
HETATM   29  C   UNK N   1      25.540  20.094   3.016  0.00  0.00     0.025 C 
HETATM   30  C   UNK N   1      25.920  20.392   5.425  0.00  0.00     0.025 C 
ENDBRANCH   7  27
BRANCH   5  31
HETATM   31  N   UNK N   1      29.560  16.537   6.706  0.00  0.00    -0.306 N 
HETATM   32  C   UNK N   1      29.965  17.245   7.796  0.00  0.00     0.231 C 
HETATM   33  O   UNK N   1      31.121  17.121   8.177  0.00  0.00    -0.272 OA
HETATM   34  H   UNK N   1      30.194  15.903   6.301  0.00  0.00     0.171 HD
BRANCH  32  35
HETATM   35  C   UNK N   1      28.994  18.095   8.606  0.00  0.00     0.030 C 
HETATM   36  C   UNK N   1      29.714  18.816   9.719  0.00  0.00     0.025 C 
HETATM   37  C   UNK N   1      27.913  17.248   9.249  0.00  0.00     0.025 C 
HETATM   38  C   UNK N   1      28.287  19.102   7.711  0.00  0.00     0.025 C 
ENDBRANCH  32  35
ENDBRANCH   5  31
TORSDOF 11
ENDMDL
