REMARK  15 active torsions:
REMARK  status: ('A' for Active; 'I' for Inactive)
REMARK    1  A    between atoms: C_2  and  C_3 
REMARK    2  A    between atoms: C_2  and  N_11 
REMARK    3  A    between atoms: C_3  and  O_5 
REMARK    4  A    between atoms: O_5  and  C_6 
REMARK    5  A    between atoms: C_6  and  C_7 
REMARK    6  A    between atoms: N_11  and  P_12 
REMARK    7  A    between atoms: P_12  and  O_14 
REMARK    8  A    between atoms: P_12  and  O_39 
REMARK    9  A    between atoms: O_14  and  C_15 
REMARK   10  A    between atoms: C_16  and  C_15 
REMARK   11  A    between atoms: C_17  and  O_38 
REMARK   12  A    between atoms: C_18  and  O_37 
REMARK   13  A    between atoms: C_19  and  N_21 
REMARK       I    between atoms: C_29  and  N_35 
REMARK   14  A    between atoms: C_32  and  O_33 
REMARK   15  A    between atoms: O_39  and  C_40 
ROOT
HETATM    1  C   UNK N   1      -2.613  -0.096  -0.023  0.00  0.00     0.180 C 
HETATM    2  C   UNK N   1      -2.327  -1.406   0.636  0.00  0.00     0.187 C 
HETATM    3  C   UNK N   1      -2.783  -2.282  -0.491  0.00  0.00     0.126 C 
HETATM    4  C   UNK N   1      -4.092  -1.544  -0.870  0.00  0.00     0.267 C 
HETATM    5  O   UNK N   1      -3.913  -0.170  -0.554  0.00  0.00    -0.353 OA
HETATM    6  C   UNK N   1      -2.705  -3.739  -0.115  0.00  0.00     0.053 C 
ENDROOT
BRANCH   1   7
HETATM    7  C   UNK N   1      -2.370   1.129   0.812  0.00  0.00     0.214 C 
BRANCH   7   8
HETATM    8  O   UNK N   1      -2.109   2.162  -0.082  0.00  0.00    -0.295 OA
BRANCH   8   9
HETATM    9  P   UNK N   1      -0.452   2.624   0.180  0.00  0.00     0.436 P 
HETATM   10  O   UNK N   1      -0.060   3.642  -0.924  0.00  0.00    -0.234 OA
BRANCH   9  11
HETATM   11  N   UNK N   1      -0.375   3.499   1.762  0.00  0.00    -0.314 N 
HETATM   12  H   UNK N   1      -1.178   3.624   2.379  0.00  0.00     0.166 HD
BRANCH  11  13
HETATM   13  C   UNK N   1       0.967   4.009   2.061  0.00  0.00     0.183 C 
HETATM   14  C   UNK N   1       1.968   2.889   2.323  0.00  0.00     0.043 C 
BRANCH  13  15
HETATM   15  C   UNK N   1       1.350   5.118   1.101  0.00  0.00     0.281 C 
HETATM   16  O   UNK N   1       0.528   5.999   0.911  0.00  0.00    -0.263 OA
BRANCH  15  17
HETATM   17  O   UNK N   1       2.530   5.190   0.426  0.00  0.00    -0.319 OA
BRANCH  17  18
HETATM   18  C   UNK N   1       3.686   4.502   0.724  0.00  0.00     0.187 C 
BRANCH  18  19
HETATM   19  C   UNK N   1       4.360   3.938  -0.525  0.00  0.00    -0.029 C 
HETATM   20  C   UNK N   1       5.775   3.542  -0.163  0.00  0.00     0.016 C 
HETATM   21  C   UNK N   1       4.421   4.974  -1.635  0.00  0.00     0.016 C 
HETATM   22  C   UNK N   1       3.619   2.713  -1.020  0.00  0.00     0.016 C 
ENDBRANCH  18  19
ENDBRANCH  17  18
ENDBRANCH  15  17
ENDBRANCH  13  15
ENDBRANCH  11  13
ENDBRANCH   9  11
BRANCH   9  23
HETATM   23  O   UNK N   1       0.741   1.381   0.265  0.00  0.00    -0.255 OA
BRANCH  23  24
HETATM   24  C   UNK N   1       0.981   0.300  -0.513  0.00  0.00     0.091 A 
HETATM   25  C   UNK N   1       0.209  -0.014  -1.639  0.00  0.00     0.038 A 
HETATM   26  C   UNK N   1       0.465  -1.197  -2.352  0.00  0.00     0.004 A 
HETATM   27  C   UNK N   1       1.458  -2.086  -1.928  0.00  0.00     0.012 A 
HETATM   28  C   UNK N   1       2.246  -1.770  -0.822  0.00  0.00    -0.023 A 
HETATM   29  C   UNK N   1       2.019  -0.564  -0.123  0.00  0.00     0.008 A 
HETATM   30  C   UNK N   1       3.259  -2.639  -0.403  0.00  0.00     0.012 A 
HETATM   31  C   UNK N   1       2.827  -0.244   0.978  0.00  0.00     0.015 A 
HETATM   32  C   UNK N   1       3.851  -1.103   1.377  0.00  0.00     0.001 A 
HETATM   33  C   UNK N   1       4.061  -2.304   0.694  0.00  0.00     0.001 A 
ENDBRANCH  23  24
ENDBRANCH   9  23
ENDBRANCH   8   9
ENDBRANCH   7   8
ENDBRANCH   1   7
BRANCH   2  34
HETATM   34  O   UNK N   1      -0.968  -1.562   0.916  0.00  0.00    -0.390 OA
HETATM   35  H   UNK N   1      -0.590  -2.434   1.111  0.00  0.00     0.210 HD
ENDBRANCH   2  34
BRANCH   3  36
HETATM   36  O   UNK N   1      -1.945  -2.146  -1.594  0.00  0.00    -0.383 OA
HETATM   37  H   UNK N   1      -1.571  -2.605  -2.363  0.00  0.00     0.210 HD
ENDBRANCH   3  36
BRANCH   4  38
HETATM   38  N   UNK N   1      -5.431  -2.007  -0.448  0.00  0.00    -0.296 N 
HETATM   39  C   UNK N   1      -6.564  -1.297  -0.697  0.00  0.00     0.188 A 
HETATM   40  N   UNK N   1      -7.685  -1.994  -0.356  0.00  0.00    -0.346 N 
HETATM   41  C   UNK N   1      -7.219  -3.167   0.095  0.00  0.00     0.130 A 
ATOM     42  HN  UNK N   1      -8.656  -1.692  -0.428  1.00  0.00     0.167 HD
HETATM   43  C   UNK N   1      -5.872  -3.173   0.060  0.00  0.00     0.157 A 
HETATM   44  C   UNK N   1      -7.910  -4.308   0.491  0.00  0.00     0.188 A 
HETATM   45  N   UNK N   1      -5.159  -4.254   0.421  0.00  0.00    -0.174 N 
HETATM   46  C   UNK N   1      -5.808  -5.376   0.837  0.00  0.00     0.679 A 
ATOM     47  HN  UNK N   1      -4.140  -4.235   0.383  1.00  0.00     0.186 HD
HETATM   48  N   UNK N   1      -7.177  -5.404   0.862  0.00  0.00    -0.168 N 
HETATM   49  N   UNK N   1      -5.068  -6.514   1.207  0.00  0.00    -0.234 N 
ATOM     50  HN  UNK N   1      -7.658  -6.252   1.160  1.00  0.00     0.186 HD
HETATM   51  H   UNK N   1      -5.499  -7.360   1.466  0.00  0.00     0.174 HD
HETATM   52  H   UNK N   1      -4.085  -6.462   1.207  0.00  0.00     0.174 HD
BRANCH  44  53
HETATM   53  O   UNK N   1      -9.259  -4.342   0.462  0.00  0.00    -0.339 OA
HETATM   54  C   UNK N   1      -9.958  -5.500   0.712  0.00  0.00     0.211 C 
ENDBRANCH  44  53
ENDBRANCH   4  38
TORSDOF 15
