MODEL 1
REMARK VINA RESULT:      -6.2      0.000      0.000
REMARK  13 active torsions:
REMARK  status: ('A' for Active; 'I' for Inactive)
REMARK    1  A    between atoms: C_6  and  C_11 
REMARK    2  A    between atoms: C_11  and  C_12 
REMARK    3  A    between atoms: C_12  and  C_13 
REMARK    4  A    between atoms: C_13  and  C_15 
REMARK    5  A    between atoms: C_13  and  O_31 
REMARK    6  A    between atoms: C_15  and  C_16 
REMARK    7  A    between atoms: C_16  and  C_17 
REMARK    8  A    between atoms: C_18  and  C_20 
REMARK    9  A    between atoms: C_20  and  C_21 
REMARK   10  A    between atoms: C_21  and  C_22 
REMARK   11  A    between atoms: C_23  and  C_25 
REMARK   12  A    between atoms: C_25  and  C_26 
REMARK   13  A    between atoms: C_26  and  C_27 
ROOT
HETATM    1  C   UNK N   1      26.499  22.571  -8.079  0.00  0.00     0.055 C 
HETATM    2  C   UNK N   1      26.899  22.941  -9.502  0.00  0.00     0.045 C 
ENDROOT
BRANCH   1   3
HETATM    3  C   UNK N   1      25.866  23.755  -7.358  0.00  0.00     0.042 C 
BRANCH   3   4
HETATM    4  C   UNK N   1      25.608  25.007  -8.194  0.00  0.00     0.046 C 
BRANCH   4   5
HETATM    5  C   UNK N   1      26.234  26.169  -7.464  0.00  0.00     0.002 A 
HETATM    6  C   UNK N   1      25.684  26.579  -6.139  0.00  0.00     0.185 A 
HETATM    7  C   UNK N   1      26.219  27.779  -5.449  0.00  0.00    -0.002 A 
HETATM    8  O   UNK N   1      24.780  25.937  -5.626  0.00  0.00    -0.287 OA
HETATM    9  C   UNK N   1      27.232  28.478  -6.000  0.00  0.00    -0.002 A 
HETATM   10  C   UNK N   1      25.611  28.198  -4.141  0.00  0.00     0.053 C 
HETATM   11  C   UNK N   1      27.780  29.700  -5.322  0.00  0.00     0.053 C 
HETATM   12  C   UNK N   1      27.815  28.045  -7.298  0.00  0.00     0.185 A 
HETATM   13  C   UNK N   1      27.257  26.864  -8.009  0.00  0.00    -0.001 A 
HETATM   14  O   UNK N   1      28.739  28.674  -7.789  0.00  0.00    -0.287 OA
HETATM   15  C   UNK N   1      27.833  26.474  -9.339  0.00  0.00     0.053 C 
ENDBRANCH   4   5
ENDBRANCH   3   4
ENDBRANCH   1   3
BRANCH   1  16
HETATM   16  C   UNK N   1      27.715  22.082  -7.283  0.00  0.00     0.041 C 
BRANCH  16  17
HETATM   17  C   UNK N   1      28.229  23.067  -6.224  0.00  0.00     0.030 C 
BRANCH  17  18
HETATM   18  C   UNK N   1      29.319  23.953  -6.748  0.00  0.00    -0.024 C 
HETATM   19  C   UNK N   1      29.737  25.045  -6.109  0.00  0.00    -0.087 C 
HETATM   20  C   UNK N   1      30.814  25.858  -6.752  0.00  0.00     0.043 C 
BRANCH  19  21
HETATM   21  C   UNK N   1      29.108  25.451  -4.796  0.00  0.00     0.037 C 
BRANCH  21  22
HETATM   22  C   UNK N   1      30.057  25.460  -3.607  0.00  0.00     0.031 C 
BRANCH  22  23
HETATM   23  C   UNK N   1      30.873  24.204  -3.558  0.00  0.00    -0.024 C 
HETATM   24  C   UNK N   1      30.458  23.105  -2.918  0.00  0.00    -0.087 C 
HETATM   25  C   UNK N   1      29.137  23.063  -2.210  0.00  0.00     0.043 C 
BRANCH  24  26
HETATM   26  C   UNK N   1      31.326  21.887  -2.930  0.00  0.00     0.037 C 
BRANCH  26  27
HETATM   27  C   UNK N   1      31.906  21.646  -4.316  0.00  0.00     0.031 C 
BRANCH  27  28
HETATM   28  C   UNK N   1      31.039  20.694  -5.085  0.00  0.00    -0.024 C 
HETATM   29  C   UNK N   1      31.079  20.600  -6.419  0.00  0.00    -0.091 C 
HETATM   30  C   UNK N   1      30.191  19.623  -7.105  0.00  0.00     0.042 C 
HETATM   31  C   UNK N   1      32.004  21.443  -7.239  0.00  0.00     0.042 C 
ENDBRANCH  27  28
ENDBRANCH  26  27
ENDBRANCH  24  26
ENDBRANCH  22  23
ENDBRANCH  21  22
ENDBRANCH  19  21
ENDBRANCH  17  18
ENDBRANCH  16  17
ENDBRANCH   1  16
BRANCH   1  32
HETATM   32  O   UNK N   1      25.533  21.564  -8.134  0.00  0.00    -0.390 OA
HETATM   33  H   UNK N   1      25.092  20.863  -8.639  0.00  0.00     0.210 HD
ENDBRANCH   1  32
TORSDOF 13
ENDMDL
MODEL 2
REMARK VINA RESULT:      -6.0      1.276      3.242
REMARK  13 active torsions:
REMARK  status: ('A' for Active; 'I' for Inactive)
REMARK    1  A    between atoms: C_6  and  C_11 
REMARK    2  A    between atoms: C_11  and  C_12 
REMARK    3  A    between atoms: C_12  and  C_13 
REMARK    4  A    between atoms: C_13  and  C_15 
REMARK    5  A    between atoms: C_13  and  O_31 
REMARK    6  A    between atoms: C_15  and  C_16 
REMARK    7  A    between atoms: C_16  and  C_17 
REMARK    8  A    between atoms: C_18  and  C_20 
REMARK    9  A    between atoms: C_20  and  C_21 
REMARK   10  A    between atoms: C_21  and  C_22 
REMARK   11  A    between atoms: C_23  and  C_25 
REMARK   12  A    between atoms: C_25  and  C_26 
REMARK   13  A    between atoms: C_26  and  C_27 
ROOT
HETATM    1  C   UNK N   1      26.342  23.553  -7.792  0.00  0.00     0.055 C 
HETATM    2  C   UNK N   1      25.908  23.079  -9.174  0.00  0.00     0.045 C 
ENDROOT
BRANCH   1   3
HETATM    3  C   UNK N   1      27.216  24.799  -7.885  0.00  0.00     0.042 C 
BRANCH   3   4
HETATM    4  C   UNK N   1      26.522  26.090  -8.313  0.00  0.00     0.046 C 
BRANCH   4   5
HETATM    5  C   UNK N   1      26.910  27.157  -7.320  0.00  0.00     0.002 A 
HETATM    6  C   UNK N   1      26.157  27.266  -6.036  0.00  0.00     0.185 A 
HETATM    7  C   UNK N   1      26.456  28.368  -5.088  0.00  0.00    -0.002 A 
HETATM    8  O   UNK N   1      25.280  26.458  -5.770  0.00  0.00    -0.287 OA
HETATM    9  C   UNK N   1      27.438  29.249  -5.367  0.00  0.00    -0.002 A 
HETATM   10  C   UNK N   1      25.647  28.485  -3.829  0.00  0.00     0.053 C 
HETATM   11  C   UNK N   1      27.749  30.377  -4.425  0.00  0.00     0.053 C 
HETATM   12  C   UNK N   1      28.224  29.115  -6.622  0.00  0.00     0.185 A 
HETATM   13  C   UNK N   1      27.902  28.034  -7.591  0.00  0.00    -0.001 A 
HETATM   14  O   UNK N   1      29.120  29.908  -6.867  0.00  0.00    -0.287 OA
HETATM   15  C   UNK N   1      28.679  27.947  -8.873  0.00  0.00     0.053 C 
ENDBRANCH   4   5
ENDBRANCH   3   4
ENDBRANCH   1   3
BRANCH   1  16
HETATM   16  C   UNK N   1      27.109  22.448  -7.055  0.00  0.00     0.041 C 
BRANCH  16  17
HETATM   17  C   UNK N   1      28.634  22.625  -7.038  0.00  0.00     0.030 C 
BRANCH  17  18
HETATM   18  C   UNK N   1      29.296  21.986  -8.221  0.00  0.00    -0.024 C 
HETATM   19  C   UNK N   1      29.885  20.791  -8.166  0.00  0.00    -0.087 C 
HETATM   20  C   UNK N   1      30.535  20.278  -9.410  0.00  0.00     0.043 C 
BRANCH  19  21
HETATM   21  C   UNK N   1      29.917  20.014  -6.870  0.00  0.00     0.037 C 
BRANCH  21  22
HETATM   22  C   UNK N   1      31.236  20.084  -6.114  0.00  0.00     0.031 C 
BRANCH  22  23
HETATM   23  C   UNK N   1      31.032  20.582  -4.717  0.00  0.00    -0.024 C 
HETATM   24  C   UNK N   1      31.340  21.831  -4.350  0.00  0.00    -0.087 C 
HETATM   25  C   UNK N   1      31.910  22.816  -5.326  0.00  0.00     0.043 C 
BRANCH  24  26
HETATM   26  C   UNK N   1      31.091  22.255  -2.937  0.00  0.00     0.037 C 
BRANCH  26  27
HETATM   27  C   UNK N   1      30.494  23.654  -2.887  0.00  0.00     0.031 C 
BRANCH  27  28
HETATM   28  C   UNK N   1      28.999  23.586  -2.975  0.00  0.00    -0.024 C 
HETATM   29  C   UNK N   1      28.284  24.413  -3.748  0.00  0.00    -0.091 C 
HETATM   30  C   UNK N   1      26.803  24.274  -3.785  0.00  0.00     0.042 C 
HETATM   31  C   UNK N   1      28.937  25.466  -4.587  0.00  0.00     0.042 C 
ENDBRANCH  27  28
ENDBRANCH  26  27
ENDBRANCH  24  26
ENDBRANCH  22  23
ENDBRANCH  21  22
ENDBRANCH  19  21
ENDBRANCH  17  18
ENDBRANCH  16  17
ENDBRANCH   1  16
BRANCH   1  32
HETATM   32  O   UNK N   1      25.205  23.906  -7.063  0.00  0.00    -0.390 OA
HETATM   33  H   UNK N   1      24.614  23.739  -6.312  0.00  0.00     0.210 HD
ENDBRANCH   1  32
TORSDOF 13
ENDMDL
MODEL 3
REMARK VINA RESULT:      -6.0      1.403      2.560
REMARK  13 active torsions:
REMARK  status: ('A' for Active; 'I' for Inactive)
REMARK    1  A    between atoms: C_6  and  C_11 
REMARK    2  A    between atoms: C_11  and  C_12 
REMARK    3  A    between atoms: C_12  and  C_13 
REMARK    4  A    between atoms: C_13  and  C_15 
REMARK    5  A    between atoms: C_13  and  O_31 
REMARK    6  A    between atoms: C_15  and  C_16 
REMARK    7  A    between atoms: C_16  and  C_17 
REMARK    8  A    between atoms: C_18  and  C_20 
REMARK    9  A    between atoms: C_20  and  C_21 
REMARK   10  A    between atoms: C_21  and  C_22 
REMARK   11  A    between atoms: C_23  and  C_25 
REMARK   12  A    between atoms: C_25  and  C_26 
REMARK   13  A    between atoms: C_26  and  C_27 
ROOT
HETATM    1  C   UNK N   1      26.518  23.506  -6.915  0.00  0.00     0.055 C 
HETATM    2  C   UNK N   1      27.302  22.243  -7.250  0.00  0.00     0.045 C 
ENDROOT
BRANCH   1   3
HETATM    3  C   UNK N   1      27.105  24.723  -7.622  0.00  0.00     0.042 C 
BRANCH   3   4
HETATM    4  C   UNK N   1      26.138  25.862  -7.936  0.00  0.00     0.046 C 
BRANCH   4   5
HETATM    5  C   UNK N   1      26.642  27.088  -7.215  0.00  0.00     0.002 A 
HETATM    6  C   UNK N   1      27.823  27.820  -7.758  0.00  0.00     0.185 A 
HETATM    7  C   UNK N   1      28.396  28.968  -7.013  0.00  0.00    -0.002 A 
HETATM    8  O   UNK N   1      28.332  27.465  -8.811  0.00  0.00    -0.287 OA
HETATM    9  C   UNK N   1      27.825  29.378  -5.862  0.00  0.00    -0.002 A 
HETATM   10  C   UNK N   1      29.616  29.653  -7.557  0.00  0.00     0.053 C 
HETATM   11  C   UNK N   1      28.395  30.531  -5.089  0.00  0.00     0.053 C 
HETATM   12  C   UNK N   1      26.618  28.681  -5.342  0.00  0.00     0.185 A 
HETATM   13  C   UNK N   1      26.063  27.508  -6.067  0.00  0.00    -0.001 A 
HETATM   14  O   UNK N   1      26.096  29.061  -4.305  0.00  0.00    -0.287 OA
HETATM   15  C   UNK N   1      24.872  26.793  -5.498  0.00  0.00     0.053 C 
ENDBRANCH   4   5
ENDBRANCH   3   4
ENDBRANCH   1   3
BRANCH   1  16
HETATM   16  C   UNK N   1      26.507  23.753  -5.402  0.00  0.00     0.041 C 
BRANCH  16  17
HETATM   17  C   UNK N   1      27.896  23.857  -4.757  0.00  0.00     0.030 C 
BRANCH  17  18
HETATM   18  C   UNK N   1      28.123  25.186  -4.101  0.00  0.00    -0.024 C 
HETATM   19  C   UNK N   1      29.215  25.922  -4.312  0.00  0.00    -0.087 C 
HETATM   20  C   UNK N   1      29.333  27.217  -3.575  0.00  0.00     0.043 C 
BRANCH  19  21
HETATM   21  C   UNK N   1      30.301  25.430  -5.240  0.00  0.00     0.037 C 
BRANCH  21  22
HETATM   22  C   UNK N   1      31.508  24.815  -4.544  0.00  0.00     0.031 C 
BRANCH  22  23
HETATM   23  C   UNK N   1      31.508  23.324  -4.682  0.00  0.00    -0.024 C 
HETATM   24  C   UNK N   1      31.112  22.513  -3.694  0.00  0.00    -0.087 C 
HETATM   25  C   UNK N   1      30.636  23.056  -2.380  0.00  0.00     0.043 C 
BRANCH  24  26
HETATM   26  C   UNK N   1      31.128  21.035  -3.918  0.00  0.00     0.037 C 
BRANCH  26  27
HETATM   27  C   UNK N   1      31.519  20.706  -5.352  0.00  0.00     0.031 C 
BRANCH  27  28
HETATM   28  C   UNK N   1      30.331  20.196  -6.111  0.00  0.00    -0.024 C 
HETATM   29  C   UNK N   1      30.437  19.640  -7.324  0.00  0.00    -0.091 C 
HETATM   30  C   UNK N   1      29.208  19.151  -8.008  0.00  0.00     0.042 C 
HETATM   31  C   UNK N   1      31.759  19.485  -8.006  0.00  0.00     0.042 C 
ENDBRANCH  27  28
ENDBRANCH  26  27
ENDBRANCH  24  26
ENDBRANCH  22  23
ENDBRANCH  21  22
ENDBRANCH  19  21
ENDBRANCH  17  18
ENDBRANCH  16  17
ENDBRANCH   1  16
BRANCH   1  32
HETATM   32  O   UNK N   1      25.210  23.356  -7.380  0.00  0.00    -0.390 OA
HETATM   33  H   UNK N   1      24.552  22.819  -7.848  0.00  0.00     0.210 HD
ENDBRANCH   1  32
TORSDOF 13
ENDMDL
MODEL 4
REMARK VINA RESULT:      -5.9      2.367      7.112
REMARK  13 active torsions:
REMARK  status: ('A' for Active; 'I' for Inactive)
REMARK    1  A    between atoms: C_6  and  C_11 
REMARK    2  A    between atoms: C_11  and  C_12 
REMARK    3  A    between atoms: C_12  and  C_13 
REMARK    4  A    between atoms: C_13  and  C_15 
REMARK    5  A    between atoms: C_13  and  O_31 
REMARK    6  A    between atoms: C_15  and  C_16 
REMARK    7  A    between atoms: C_16  and  C_17 
REMARK    8  A    between atoms: C_18  and  C_20 
REMARK    9  A    between atoms: C_20  and  C_21 
REMARK   10  A    between atoms: C_21  and  C_22 
REMARK   11  A    between atoms: C_23  and  C_25 
REMARK   12  A    between atoms: C_25  and  C_26 
REMARK   13  A    between atoms: C_26  and  C_27 
ROOT
HETATM    1  C   UNK N   1      30.688  26.474  -4.284  0.00  0.00     0.055 C 
HETATM    2  C   UNK N   1      31.961  26.091  -5.030  0.00  0.00     0.045 C 
ENDROOT
BRANCH   1   3
HETATM    3  C   UNK N   1      29.493  25.668  -4.780  0.00  0.00     0.042 C 
BRANCH   3   4
HETATM    4  C   UNK N   1      28.958  24.589  -3.841  0.00  0.00     0.046 C 
BRANCH   4   5
HETATM    5  C   UNK N   1      29.694  23.312  -4.162  0.00  0.00     0.002 A 
HETATM    6  C   UNK N   1      30.790  22.855  -3.259  0.00  0.00     0.185 A 
HETATM    7  C   UNK N   1      31.592  21.656  -3.607  0.00  0.00    -0.002 A 
HETATM    8  O   UNK N   1      31.042  23.478  -2.238  0.00  0.00    -0.287 OA
HETATM    9  C   UNK N   1      31.304  20.953  -4.721  0.00  0.00    -0.002 A 
HETATM   10  C   UNK N   1      32.723  21.250  -2.707  0.00  0.00     0.053 C 
HETATM   11  C   UNK N   1      32.110  19.742  -5.095  0.00  0.00     0.053 C 
HETATM   12  C   UNK N   1      30.180  21.376  -5.598  0.00  0.00     0.185 A 
HETATM   13  C   UNK N   1      29.399  22.598  -5.271  0.00  0.00    -0.001 A 
HETATM   14  O   UNK N   1      29.915  20.731  -6.600  0.00  0.00    -0.287 OA
HETATM   15  C   UNK N   1      28.299  23.031  -6.197  0.00  0.00     0.053 C 
ENDBRANCH   4   5
ENDBRANCH   3   4
ENDBRANCH   1   3
BRANCH   1  16
HETATM   16  C   UNK N   1      30.394  27.970  -4.445  0.00  0.00     0.041 C 
BRANCH  16  17
HETATM   17  C   UNK N   1      29.782  28.642  -3.208  0.00  0.00     0.030 C 
BRANCH  17  18
HETATM   18  C   UNK N   1      28.740  29.658  -3.565  0.00  0.00    -0.024 C 
HETATM   19  C   UNK N   1      27.436  29.382  -3.589  0.00  0.00    -0.087 C 
HETATM   20  C   UNK N   1      26.500  30.476  -3.989  0.00  0.00     0.043 C 
BRANCH  19  21
HETATM   21  C   UNK N   1      26.942  27.993  -3.255  0.00  0.00     0.037 C 
BRANCH  21  22
HETATM   22  C   UNK N   1      25.581  27.640  -3.839  0.00  0.00     0.031 C 
BRANCH  22  23
HETATM   23  C   UNK N   1      25.705  27.182  -5.259  0.00  0.00    -0.024 C 
HETATM   24  C   UNK N   1      25.701  25.887  -5.597  0.00  0.00    -0.087 C 
HETATM   25  C   UNK N   1      25.564  24.809  -4.564  0.00  0.00     0.043 C 
BRANCH  24  26
HETATM   26  C   UNK N   1      25.815  25.513  -7.040  0.00  0.00     0.037 C 
BRANCH  26  27
HETATM   27  C   UNK N   1      26.331  26.683  -7.866  0.00  0.00     0.031 C 
BRANCH  27  28
HETATM   28  C   UNK N   1      27.799  26.528  -8.127  0.00  0.00    -0.024 C 
HETATM   29  C   UNK N   1      28.686  27.490  -7.846  0.00  0.00    -0.091 C 
HETATM   30  C   UNK N   1      30.128  27.254  -8.129  0.00  0.00     0.042 C 
HETATM   31  C   UNK N   1      28.268  28.794  -7.242  0.00  0.00     0.042 C 
ENDBRANCH  27  28
ENDBRANCH  26  27
ENDBRANCH  24  26
ENDBRANCH  22  23
ENDBRANCH  21  22
ENDBRANCH  19  21
ENDBRANCH  17  18
ENDBRANCH  16  17
ENDBRANCH   1  16
BRANCH   1  32
HETATM   32  O   UNK N   1      30.853  26.167  -2.932  0.00  0.00    -0.390 OA
HETATM   33  H   UNK N   1      30.586  25.643  -2.161  0.00  0.00     0.210 HD
ENDBRANCH   1  32
TORSDOF 13
ENDMDL
MODEL 5
REMARK VINA RESULT:      -5.6      2.021      6.149
REMARK  13 active torsions:
REMARK  status: ('A' for Active; 'I' for Inactive)
REMARK    1  A    between atoms: C_6  and  C_11 
REMARK    2  A    between atoms: C_11  and  C_12 
REMARK    3  A    between atoms: C_12  and  C_13 
REMARK    4  A    between atoms: C_13  and  C_15 
REMARK    5  A    between atoms: C_13  and  O_31 
REMARK    6  A    between atoms: C_15  and  C_16 
REMARK    7  A    between atoms: C_16  and  C_17 
REMARK    8  A    between atoms: C_18  and  C_20 
REMARK    9  A    between atoms: C_20  and  C_21 
REMARK   10  A    between atoms: C_21  and  C_22 
REMARK   11  A    between atoms: C_23  and  C_25 
REMARK   12  A    between atoms: C_25  and  C_26 
REMARK   13  A    between atoms: C_26  and  C_27 
ROOT
HETATM    1  C   UNK N   1      28.801  27.338  -8.194  0.00  0.00     0.055 C 
HETATM    2  C   UNK N   1      28.129  26.984  -9.515  0.00  0.00     0.045 C 
ENDROOT
BRANCH   1   3
HETATM    3  C   UNK N   1      29.096  26.088  -7.373  0.00  0.00     0.042 C 
BRANCH   3   4
HETATM    4  C   UNK N   1      30.533  25.914  -6.886  0.00  0.00     0.046 C 
BRANCH   4   5
HETATM    5  C   UNK N   1      30.545  24.738  -5.941  0.00  0.00     0.002 A 
HETATM    6  C   UNK N   1      30.509  23.354  -6.498  0.00  0.00     0.185 A 
HETATM    7  C   UNK N   1      30.420  22.186  -5.588  0.00  0.00    -0.002 A 
HETATM    8  O   UNK N   1      30.535  23.180  -7.707  0.00  0.00    -0.287 OA
HETATM    9  C   UNK N   1      30.414  22.371  -4.252  0.00  0.00    -0.002 A 
HETATM   10  C   UNK N   1      30.333  20.808  -6.178  0.00  0.00     0.053 C 
HETATM   11  C   UNK N   1      30.315  21.202  -3.314  0.00  0.00     0.053 C 
HETATM   12  C   UNK N   1      30.498  23.746  -3.691  0.00  0.00     0.185 A 
HETATM   13  C   UNK N   1      30.550  24.920  -4.602  0.00  0.00    -0.001 A 
HETATM   14  O   UNK N   1      30.503  23.909  -2.481  0.00  0.00    -0.287 OA
HETATM   15  C   UNK N   1      30.589  26.300  -4.011  0.00  0.00     0.053 C 
ENDBRANCH   4   5
ENDBRANCH   3   4
ENDBRANCH   1   3
BRANCH   1  16
HETATM   16  C   UNK N   1      27.920  28.289  -7.375  0.00  0.00     0.041 C 
BRANCH  16  17
HETATM   17  C   UNK N   1      28.622  28.944  -6.177  0.00  0.00     0.030 C 
BRANCH  17  18
HETATM   18  C   UNK N   1      27.714  29.856  -5.411  0.00  0.00    -0.024 C 
HETATM   19  C   UNK N   1      27.256  29.569  -4.192  0.00  0.00    -0.087 C 
HETATM   20  C   UNK N   1      26.334  30.552  -3.545  0.00  0.00     0.043 C 
BRANCH  19  21
HETATM   21  C   UNK N   1      27.639  28.272  -3.517  0.00  0.00     0.037 C 
BRANCH  21  22
HETATM   22  C   UNK N   1      26.505  27.268  -3.370  0.00  0.00     0.031 C 
BRANCH  22  23
HETATM   23  C   UNK N   1      26.550  26.240  -4.458  0.00  0.00    -0.024 C 
HETATM   24  C   UNK N   1      25.683  26.237  -5.477  0.00  0.00    -0.087 C 
HETATM   25  C   UNK N   1      24.609  27.276  -5.594  0.00  0.00     0.043 C 
BRANCH  24  26
HETATM   26  C   UNK N   1      25.806  25.183  -6.531  0.00  0.00     0.037 C 
BRANCH  26  27
HETATM   27  C   UNK N   1      26.419  23.912  -5.960  0.00  0.00     0.031 C 
BRANCH  27  28
HETATM   28  C   UNK N   1      25.691  22.706  -6.474  0.00  0.00    -0.024 C 
HETATM   29  C   UNK N   1      26.098  22.023  -7.551  0.00  0.00    -0.091 C 
HETATM   30  C   UNK N   1      25.323  20.832  -7.991  0.00  0.00     0.042 C 
HETATM   31  C   UNK N   1      27.320  22.419  -8.318  0.00  0.00     0.042 C 
ENDBRANCH  27  28
ENDBRANCH  26  27
ENDBRANCH  24  26
ENDBRANCH  22  23
ENDBRANCH  21  22
ENDBRANCH  19  21
ENDBRANCH  17  18
ENDBRANCH  16  17
ENDBRANCH   1  16
BRANCH   1  32
HETATM   32  O   UNK N   1      30.028  27.946  -8.466  0.00  0.00    -0.390 OA
HETATM   33  H   UNK N   1      30.926  28.170  -8.177  0.00  0.00     0.210 HD
ENDBRANCH   1  32
TORSDOF 13
ENDMDL
MODEL 6
REMARK VINA RESULT:      -5.6      2.028      5.693
REMARK  13 active torsions:
REMARK  status: ('A' for Active; 'I' for Inactive)
REMARK    1  A    between atoms: C_6  and  C_11 
REMARK    2  A    between atoms: C_11  and  C_12 
REMARK    3  A    between atoms: C_12  and  C_13 
REMARK    4  A    between atoms: C_13  and  C_15 
REMARK    5  A    between atoms: C_13  and  O_31 
REMARK    6  A    between atoms: C_15  and  C_16 
REMARK    7  A    between atoms: C_16  and  C_17 
REMARK    8  A    between atoms: C_18  and  C_20 
REMARK    9  A    between atoms: C_20  and  C_21 
REMARK   10  A    between atoms: C_21  and  C_22 
REMARK   11  A    between atoms: C_23  and  C_25 
REMARK   12  A    between atoms: C_25  and  C_26 
REMARK   13  A    between atoms: C_26  and  C_27 
ROOT
HETATM    1  C   UNK N   1      30.534  23.104  -3.620  0.00  0.00     0.055 C 
HETATM    2  C   UNK N   1      30.031  22.943  -2.191  0.00  0.00     0.045 C 
ENDROOT
BRANCH   1   3
HETATM    3  C   UNK N   1      30.257  24.507  -4.147  0.00  0.00     0.042 C 
BRANCH   3   4
HETATM    4  C   UNK N   1      29.124  24.645  -5.162  0.00  0.00     0.046 C 
BRANCH   4   5
HETATM    5  C   UNK N   1      28.355  25.893  -4.805  0.00  0.00     0.002 A 
HETATM    6  C   UNK N   1      28.734  27.189  -5.440  0.00  0.00     0.185 A 
HETATM    7  C   UNK N   1      28.058  28.446  -5.032  0.00  0.00    -0.002 A 
HETATM    8  O   UNK N   1      29.616  27.223  -6.286  0.00  0.00    -0.287 OA
HETATM    9  C   UNK N   1      27.070  28.412  -4.115  0.00  0.00    -0.002 A 
HETATM   10  C   UNK N   1      28.496  29.742  -5.649  0.00  0.00     0.053 C 
HETATM   11  C   UNK N   1      26.379  29.673  -3.682  0.00  0.00     0.053 C 
HETATM   12  C   UNK N   1      26.655  27.115  -3.516  0.00  0.00     0.185 A 
HETATM   13  C   UNK N   1      27.356  25.860  -3.896  0.00  0.00    -0.001 A 
HETATM   14  O   UNK N   1      25.752  27.087  -2.694  0.00  0.00    -0.287 OA
HETATM   15  C   UNK N   1      26.950  24.571  -3.243  0.00  0.00     0.053 C 
ENDBRANCH   4   5
ENDBRANCH   3   4
ENDBRANCH   1   3
BRANCH   1  16
HETATM   16  C   UNK N   1      29.877  22.074  -4.546  0.00  0.00     0.041 C 
BRANCH  16  17
HETATM   17  C   UNK N   1      30.840  21.376  -5.517  0.00  0.00     0.030 C 
BRANCH  17  18
HETATM   18  C   UNK N   1      30.261  20.118  -6.091  0.00  0.00    -0.024 C 
HETATM   19  C   UNK N   1      29.909  20.000  -7.372  0.00  0.00    -0.087 C 
HETATM   20  C   UNK N   1      29.317  18.701  -7.814  0.00  0.00     0.043 C 
BRANCH  19  21
HETATM   21  C   UNK N   1      30.077  21.164  -8.321  0.00  0.00     0.037 C 
BRANCH  21  22
HETATM   22  C   UNK N   1      28.777  21.731  -8.874  0.00  0.00     0.031 C 
BRANCH  22  23
HETATM   23  C   UNK N   1      28.005  22.448  -7.809  0.00  0.00    -0.024 C 
HETATM   24  C   UNK N   1      26.747  22.120  -7.492  0.00  0.00    -0.087 C 
HETATM   25  C   UNK N   1      26.031  21.001  -8.187  0.00  0.00     0.043 C 
BRANCH  24  26
HETATM   26  C   UNK N   1      26.052  22.876  -6.405  0.00  0.00     0.037 C 
BRANCH  26  27
HETATM   27  C   UNK N   1      25.188  23.988  -6.983  0.00  0.00     0.031 C 
BRANCH  27  28
HETATM   28  C   UNK N   1      26.018  25.207  -7.251  0.00  0.00    -0.024 C 
HETATM   29  C   UNK N   1      26.230  25.678  -8.486  0.00  0.00    -0.091 C 
HETATM   30  C   UNK N   1      27.060  26.900  -8.665  0.00  0.00     0.042 C 
HETATM   31  C   UNK N   1      25.641  25.016  -9.691  0.00  0.00     0.042 C 
ENDBRANCH  27  28
ENDBRANCH  26  27
ENDBRANCH  24  26
ENDBRANCH  22  23
ENDBRANCH  21  22
ENDBRANCH  19  21
ENDBRANCH  17  18
ENDBRANCH  16  17
ENDBRANCH   1  16
BRANCH   1  32
HETATM   32  O   UNK N   1      31.920  22.932  -3.627  0.00  0.00    -0.390 OA
HETATM   33  H   UNK N   1      32.794  23.245  -3.906  0.00  0.00     0.210 HD
ENDBRANCH   1  32
TORSDOF 13
ENDMDL
MODEL 7
REMARK VINA RESULT:      -5.6      2.535      5.976
REMARK  13 active torsions:
REMARK  status: ('A' for Active; 'I' for Inactive)
REMARK    1  A    between atoms: C_6  and  C_11 
REMARK    2  A    between atoms: C_11  and  C_12 
REMARK    3  A    between atoms: C_12  and  C_13 
REMARK    4  A    between atoms: C_13  and  C_15 
REMARK    5  A    between atoms: C_13  and  O_31 
REMARK    6  A    between atoms: C_15  and  C_16 
REMARK    7  A    between atoms: C_16  and  C_17 
REMARK    8  A    between atoms: C_18  and  C_20 
REMARK    9  A    between atoms: C_20  and  C_21 
REMARK   10  A    between atoms: C_21  and  C_22 
REMARK   11  A    between atoms: C_23  and  C_25 
REMARK   12  A    between atoms: C_25  and  C_26 
REMARK   13  A    between atoms: C_26  and  C_27 
ROOT
HETATM    1  C   UNK N   1      26.237  23.855  -5.935  0.00  0.00     0.055 C 
HETATM    2  C   UNK N   1      25.919  24.560  -4.623  0.00  0.00     0.045 C 
ENDROOT
BRANCH   1   3
HETATM    3  C   UNK N   1      27.673  23.342  -5.952  0.00  0.00     0.042 C 
BRANCH   3   4
HETATM    4  C   UNK N   1      28.735  24.263  -5.356  0.00  0.00     0.046 C 
BRANCH   4   5
HETATM    5  C   UNK N   1      29.923  23.403  -5.002  0.00  0.00     0.002 A 
HETATM    6  C   UNK N   1      30.782  22.860  -6.095  0.00  0.00     0.185 A 
HETATM    7  C   UNK N   1      31.896  21.933  -5.777  0.00  0.00    -0.002 A 
HETATM    8  O   UNK N   1      30.558  23.163  -7.257  0.00  0.00    -0.287 OA
HETATM    9  C   UNK N   1      32.161  21.612  -4.494  0.00  0.00    -0.002 A 
HETATM   10  C   UNK N   1      32.710  21.361  -6.901  0.00  0.00     0.053 C 
HETATM   11  C   UNK N   1      33.279  20.669  -4.152  0.00  0.00     0.053 C 
HETATM   12  C   UNK N   1      31.339  22.190  -3.398  0.00  0.00     0.185 A 
HETATM   13  C   UNK N   1      30.199  23.090  -3.716  0.00  0.00    -0.001 A 
HETATM   14  O   UNK N   1      31.588  21.906  -2.236  0.00  0.00    -0.287 OA
HETATM   15  C   UNK N   1      29.355  23.624  -2.594  0.00  0.00     0.053 C 
ENDBRANCH   4   5
ENDBRANCH   3   4
ENDBRANCH   1   3
BRANCH   1  16
HETATM   16  C   UNK N   1      26.020  24.797  -7.125  0.00  0.00     0.041 C 
BRANCH  16  17
HETATM   17  C   UNK N   1      25.693  26.248  -6.745  0.00  0.00     0.030 C 
BRANCH  17  18
HETATM   18  C   UNK N   1      26.791  27.198  -7.116  0.00  0.00    -0.024 C 
HETATM   19  C   UNK N   1      27.180  28.201  -6.328  0.00  0.00    -0.087 C 
HETATM   20  C   UNK N   1      28.269  29.095  -6.826  0.00  0.00     0.043 C 
BRANCH  19  21
HETATM   21  C   UNK N   1      26.505  28.432  -4.996  0.00  0.00     0.037 C 
BRANCH  21  22
HETATM   22  C   UNK N   1      27.453  28.716  -3.839  0.00  0.00     0.031 C 
BRANCH  22  23
HETATM   23  C   UNK N   1      28.511  27.661  -3.737  0.00  0.00    -0.024 C 
HETATM   24  C   UNK N   1      29.815  27.957  -3.687  0.00  0.00    -0.087 C 
HETATM   25  C   UNK N   1      30.298  29.376  -3.725  0.00  0.00     0.043 C 
BRANCH  24  26
HETATM   26  C   UNK N   1      30.808  26.844  -3.570  0.00  0.00     0.037 C 
BRANCH  26  27
HETATM   27  C   UNK N   1      31.528  26.618  -4.892  0.00  0.00     0.031 C 
BRANCH  27  28
HETATM   28  C   UNK N   1      32.714  25.722  -4.691  0.00  0.00    -0.024 C 
HETATM   29  C   UNK N   1      33.450  25.262  -5.711  0.00  0.00    -0.091 C 
HETATM   30  C   UNK N   1      34.616  24.383  -5.426  0.00  0.00     0.042 C 
HETATM   31  C   UNK N   1      33.138  25.620  -7.130  0.00  0.00     0.042 C 
ENDBRANCH  27  28
ENDBRANCH  26  27
ENDBRANCH  24  26
ENDBRANCH  22  23
ENDBRANCH  21  22
ENDBRANCH  19  21
ENDBRANCH  17  18
ENDBRANCH  16  17
ENDBRANCH   1  16
BRANCH   1  32
HETATM   32  O   UNK N   1      25.405  22.740  -6.056  0.00  0.00    -0.390 OA
HETATM   33  H   UNK N   1      24.613  22.333  -6.439  0.00  0.00     0.210 HD
ENDBRANCH   1  32
TORSDOF 13
ENDMDL
MODEL 8
REMARK VINA RESULT:      -5.6      1.546      3.777
REMARK  13 active torsions:
REMARK  status: ('A' for Active; 'I' for Inactive)
REMARK    1  A    between atoms: C_6  and  C_11 
REMARK    2  A    between atoms: C_11  and  C_12 
REMARK    3  A    between atoms: C_12  and  C_13 
REMARK    4  A    between atoms: C_13  and  C_15 
REMARK    5  A    between atoms: C_13  and  O_31 
REMARK    6  A    between atoms: C_15  and  C_16 
REMARK    7  A    between atoms: C_16  and  C_17 
REMARK    8  A    between atoms: C_18  and  C_20 
REMARK    9  A    between atoms: C_20  and  C_21 
REMARK   10  A    between atoms: C_21  and  C_22 
REMARK   11  A    between atoms: C_23  and  C_25 
REMARK   12  A    between atoms: C_25  and  C_26 
REMARK   13  A    between atoms: C_26  and  C_27 
ROOT
HETATM    1  C   UNK N   1      25.871  22.866  -7.837  0.00  0.00     0.055 C 
HETATM    2  C   UNK N   1      25.269  23.864  -8.820  0.00  0.00     0.045 C 
ENDROOT
BRANCH   1   3
HETATM    3  C   UNK N   1      25.934  23.448  -6.430  0.00  0.00     0.042 C 
BRANCH   3   4
HETATM    4  C   UNK N   1      27.318  23.834  -5.911  0.00  0.00     0.046 C 
BRANCH   4   5
HETATM    5  C   UNK N   1      27.287  25.313  -5.616  0.00  0.00     0.002 A 
HETATM    6  C   UNK N   1      26.706  25.787  -4.326  0.00  0.00     0.185 A 
HETATM    7  C   UNK N   1      26.575  27.241  -4.057  0.00  0.00    -0.002 A 
HETATM    8  O   UNK N   1      26.319  24.980  -3.495  0.00  0.00    -0.287 OA
HETATM    9  C   UNK N   1      27.021  28.137  -4.961  0.00  0.00    -0.002 A 
HETATM   10  C   UNK N   1      25.938  27.689  -2.774  0.00  0.00     0.053 C 
HETATM   11  C   UNK N   1      26.889  29.612  -4.711  0.00  0.00     0.053 C 
HETATM   12  C   UNK N   1      27.646  27.668  -6.227  0.00  0.00     0.185 A 
HETATM   13  C   UNK N   1      27.745  26.213  -6.515  0.00  0.00    -0.001 A 
HETATM   14  O   UNK N   1      28.058  28.482  -7.039  0.00  0.00    -0.287 OA
HETATM   15  C   UNK N   1      28.338  25.766  -7.820  0.00  0.00     0.053 C 
ENDBRANCH   4   5
ENDBRANCH   3   4
ENDBRANCH   1   3
BRANCH   1  16
HETATM   16  C   UNK N   1      27.279  22.450  -8.280  0.00  0.00     0.041 C 
BRANCH  16  17
HETATM   17  C   UNK N   1      27.579  20.951  -8.142  0.00  0.00     0.030 C 
BRANCH  17  18
HETATM   18  C   UNK N   1      28.549  20.465  -9.176  0.00  0.00    -0.024 C 
HETATM   19  C   UNK N   1      29.561  19.644  -8.892  0.00  0.00    -0.087 C 
HETATM   20  C   UNK N   1      30.475  19.255 -10.009  0.00  0.00     0.043 C 
BRANCH  19  21
HETATM   21  C   UNK N   1      29.781  19.162  -7.477  0.00  0.00     0.037 C 
BRANCH  21  22
HETATM   22  C   UNK N   1      30.952  19.812  -6.754  0.00  0.00     0.031 C 
BRANCH  22  23
HETATM   23  C   UNK N   1      30.503  20.479  -5.491  0.00  0.00    -0.024 C 
HETATM   24  C   UNK N   1      30.356  21.806  -5.394  0.00  0.00    -0.087 C 
HETATM   25  C   UNK N   1      30.629  22.711  -6.558  0.00  0.00     0.043 C 
BRANCH  24  26
HETATM   26  C   UNK N   1      29.888  22.392  -4.100  0.00  0.00     0.037 C 
BRANCH  26  27
HETATM   27  C   UNK N   1      30.950  23.304  -3.502  0.00  0.00     0.031 C 
BRANCH  27  28
HETATM   28  C   UNK N   1      30.401  24.687  -3.312  0.00  0.00    -0.024 C 
HETATM   29  C   UNK N   1      30.919  25.758  -3.925  0.00  0.00    -0.091 C 
HETATM   30  C   UNK N   1      30.310  27.095  -3.689  0.00  0.00     0.042 C 
HETATM   31  C   UNK N   1      32.088  25.645  -4.851  0.00  0.00     0.042 C 
ENDBRANCH  27  28
ENDBRANCH  26  27
ENDBRANCH  24  26
ENDBRANCH  22  23
ENDBRANCH  21  22
ENDBRANCH  19  21
ENDBRANCH  17  18
ENDBRANCH  16  17
ENDBRANCH   1  16
BRANCH   1  32
HETATM   32  O   UNK N   1      25.042  21.744  -7.777  0.00  0.00    -0.390 OA
HETATM   33  H   UNK N   1      24.368  21.234  -7.302  0.00  0.00     0.210 HD
ENDBRANCH   1  32
TORSDOF 13
ENDMDL
MODEL 9
REMARK VINA RESULT:      -5.6      1.589      3.824
REMARK  13 active torsions:
REMARK  status: ('A' for Active; 'I' for Inactive)
REMARK    1  A    between atoms: C_6  and  C_11 
REMARK    2  A    between atoms: C_11  and  C_12 
REMARK    3  A    between atoms: C_12  and  C_13 
REMARK    4  A    between atoms: C_13  and  C_15 
REMARK    5  A    between atoms: C_13  and  O_31 
REMARK    6  A    between atoms: C_15  and  C_16 
REMARK    7  A    between atoms: C_16  and  C_17 
REMARK    8  A    between atoms: C_18  and  C_20 
REMARK    9  A    between atoms: C_20  and  C_21 
REMARK   10  A    between atoms: C_21  and  C_22 
REMARK   11  A    between atoms: C_23  and  C_25 
REMARK   12  A    between atoms: C_25  and  C_26 
REMARK   13  A    between atoms: C_26  and  C_27 
ROOT
HETATM    1  C   UNK N   1      26.047  23.720  -7.340  0.00  0.00     0.055 C 
HETATM    2  C   UNK N   1      25.168  23.410  -8.546  0.00  0.00     0.045 C 
ENDROOT
BRANCH   1   3
HETATM    3  C   UNK N   1      26.995  24.878  -7.631  0.00  0.00     0.042 C 
BRANCH   3   4
HETATM    4  C   UNK N   1      26.357  26.182  -8.104  0.00  0.00     0.046 C 
BRANCH   4   5
HETATM    5  C   UNK N   1      26.920  27.291  -7.251  0.00  0.00     0.002 A 
HETATM    6  C   UNK N   1      26.312  27.565  -5.916  0.00  0.00     0.185 A 
HETATM    7  C   UNK N   1      26.785  28.712  -5.103  0.00  0.00    -0.002 A 
HETATM    8  O   UNK N   1      25.410  26.855  -5.497  0.00  0.00    -0.287 OA
HETATM    9  C   UNK N   1      27.795  29.485  -5.550  0.00  0.00    -0.002 A 
HETATM   10  C   UNK N   1      26.119  28.995  -3.787  0.00  0.00     0.053 C 
HETATM   11  C   UNK N   1      28.282  30.656  -4.746  0.00  0.00     0.053 C 
HETATM   12  C   UNK N   1      28.437  29.186  -6.858  0.00  0.00     0.185 A 
HETATM   13  C   UNK N   1      27.941  28.060  -7.692  0.00  0.00    -0.001 A 
HETATM   14  O   UNK N   1      29.358  29.882  -7.256  0.00  0.00    -0.287 OA
HETATM   15  C   UNK N   1      28.575  27.806  -9.029  0.00  0.00     0.053 C 
ENDBRANCH   4   5
ENDBRANCH   3   4
ENDBRANCH   1   3
BRANCH   1  16
HETATM   16  C   UNK N   1      26.861  22.486  -6.931  0.00  0.00     0.041 C 
BRANCH  16  17
HETATM   17  C   UNK N   1      28.314  22.483  -7.424  0.00  0.00     0.030 C 
BRANCH  17  18
HETATM   18  C   UNK N   1      28.765  21.123  -7.866  0.00  0.00    -0.024 C 
HETATM   19  C   UNK N   1      29.572  20.353  -7.136  0.00  0.00    -0.087 C 
HETATM   20  C   UNK N   1      29.970  19.028  -7.702  0.00  0.00     0.043 C 
BRANCH  19  21
HETATM   21  C   UNK N   1      30.087  20.836  -5.800  0.00  0.00     0.037 C 
BRANCH  21  22
HETATM   22  C   UNK N   1      31.532  21.316  -5.806  0.00  0.00     0.031 C 
BRANCH  22  23
HETATM   23  C   UNK N   1      31.607  22.801  -5.987  0.00  0.00    -0.024 C 
HETATM   24  C   UNK N   1      31.942  23.364  -7.153  0.00  0.00    -0.087 C 
HETATM   25  C   UNK N   1      32.260  22.535  -8.361  0.00  0.00     0.043 C 
BRANCH  24  26
HETATM   26  C   UNK N   1      31.979  24.856  -7.254  0.00  0.00     0.037 C 
BRANCH  26  27
HETATM   27  C   UNK N   1      30.600  25.452  -7.013  0.00  0.00     0.031 C 
BRANCH  27  28
HETATM   28  C   UNK N   1      30.641  26.411  -5.861  0.00  0.00    -0.024 C 
HETATM   29  C   UNK N   1      29.871  26.266  -4.775  0.00  0.00    -0.091 C 
HETATM   30  C   UNK N   1      29.978  27.259  -3.672  0.00  0.00     0.042 C 
HETATM   31  C   UNK N   1      28.913  25.125  -4.637  0.00  0.00     0.042 C 
ENDBRANCH  27  28
ENDBRANCH  26  27
ENDBRANCH  24  26
ENDBRANCH  22  23
ENDBRANCH  21  22
ENDBRANCH  19  21
ENDBRANCH  17  18
ENDBRANCH  16  17
ENDBRANCH   1  16
BRANCH   1  32
HETATM   32  O   UNK N   1      25.228  24.119  -6.282  0.00  0.00    -0.390 OA
HETATM   33  H   UNK N   1      24.628  24.778  -5.899  0.00  0.00     0.210 HD
ENDBRANCH   1  32
TORSDOF 13
ENDMDL
