MODEL 1
REMARK VINA RESULT:      -9.7      0.000      0.000
REMARK  5 active torsions:
REMARK  status: ('A' for Active; 'I' for Inactive)
REMARK    1  A    between atoms: C_16  and  C_9 
REMARK    2  A    between atoms: N_23  and  C_9 
REMARK    3  A    between atoms: N_24  and  C_15 
REMARK    4  A    between atoms: C_20  and  C_17 
REMARK    5  A    between atoms: O_28  and  C_20 
ROOT
HETATM    1  C   UNK N   1      22.640  16.604   6.086  0.00  0.00     0.045 C 
HETATM    2  C   UNK N   1      26.021  20.413   3.946  0.00  0.00     0.062 A 
HETATM    3  C   UNK N   1      25.647  17.853   4.996  0.00  0.00     0.063 A 
HETATM    4  C   UNK N   1      22.807  16.627   4.573  0.00  0.00     0.155 A 
HETATM    5  C   UNK N   1      24.791  19.759   3.764  0.00  0.00     0.045 A 
HETATM    6  C   UNK N   1      27.062  19.793   4.662  0.00  0.00     0.143 A 
HETATM    7  C   UNK N   1      24.615  18.477   4.319  0.00  0.00     0.053 A 
HETATM    8  C   UNK N   1      26.884  18.484   5.180  0.00  0.00     0.071 A 
HETATM    9  C   UNK N   1      22.480  19.633   2.908  0.00  0.00     0.122 A 
HETATM   10  C   UNK N   1      23.713  20.344   3.040  0.00  0.00     0.204 A 
HETATM   11  C   UNK N   1      22.408  18.378   3.528  0.00  0.00     0.096 A 
HETATM   12  F   UNK N   1      28.241  20.451   4.797  0.00  0.00    -0.204 F 
HETATM   13  N   UNK N   1      23.420  17.869   4.171  0.00  0.00    -0.325 N 
HETATM   14  O   UNK N   1      23.848  21.447   2.535  0.00  0.00    -0.286 OA
HETATM   15  S   UNK N   1      21.170  17.110   3.713  0.00  0.00    -0.085 SA
ENDROOT
BRANCH   8  16
HETATM   16  N   UNK N   1      27.915  17.765   5.867  0.00  0.00    -0.375 N 
HETATM   17  C   UNK N   1      28.253  18.214   7.214  0.00  0.00     0.153 C 
HETATM   18  C   UNK N   1      29.254  17.320   7.899  0.00  0.00     0.292 C 
HETATM   19  N   UNK N   1      30.341  17.090   6.972  0.00  0.00     0.097 N 
HETATM   20  C   UNK N   1      29.820  16.104   6.032  0.00  0.00     0.292 C 
HETATM   21  C   UNK N   1      28.643  16.678   5.209  0.00  0.00     0.153 C 
BRANCH  19  22
HETATM   22  C   UNK N   1      31.440  16.499   7.725  0.00  0.00     0.340 C 
BRANCH  22  23
HETATM   23  C   UNK N   1      32.755  17.223   7.525  0.00  0.00     0.116 A 
HETATM   24  C   UNK N   1      33.569  17.314   6.398  0.00  0.00     0.086 A 
HETATM   25  C   UNK N   1      33.383  16.695   5.055  0.00  0.00     0.079 C 
HETATM   26  O   UNK N   1      34.597  18.067   6.710  0.00  0.00    -0.257 OA
HETATM   27  C   UNK N   1      34.435  18.424   7.961  0.00  0.00     0.416 A 
HETATM   28  O   UNK N   1      35.214  19.131   8.574  0.00  0.00    -0.229 OA
HETATM   29  O   UNK N   1      33.333  17.926   8.473  0.00  0.00    -0.255 OA
ENDBRANCH  22  23
ENDBRANCH  19  22
ENDBRANCH   8  16
BRANCH   9  30
HETATM   30  C   UNK N   1      21.313  20.177   2.159  0.00  0.00     0.183 C 
HETATM   31  O   UNK N   1      20.243  20.342   2.723  0.00  0.00    -0.646 OA
BRANCH  30  32
HETATM   32  O   UNK N   1      21.418  20.481   0.852  0.00  0.00    -0.772 OA
HETATM   33  H   UNK N   1      21.986  19.985   0.296  0.00  0.00     0.167 HD
ENDBRANCH  30  32
ENDBRANCH   9  30
TORSDOF 5
ENDMDL
MODEL 2
REMARK VINA RESULT:      -9.1      1.032      1.544
REMARK  5 active torsions:
REMARK  status: ('A' for Active; 'I' for Inactive)
REMARK    1  A    between atoms: C_16  and  C_9 
REMARK    2  A    between atoms: N_23  and  C_9 
REMARK    3  A    between atoms: N_24  and  C_15 
REMARK    4  A    between atoms: C_20  and  C_17 
REMARK    5  A    between atoms: O_28  and  C_20 
ROOT
HETATM    1  C   UNK N   1      23.523  15.768   5.904  0.00  0.00     0.045 C 
HETATM    2  C   UNK N   1      26.131  20.146   3.770  0.00  0.00     0.062 A 
HETATM    3  C   UNK N   1      26.134  17.429   4.417  0.00  0.00     0.063 A 
HETATM    4  C   UNK N   1      23.336  16.044   4.419  0.00  0.00     0.155 A 
HETATM    5  C   UNK N   1      24.926  19.424   3.752  0.00  0.00     0.045 A 
HETATM    6  C   UNK N   1      27.339  19.512   4.123  0.00  0.00     0.143 A 
HETATM    7  C   UNK N   1      24.945  18.060   4.100  0.00  0.00     0.053 A 
HETATM    8  C   UNK N   1      27.348  18.128   4.432  0.00  0.00     0.071 A 
HETATM    9  C   UNK N   1      22.489  19.236   3.414  0.00  0.00     0.122 A 
HETATM   10  C   UNK N   1      23.683  20.020   3.394  0.00  0.00     0.204 A 
HETATM   11  C   UNK N   1      22.623  17.897   3.807  0.00  0.00     0.096 A 
HETATM   12  F   UNK N   1      28.483  20.240   4.109  0.00  0.00    -0.204 F 
HETATM   13  N   UNK N   1      23.778  17.382   4.114  0.00  0.00    -0.325 N 
HETATM   14  O   UNK N   1      23.645  21.197   3.071  0.00  0.00    -0.286 OA
HETATM   15  S   UNK N   1      21.523  16.512   4.035  0.00  0.00    -0.085 SA
ENDROOT
BRANCH   8  16
HETATM   16  N   UNK N   1      28.543  17.401   4.741  0.00  0.00    -0.375 N 
HETATM   17  C   UNK N   1      28.937  17.336   6.145  0.00  0.00     0.153 C 
HETATM   18  C   UNK N   1      30.130  16.447   6.383  0.00  0.00     0.292 C 
HETATM   19  N   UNK N   1      31.142  16.808   5.414  0.00  0.00     0.097 N 
HETATM   20  C   UNK N   1      30.695  16.194   4.169  0.00  0.00     0.292 C 
HETATM   21  C   UNK N   1      29.367  16.817   3.680  0.00  0.00     0.153 C 
BRANCH  19  22
HETATM   22  C   UNK N   1      32.390  16.183   5.835  0.00  0.00     0.340 C 
BRANCH  22  23
HETATM   23  C   UNK N   1      33.042  16.885   7.007  0.00  0.00     0.116 A 
HETATM   24  C   UNK N   1      33.013  16.580   8.368  0.00  0.00     0.086 A 
HETATM   25  C   UNK N   1      32.302  15.472   9.064  0.00  0.00     0.079 C 
HETATM   26  O   UNK N   1      33.745  17.473   8.990  0.00  0.00    -0.257 OA
HETATM   27  C   UNK N   1      34.202  18.291   8.072  0.00  0.00     0.416 A 
HETATM   28  O   UNK N   1      34.922  19.244   8.307  0.00  0.00    -0.229 OA
HETATM   29  O   UNK N   1      33.790  17.957   6.871  0.00  0.00    -0.255 OA
ENDBRANCH  22  23
ENDBRANCH  19  22
ENDBRANCH   8  16
BRANCH   9  30
HETATM   30  C   UNK N   1      21.156  19.787   3.044  0.00  0.00     0.183 C 
HETATM   31  O   UNK N   1      20.649  19.504   1.969  0.00  0.00    -0.646 OA
BRANCH  30  32
HETATM   32  O   UNK N   1      20.499  20.613   3.880  0.00  0.00    -0.772 OA
HETATM   33  H   UNK N   1      20.870  21.441   4.115  0.00  0.00     0.167 HD
ENDBRANCH  30  32
ENDBRANCH   9  30
TORSDOF 5
ENDMDL
MODEL 3
REMARK VINA RESULT:      -7.8      3.422      9.568
REMARK  5 active torsions:
REMARK  status: ('A' for Active; 'I' for Inactive)
REMARK    1  A    between atoms: C_16  and  C_9 
REMARK    2  A    between atoms: N_23  and  C_9 
REMARK    3  A    between atoms: N_24  and  C_15 
REMARK    4  A    between atoms: C_20  and  C_17 
REMARK    5  A    between atoms: O_28  and  C_20 
ROOT
HETATM    1  C   UNK N   1      28.646  17.150   8.974  0.00  0.00     0.045 C 
HETATM    2  C   UNK N   1      29.125  16.304   3.536  0.00  0.00     0.062 A 
HETATM    3  C   UNK N   1      27.728  17.428   5.678  0.00  0.00     0.063 A 
HETATM    4  C   UNK N   1      29.455  18.161   8.173  0.00  0.00     0.155 A 
HETATM    5  C   UNK N   1      29.822  16.711   4.686  0.00  0.00     0.045 A 
HETATM    6  C   UNK N   1      27.727  16.449   3.460  0.00  0.00     0.143 A 
HETATM    7  C   UNK N   1      29.098  17.257   5.763  0.00  0.00     0.053 A 
HETATM    8  C   UNK N   1      27.015  17.038   4.537  0.00  0.00     0.071 A 
HETATM    9  C   UNK N   1      31.884  17.006   6.010  0.00  0.00     0.122 A 
HETATM   10  C   UNK N   1      31.237  16.592   4.805  0.00  0.00     0.204 A 
HETATM   11  C   UNK N   1      31.059  17.505   7.027  0.00  0.00     0.096 A 
HETATM   12  F   UNK N   1      27.094  16.062   2.324  0.00  0.00    -0.204 F 
HETATM   13  N   UNK N   1      29.770  17.613   6.878  0.00  0.00    -0.325 N 
HETATM   14  O   UNK N   1      31.888  16.138   3.877  0.00  0.00    -0.286 OA
HETATM   15  S   UNK N   1      31.296  18.118   8.684  0.00  0.00    -0.085 SA
ENDROOT
BRANCH   8  16
HETATM   16  N   UNK N   1      25.603  17.273   4.509  0.00  0.00    -0.375 N 
HETATM   17  C   UNK N   1      25.153  18.642   4.740  0.00  0.00     0.153 C 
HETATM   18  C   UNK N   1      23.666  18.812   4.565  0.00  0.00     0.292 C 
HETATM   19  N   UNK N   1      23.016  17.754   5.307  0.00  0.00     0.097 N 
HETATM   20  C   UNK N   1      23.170  16.569   4.471  0.00  0.00     0.292 C 
HETATM   21  C   UNK N   1      24.657  16.169   4.331  0.00  0.00     0.153 C 
BRANCH  19  22
HETATM   22  C   UNK N   1      21.601  18.092   5.401  0.00  0.00     0.340 C 
BRANCH  22  23
HETATM   23  C   UNK N   1      21.036  17.906   6.794  0.00  0.00     0.116 A 
HETATM   24  C   UNK N   1      20.791  16.740   7.517  0.00  0.00     0.086 A 
HETATM   25  C   UNK N   1      20.999  15.322   7.107  0.00  0.00     0.079 C 
HETATM   26  O   UNK N   1      20.312  17.091   8.686  0.00  0.00    -0.257 OA
HETATM   27  C   UNK N   1      20.258  18.401   8.693  0.00  0.00     0.416 A 
HETATM   28  O   UNK N   1      19.857  19.062   9.633  0.00  0.00    -0.229 OA
HETATM   29  O   UNK N   1      20.688  18.914   7.562  0.00  0.00    -0.255 OA
ENDBRANCH  22  23
ENDBRANCH  19  22
ENDBRANCH   8  16
BRANCH   9  30
HETATM   30  C   UNK N   1      33.358  16.920   6.203  0.00  0.00     0.183 C 
HETATM   31  O   UNK N   1      34.027  17.938   6.293  0.00  0.00    -0.646 OA
BRANCH  30  32
HETATM   32  O   UNK N   1      33.973  15.724   6.268  0.00  0.00    -0.772 OA
HETATM   33  H   UNK N   1      34.905  15.667   6.190  0.00  0.00     0.167 HD
ENDBRANCH  30  32
ENDBRANCH   9  30
TORSDOF 5
ENDMDL
MODEL 4
REMARK VINA RESULT:      -7.8      1.934      2.687
REMARK  5 active torsions:
REMARK  status: ('A' for Active; 'I' for Inactive)
REMARK    1  A    between atoms: C_16  and  C_9 
REMARK    2  A    between atoms: N_23  and  C_9 
REMARK    3  A    between atoms: N_24  and  C_15 
REMARK    4  A    between atoms: C_20  and  C_17 
REMARK    5  A    between atoms: O_28  and  C_20 
ROOT
HETATM    1  C   UNK N   1      22.959  16.125   5.871  0.00  0.00     0.045 C 
HETATM    2  C   UNK N   1      25.635  20.290   3.420  0.00  0.00     0.062 A 
HETATM    3  C   UNK N   1      25.550  17.602   4.170  0.00  0.00     0.063 A 
HETATM    4  C   UNK N   1      22.695  16.356   4.390  0.00  0.00     0.155 A 
HETATM    5  C   UNK N   1      24.398  19.628   3.500  0.00  0.00     0.045 A 
HETATM    6  C   UNK N   1      26.830  19.612   3.725  0.00  0.00     0.143 A 
HETATM    7  C   UNK N   1      24.375  18.279   3.899  0.00  0.00     0.053 A 
HETATM    8  C   UNK N   1      26.793  18.240   4.086  0.00  0.00     0.071 A 
HETATM    9  C   UNK N   1      21.939  19.548   3.313  0.00  0.00     0.122 A 
HETATM   10  C   UNK N   1      23.165  20.272   3.193  0.00  0.00     0.204 A 
HETATM   11  C   UNK N   1      22.033  18.219   3.749  0.00  0.00     0.096 A 
HETATM   12  F   UNK N   1      28.004  20.282   3.615  0.00  0.00    -0.204 F 
HETATM   13  N   UNK N   1      23.180  17.659   4.008  0.00  0.00    -0.325 N 
HETATM   14  O   UNK N   1      23.162  21.436   2.827  0.00  0.00    -0.286 OA
HETATM   15  S   UNK N   1      20.886  16.899   4.096  0.00  0.00    -0.085 SA
ENDROOT
BRANCH   8  16
HETATM   16  N   UNK N   1      27.970  17.467   4.353  0.00  0.00    -0.375 N 
HETATM   17  C   UNK N   1      28.172  16.267   3.548  0.00  0.00     0.153 C 
HETATM   18  C   UNK N   1      29.494  15.594   3.812  0.00  0.00     0.292 C 
HETATM   19  N   UNK N   1      29.645  15.478   5.246  0.00  0.00     0.097 N 
HETATM   20  C   UNK N   1      30.022  16.816   5.687  0.00  0.00     0.292 C 
HETATM   21  C   UNK N   1      28.884  17.833   5.437  0.00  0.00     0.153 C 
BRANCH  19  22
HETATM   22  C   UNK N   1      30.751  14.563   5.496  0.00  0.00     0.340 C 
BRANCH  22  23
HETATM   23  C   UNK N   1      32.029  14.968   4.792  0.00  0.00     0.116 A 
HETATM   24  C   UNK N   1      33.189  15.551   5.300  0.00  0.00     0.086 A 
HETATM   25  C   UNK N   1      33.495  15.968   6.697  0.00  0.00     0.079 C 
HETATM   26  O   UNK N   1      34.028  15.697   4.302  0.00  0.00    -0.257 OA
HETATM   27  C   UNK N   1      33.427  15.235   3.233  0.00  0.00     0.416 A 
HETATM   28  O   UNK N   1      33.926  15.219   2.123  0.00  0.00    -0.229 OA
HETATM   29  O   UNK N   1      32.220  14.792   3.504  0.00  0.00    -0.255 OA
ENDBRANCH  22  23
ENDBRANCH  19  22
ENDBRANCH   8  16
BRANCH   9  30
HETATM   30  C   UNK N   1      20.613  20.150   3.001  0.00  0.00     0.183 C 
HETATM   31  O   UNK N   1      20.063  20.879   3.812  0.00  0.00    -0.646 OA
BRANCH  30  32
HETATM   32  O   UNK N   1      20.000  19.890   1.832  0.00  0.00    -0.772 OA
HETATM   33  H   UNK N   1      20.117  19.062   1.410  0.00  0.00     0.167 HD
ENDBRANCH  30  32
ENDBRANCH   9  30
TORSDOF 5
ENDMDL
MODEL 5
REMARK VINA RESULT:      -7.7      6.216      7.987
REMARK  5 active torsions:
REMARK  status: ('A' for Active; 'I' for Inactive)
REMARK    1  A    between atoms: C_16  and  C_9 
REMARK    2  A    between atoms: N_23  and  C_9 
REMARK    3  A    between atoms: N_24  and  C_15 
REMARK    4  A    between atoms: C_20  and  C_17 
REMARK    5  A    between atoms: O_28  and  C_20 
ROOT
HETATM    1  C   UNK N   1      25.018  17.075   3.555  0.00  0.00     0.045 C 
HETATM    2  C   UNK N   1      19.560  16.429   4.110  0.00  0.00     0.062 A 
HETATM    3  C   UNK N   1      22.142  15.960   5.064  0.00  0.00     0.063 A 
HETATM    4  C   UNK N   1      24.260  18.137   4.339  0.00  0.00     0.155 A 
HETATM    5  C   UNK N   1      20.571  17.375   3.876  0.00  0.00     0.045 A 
HETATM    6  C   UNK N   1      19.841  15.241   4.813  0.00  0.00     0.143 A 
HETATM    7  C   UNK N   1      21.871  17.111   4.347  0.00  0.00     0.053 A 
HETATM    8  C   UNK N   1      21.146  15.008   5.316  0.00  0.00     0.071 A 
HETATM    9  C   UNK N   1      21.409  19.506   2.955  0.00  0.00     0.122 A 
HETATM   10  C   UNK N   1      20.332  18.593   3.178  0.00  0.00     0.204 A 
HETATM   11  C   UNK N   1      22.667  19.125   3.441  0.00  0.00     0.096 A 
HETATM   12  F   UNK N   1      18.831  14.363   5.035  0.00  0.00    -0.204 F 
HETATM   13  N   UNK N   1      22.846  18.008   4.088  0.00  0.00    -0.325 N 
HETATM   14  O   UNK N   1      19.209  18.852   2.776  0.00  0.00    -0.286 OA
HETATM   15  S   UNK N   1      24.309  19.819   3.432  0.00  0.00    -0.085 SA
ENDROOT
BRANCH   8  16
HETATM   16  N   UNK N   1      21.494  13.854   6.091  0.00  0.00    -0.375 N 
HETATM   17  C   UNK N   1      21.136  13.871   7.506  0.00  0.00     0.153 C 
HETATM   18  C   UNK N   1      21.427  12.568   8.203  0.00  0.00     0.292 C 
HETATM   19  N   UNK N   1      22.775  12.178   7.854  0.00  0.00     0.097 N 
HETATM   20  C   UNK N   1      22.665  11.646   6.500  0.00  0.00     0.292 C 
HETATM   21  C   UNK N   1      22.243  12.745   5.497  0.00  0.00     0.153 C 
BRANCH  19  22
HETATM   22  C   UNK N   1      23.167  11.105   8.758  0.00  0.00     0.340 C 
BRANCH  22  23
HETATM   23  C   UNK N   1      23.480  11.591  10.158  0.00  0.00     0.116 A 
HETATM   24  C   UNK N   1      24.416  12.527  10.597  0.00  0.00     0.086 A 
HETATM   25  C   UNK N   1      25.404  13.308   9.802  0.00  0.00     0.079 C 
HETATM   26  O   UNK N   1      24.300  12.622  11.900  0.00  0.00    -0.257 OA
HETATM   27  C   UNK N   1      23.349  11.792  12.255  0.00  0.00     0.416 A 
HETATM   28  O   UNK N   1      22.981  11.628  13.404  0.00  0.00    -0.229 OA
HETATM   29  O   UNK N   1      22.842  11.159  11.222  0.00  0.00    -0.255 OA
ENDBRANCH  22  23
ENDBRANCH  19  22
ENDBRANCH   8  16
BRANCH   9  30
HETATM   30  C   UNK N   1      21.233  20.801   2.242  0.00  0.00     0.183 C 
HETATM   31  O   UNK N   1      21.813  21.802   2.632  0.00  0.00    -0.646 OA
BRANCH  30  32
HETATM   32  O   UNK N   1      20.425  20.889   1.169  0.00  0.00    -0.772 OA
HETATM   33  H   UNK N   1      19.571  20.504   1.187  0.00  0.00     0.167 HD
ENDBRANCH  30  32
ENDBRANCH   9  30
TORSDOF 5
ENDMDL
MODEL 6
REMARK VINA RESULT:      -7.6      1.765      2.174
REMARK  5 active torsions:
REMARK  status: ('A' for Active; 'I' for Inactive)
REMARK    1  A    between atoms: C_16  and  C_9 
REMARK    2  A    between atoms: N_23  and  C_9 
REMARK    3  A    between atoms: N_24  and  C_15 
REMARK    4  A    between atoms: C_20  and  C_17 
REMARK    5  A    between atoms: O_28  and  C_20 
ROOT
HETATM    1  C   UNK N   1      23.262  15.859   5.530  0.00  0.00     0.045 C 
HETATM    2  C   UNK N   1      25.736  20.401   3.586  0.00  0.00     0.062 A 
HETATM    3  C   UNK N   1      25.807  17.654   4.083  0.00  0.00     0.063 A 
HETATM    4  C   UNK N   1      23.038  16.211   4.066  0.00  0.00     0.155 A 
HETATM    5  C   UNK N   1      24.545  19.656   3.553  0.00  0.00     0.045 A 
HETATM    6  C   UNK N   1      26.963  19.776   3.879  0.00  0.00     0.143 A 
HETATM    7  C   UNK N   1      24.599  18.276   3.826  0.00  0.00     0.053 A 
HETATM    8  C   UNK N   1      27.007  18.377   4.112  0.00  0.00     0.071 A 
HETATM    9  C   UNK N   1      22.105  19.434   3.254  0.00  0.00     0.122 A 
HETATM   10  C   UNK N   1      23.283  20.244   3.253  0.00  0.00     0.204 A 
HETATM   11  C   UNK N   1      22.275  18.079   3.571  0.00  0.00     0.096 A 
HETATM   12  F   UNK N   1      28.091  20.527   3.881  0.00  0.00    -0.204 F 
HETATM   13  N   UNK N   1      23.447  17.573   3.826  0.00  0.00    -0.325 N 
HETATM   14  O   UNK N   1      23.214  21.435   2.996  0.00  0.00    -0.286 OA
HETATM   15  S   UNK N   1      21.209  16.661   3.746  0.00  0.00    -0.085 SA
ENDROOT
BRANCH   8  16
HETATM   16  N   UNK N   1      28.223  17.660   4.356  0.00  0.00    -0.375 N 
HETATM   17  C   UNK N   1      28.983  18.028   5.547  0.00  0.00     0.153 C 
HETATM   18  C   UNK N   1      30.173  17.136   5.786  0.00  0.00     0.292 C 
HETATM   19  N   UNK N   1      30.892  17.023   4.535  0.00  0.00     0.097 N 
HETATM   20  C   UNK N   1      30.107  16.082   3.744  0.00  0.00     0.292 C 
HETATM   21  C   UNK N   1      28.711  16.657   3.408  0.00  0.00     0.153 C 
BRANCH  19  22
HETATM   22  C   UNK N   1      32.191  16.433   4.830  0.00  0.00     0.340 C 
BRANCH  22  23
HETATM   23  C   UNK N   1      32.182  15.561   6.068  0.00  0.00     0.116 A 
HETATM   24  C   UNK N   1      32.026  14.181   6.195  0.00  0.00     0.086 A 
HETATM   25  C   UNK N   1      31.798  13.162   5.132  0.00  0.00     0.079 C 
HETATM   26  O   UNK N   1      32.106  13.889   7.471  0.00  0.00    -0.257 OA
HETATM   27  C   UNK N   1      32.298  15.021   8.105  0.00  0.00     0.416 A 
HETATM   28  O   UNK N   1      32.418  15.114   9.313  0.00  0.00    -0.229 OA
HETATM   29  O   UNK N   1      32.345  16.041   7.280  0.00  0.00    -0.255 OA
ENDBRANCH  22  23
ENDBRANCH  19  22
ENDBRANCH   8  16
BRANCH   9  30
HETATM   30  C   UNK N   1      20.754  19.976   2.943  0.00  0.00     0.183 C 
HETATM   31  O   UNK N   1      20.202  20.738   3.721  0.00  0.00    -0.646 OA
BRANCH  30  32
HETATM   32  O   UNK N   1      20.119  19.626   1.809  0.00  0.00    -0.772 OA
HETATM   33  H   UNK N   1      19.372  19.061   1.840  0.00  0.00     0.167 HD
ENDBRANCH  30  32
ENDBRANCH   9  30
TORSDOF 5
ENDMDL
MODEL 7
REMARK VINA RESULT:      -7.5      8.135     10.803
REMARK  5 active torsions:
REMARK  status: ('A' for Active; 'I' for Inactive)
REMARK    1  A    between atoms: C_16  and  C_9 
REMARK    2  A    between atoms: N_23  and  C_9 
REMARK    3  A    between atoms: N_24  and  C_15 
REMARK    4  A    between atoms: C_20  and  C_17 
REMARK    5  A    between atoms: O_28  and  C_20 
ROOT
HETATM    1  C   UNK N   1      33.421  11.921   6.616  0.00  0.00     0.045 C 
HETATM    2  C   UNK N   1      34.507  17.184   7.898  0.00  0.00     0.062 A 
HETATM    3  C   UNK N   1      35.076  14.469   8.216  0.00  0.00     0.063 A 
HETATM    4  C   UNK N   1      34.432  12.662   5.753  0.00  0.00     0.155 A 
HETATM    5  C   UNK N   1      34.296  16.298   6.828  0.00  0.00     0.045 A 
HETATM    6  C   UNK N   1      34.992  16.712   9.132  0.00  0.00     0.143 A 
HETATM    7  C   UNK N   1      34.569  14.930   7.015  0.00  0.00     0.053 A 
HETATM    8  C   UNK N   1      35.302  15.337   9.292  0.00  0.00     0.071 A 
HETATM    9  C   UNK N   1      33.601  15.776   4.518  0.00  0.00     0.122 A 
HETATM   10  C   UNK N   1      33.813  16.732   5.560  0.00  0.00     0.204 A 
HETATM   11  C   UNK N   1      33.878  14.437   4.827  0.00  0.00     0.096 A 
HETATM   12  F   UNK N   1      35.202  17.604  10.132  0.00  0.00    -0.204 F 
HETATM   13  N   UNK N   1      34.331  14.079   5.994  0.00  0.00    -0.325 N 
HETATM   14  O   UNK N   1      33.586  17.915   5.369  0.00  0.00    -0.286 OA
HETATM   15  S   UNK N   1      33.778  12.877   3.970  0.00  0.00    -0.085 SA
ENDROOT
BRANCH   8  16
HETATM   16  N   UNK N   1      35.856  14.792  10.496  0.00  0.00    -0.375 N 
HETATM   17  C   UNK N   1      36.576  13.527  10.382  0.00  0.00     0.153 C 
HETATM   18  C   UNK N   1      37.228  13.102  11.673  0.00  0.00     0.292 C 
HETATM   19  N   UNK N   1      36.239  13.224  12.722  0.00  0.00     0.097 N 
HETATM   20  C   UNK N   1      36.176  14.653  13.004  0.00  0.00     0.292 C 
HETATM   21  C   UNK N   1      35.638  15.444  11.789  0.00  0.00     0.153 C 
BRANCH  19  22
HETATM   22  C   UNK N   1      36.756  12.527  13.892  0.00  0.00     0.340 C 
BRANCH  22  23
HETATM   23  C   UNK N   1      35.893  12.709  15.123  0.00  0.00     0.116 A 
HETATM   24  C   UNK N   1      34.673  12.123  15.461  0.00  0.00     0.086 A 
HETATM   25  C   UNK N   1      33.851  11.156  14.682  0.00  0.00     0.079 C 
HETATM   26  O   UNK N   1      34.326  12.583  16.639  0.00  0.00    -0.257 OA
HETATM   27  C   UNK N   1      35.272  13.410  17.015  0.00  0.00     0.416 A 
HETATM   28  O   UNK N   1      35.266  14.019  18.069  0.00  0.00    -0.229 OA
HETATM   29  O   UNK N   1      36.225  13.502  16.116  0.00  0.00    -0.255 OA
ENDBRANCH  22  23
ENDBRANCH  19  22
ENDBRANCH   8  16
BRANCH   9  30
HETATM   30  C   UNK N   1      33.108  16.155   3.165  0.00  0.00     0.183 C 
HETATM   31  O   UNK N   1      33.718  15.805   2.167  0.00  0.00    -0.646 OA
BRANCH  30  32
HETATM   32  O   UNK N   1      31.993  16.898   3.025  0.00  0.00    -0.772 OA
HETATM   33  H   UNK N   1      31.338  16.898   3.694  0.00  0.00     0.167 HD
ENDBRANCH  30  32
ENDBRANCH   9  30
TORSDOF 5
ENDMDL
MODEL 8
REMARK VINA RESULT:      -7.3      3.363      9.998
REMARK  5 active torsions:
REMARK  status: ('A' for Active; 'I' for Inactive)
REMARK    1  A    between atoms: C_16  and  C_9 
REMARK    2  A    between atoms: N_23  and  C_9 
REMARK    3  A    between atoms: N_24  and  C_15 
REMARK    4  A    between atoms: C_20  and  C_17 
REMARK    5  A    between atoms: O_28  and  C_20 
ROOT
HETATM    1  C   UNK N   1      28.078  17.436   9.105  0.00  0.00     0.045 C 
HETATM    2  C   UNK N   1      28.583  16.474   3.688  0.00  0.00     0.062 A 
HETATM    3  C   UNK N   1      27.222  17.709   5.791  0.00  0.00     0.063 A 
HETATM    4  C   UNK N   1      28.953  18.387   8.299  0.00  0.00     0.155 A 
HETATM    5  C   UNK N   1      29.286  16.860   4.842  0.00  0.00     0.045 A 
HETATM    6  C   UNK N   1      27.196  16.694   3.589  0.00  0.00     0.143 A 
HETATM    7  C   UNK N   1      28.579  17.463   5.899  0.00  0.00     0.053 A 
HETATM    8  C   UNK N   1      26.504  17.340   4.646  0.00  0.00     0.071 A 
HETATM    9  C   UNK N   1      31.343  17.063   6.190  0.00  0.00     0.122 A 
HETATM   10  C   UNK N   1      30.690  16.665   4.982  0.00  0.00     0.204 A 
HETATM   11  C   UNK N   1      30.533  17.624   7.187  0.00  0.00     0.096 A 
HETATM   12  F   UNK N   1      26.559  16.324   2.451  0.00  0.00    -0.204 F 
HETATM   13  N   UNK N   1      29.254  17.800   7.017  0.00  0.00    -0.325 N 
HETATM   14  O   UNK N   1      31.327  16.160   4.072  0.00  0.00    -0.286 OA
HETATM   15  S   UNK N   1      30.782  18.251   8.837  0.00  0.00    -0.085 SA
ENDROOT
BRANCH   8  16
HETATM   16  N   UNK N   1      25.107  17.653   4.594  0.00  0.00    -0.375 N 
HETATM   17  C   UNK N   1      24.182  16.647   5.108  0.00  0.00     0.153 C 
HETATM   18  C   UNK N   1      22.751  17.118   5.128  0.00  0.00     0.292 C 
HETATM   19  N   UNK N   1      22.465  17.699   3.834  0.00  0.00     0.097 N 
HETATM   20  C   UNK N   1      23.096  19.013   3.873  0.00  0.00     0.292 C 
HETATM   21  C   UNK N   1      24.634  18.896   3.981  0.00  0.00     0.153 C 
BRANCH  19  22
HETATM   22  C   UNK N   1      21.020  17.865   3.740  0.00  0.00     0.340 C 
BRANCH  22  23
HETATM   23  C   UNK N   1      20.272  16.550   3.681  0.00  0.00     0.116 A 
HETATM   24  C   UNK N   1      20.249  15.572   2.688  0.00  0.00     0.086 A 
HETATM   25  C   UNK N   1      20.947  15.557   1.371  0.00  0.00     0.079 C 
HETATM   26  O   UNK N   1      19.466  14.605   3.101  0.00  0.00    -0.257 OA
HETATM   27  C   UNK N   1      19.023  14.959   4.284  0.00  0.00     0.416 A 
HETATM   28  O   UNK N   1      18.266  14.285   4.958  0.00  0.00    -0.229 OA
HETATM   29  O   UNK N   1      19.495  16.128   4.652  0.00  0.00    -0.255 OA
ENDBRANCH  22  23
ENDBRANCH  19  22
ENDBRANCH   8  16
BRANCH   9  30
HETATM   30  C   UNK N   1      32.807  16.898   6.406  0.00  0.00     0.183 C 
HETATM   31  O   UNK N   1      33.528  17.878   6.509  0.00  0.00    -0.646 OA
BRANCH  30  32
HETATM   32  O   UNK N   1      33.356  15.671   6.478  0.00  0.00    -0.772 OA
HETATM   33  H   UNK N   1      34.086  15.512   7.043  0.00  0.00     0.167 HD
ENDBRANCH  30  32
ENDBRANCH   9  30
TORSDOF 5
ENDMDL
MODEL 9
REMARK VINA RESULT:      -7.2      2.916     10.083
REMARK  5 active torsions:
REMARK  status: ('A' for Active; 'I' for Inactive)
REMARK    1  A    between atoms: C_16  and  C_9 
REMARK    2  A    between atoms: N_23  and  C_9 
REMARK    3  A    between atoms: N_24  and  C_15 
REMARK    4  A    between atoms: C_20  and  C_17 
REMARK    5  A    between atoms: O_28  and  C_20 
ROOT
HETATM    1  C   UNK N   1      28.212  17.257   9.237  0.00  0.00     0.045 C 
HETATM    2  C   UNK N   1      28.798  16.519   3.793  0.00  0.00     0.062 A 
HETATM    3  C   UNK N   1      27.379  17.630   5.927  0.00  0.00     0.063 A 
HETATM    4  C   UNK N   1      29.064  18.264   8.478  0.00  0.00     0.155 A 
HETATM    5  C   UNK N   1      29.478  16.883   4.968  0.00  0.00     0.045 A 
HETATM    6  C   UNK N   1      27.406  16.700   3.688  0.00  0.00     0.143 A 
HETATM    7  C   UNK N   1      28.742  17.422   6.040  0.00  0.00     0.053 A 
HETATM    8  C   UNK N   1      26.684  17.283   4.761  0.00  0.00     0.071 A 
HETATM    9  C   UNK N   1      31.514  17.097   6.345  0.00  0.00     0.122 A 
HETATM   10  C   UNK N   1      30.885  16.726   5.116  0.00  0.00     0.204 A 
HETATM   11  C   UNK N   1      30.678  17.594   7.354  0.00  0.00     0.096 A 
HETATM   12  F   UNK N   1      26.791  16.355   2.529  0.00  0.00    -0.204 F 
HETATM   13  N   UNK N   1      29.396  17.737   7.178  0.00  0.00    -0.325 N 
HETATM   14  O   UNK N   1      31.547  16.277   4.194  0.00  0.00    -0.286 OA
HETATM   15  S   UNK N   1      30.891  18.165   9.030  0.00  0.00    -0.085 SA
ENDROOT
BRANCH   8  16
HETATM   16  N   UNK N   1      25.278  17.554   4.706  0.00  0.00    -0.375 N 
HETATM   17  C   UNK N   1      24.378  16.469   5.084  0.00  0.00     0.153 C 
HETATM   18  C   UNK N   1      22.931  16.888   5.117  0.00  0.00     0.292 C 
HETATM   19  N   UNK N   1      22.654  17.597   3.886  0.00  0.00     0.097 N 
HETATM   20  C   UNK N   1      23.238  18.919   4.083  0.00  0.00     0.292 C 
HETATM   21  C   UNK N   1      24.776  18.840   4.218  0.00  0.00     0.153 C 
BRANCH  19  22
HETATM   22  C   UNK N   1      21.207  17.725   3.772  0.00  0.00     0.340 C 
BRANCH  22  23
HETATM   23  C   UNK N   1      20.725  17.777   2.337  0.00  0.00     0.116 A 
HETATM   24  C   UNK N   1      20.606  18.860   1.467  0.00  0.00     0.086 A 
HETATM   25  C   UNK N   1      20.903  20.298   1.715  0.00  0.00     0.079 C 
HETATM   26  O   UNK N   1      20.158  18.401   0.323  0.00  0.00    -0.257 OA
HETATM   27  C   UNK N   1      20.003  17.107   0.470  0.00  0.00     0.416 A 
HETATM   28  O   UNK N   1      19.598  16.365  -0.406  0.00  0.00    -0.229 OA
HETATM   29  O   UNK N   1      20.337  16.710   1.676  0.00  0.00    -0.255 OA
ENDBRANCH  22  23
ENDBRANCH  19  22
ENDBRANCH   8  16
BRANCH   9  30
HETATM   30  C   UNK N   1      32.981  16.970   6.570  0.00  0.00     0.183 C 
HETATM   31  O   UNK N   1      33.744  17.829   6.156  0.00  0.00    -0.646 OA
BRANCH  30  32
HETATM   32  O   UNK N   1      33.485  15.904   7.221  0.00  0.00    -0.772 OA
HETATM   33  H   UNK N   1      34.305  15.969   7.670  0.00  0.00     0.167 HD
ENDBRANCH  30  32
ENDBRANCH   9  30
TORSDOF 5
ENDMDL
