MODEL 1
REMARK VINA RESULT:      -6.7      0.000      0.000
REMARK  7 active torsions:
REMARK  status: ('A' for Active; 'I' for Inactive)
REMARK    1  A    between atoms: C_3  and  N_9 
REMARK    2  A    between atoms: N_9  and  C_10 
REMARK    3  A    between atoms: C_11  and  C_20 
REMARK       I    between atoms: C_20  and  N_22 
REMARK    4  A    between atoms: N_22  and  O_23 
REMARK    5  A    between atoms: O_23  and  C_24 
REMARK    6  A    between atoms: C_24  and  C_25 
REMARK    7  A    between atoms: C_25  and  O_26 
ROOT
HETATM    1  C   UNK N   1      29.742  17.078   6.806  0.00  0.00     0.129 A 
HETATM    2  C   UNK N   1      29.483  17.705   8.082  0.00  0.00     0.078 A 
HETATM    3  C   UNK N   1      30.611  18.064   8.863  0.00  0.00     0.023 A 
HETATM    4  C   UNK N   1      31.916  17.845   8.442  0.00  0.00     0.032 A 
HETATM    5  C   UNK N   1      32.092  17.270   7.205  0.00  0.00     0.057 A 
HETATM    6  N   UNK N   1      31.058  16.914   6.433  0.00  0.00    -0.292 N 
HETATM    7  C   UNK N   1      31.608  16.440   5.298  0.00  0.00     0.190 A 
HETATM    8  N   UNK N   1      32.960  16.472   5.356  0.00  0.00    -0.359 N 
ATOM      9  HN  UNK N   1      33.613  16.162   4.637  1.00  0.00     0.166 HD
HETATM   10  C   UNK N   1      33.271  16.997   6.561  0.00  0.00     0.119 A 
ENDROOT
BRANCH   1  11
HETATM   11  N   UNK N   1      28.664  16.720   5.941  0.00  0.00    -0.339 N 
HETATM   12  H   UNK N   1      28.583  15.753   5.779  0.00  0.00     0.167 HD
BRANCH  11  13
HETATM   13  C   UNK N   1      27.679  17.507   5.267  0.00  0.00     0.072 A 
HETATM   14  C   UNK N   1      26.303  17.242   5.358  0.00  0.00     0.034 A 
HETATM   15  C   UNK N   1      25.377  18.033   4.674  0.00  0.00     0.020 A 
HETATM   16  C   UNK N   1      25.815  19.117   3.911  0.00  0.00     0.009 A 
HETATM   17  C   UNK N   1      27.175  19.419   3.848  0.00  0.00     0.062 A 
HETATM   18  I   UNK N   1      24.429  20.293   2.849  0.00  0.00    -0.044 I 
HETATM   19  C   UNK N   1      28.102  18.622   4.526  0.00  0.00     0.144 A 
HETATM   20  F   UNK N   1      29.421  18.933   4.455  0.00  0.00    -0.204 F 
ENDBRANCH  11  13
ENDBRANCH   1  11
BRANCH   2  21
HETATM   21  C   UNK N   1      28.150  18.072   8.725  0.00  0.00     0.279 C 
HETATM   22  O   UNK N   1      27.680  17.257   9.508  0.00  0.00    -0.265 OA
HETATM   23  N   UNK N   1      27.417  19.202   8.528  0.00  0.00    -0.231 N 
HETATM   24  H   UNK N   1      26.596  19.301   9.063  0.00  0.00     0.197 HD
BRANCH  23  25
HETATM   25  O   UNK N   1      27.706  20.190   7.679  0.00  0.00    -0.275 OA
BRANCH  25  26
HETATM   26  C   UNK N   1      26.471  20.574   7.145  0.00  0.00     0.227 C 
BRANCH  26  27
HETATM   27  C   UNK N   1      25.890  21.745   7.925  0.00  0.00     0.192 C 
BRANCH  27  28
HETATM   28  O   UNK N   1      25.023  21.282   8.915  0.00  0.00    -0.399 OA
HETATM   29  H   UNK N   1      24.588  20.435   9.100  0.00  0.00     0.209 HD
ENDBRANCH  27  28
ENDBRANCH  26  27
ENDBRANCH  25  26
ENDBRANCH  23  25
ENDBRANCH   2  21
TORSDOF 7
ENDMDL
MODEL 2
REMARK VINA RESULT:      -6.6     11.523     13.837
REMARK  7 active torsions:
REMARK  status: ('A' for Active; 'I' for Inactive)
REMARK    1  A    between atoms: C_3  and  N_9 
REMARK    2  A    between atoms: N_9  and  C_10 
REMARK    3  A    between atoms: C_11  and  C_20 
REMARK       I    between atoms: C_20  and  N_22 
REMARK    4  A    between atoms: N_22  and  O_23 
REMARK    5  A    between atoms: O_23  and  C_24 
REMARK    6  A    between atoms: C_24  and  C_25 
REMARK    7  A    between atoms: C_25  and  O_26 
ROOT
HETATM    1  C   UNK N   1      28.292  26.103  -3.890  0.00  0.00     0.129 A 
HETATM    2  C   UNK N   1      29.714  26.356  -3.905  0.00  0.00     0.078 A 
HETATM    3  C   UNK N   1      30.131  27.702  -3.742  0.00  0.00     0.023 A 
HETATM    4  C   UNK N   1      29.234  28.748  -3.563  0.00  0.00     0.032 A 
HETATM    5  C   UNK N   1      27.896  28.434  -3.530  0.00  0.00     0.057 A 
HETATM    6  N   UNK N   1      27.456  27.178  -3.680  0.00  0.00    -0.292 N 
HETATM    7  C   UNK N   1      26.118  27.252  -3.543  0.00  0.00     0.190 A 
HETATM    8  N   UNK N   1      25.714  28.527  -3.334  0.00  0.00    -0.359 N 
ATOM      9  HN  UNK N   1      24.757  28.855  -3.210  1.00  0.00     0.166 HD
HETATM   10  C   UNK N   1      26.836  29.279  -3.324  0.00  0.00     0.119 A 
ENDROOT
BRANCH   1  11
HETATM   11  N   UNK N   1      27.790  24.772  -4.009  0.00  0.00    -0.339 N 
HETATM   12  H   UNK N   1      27.629  24.325  -3.148  0.00  0.00     0.167 HD
BRANCH  11  13
HETATM   13  C   UNK N   1      27.477  23.968  -5.149  0.00  0.00     0.072 A 
HETATM   14  C   UNK N   1      28.451  23.256  -5.866  0.00  0.00     0.034 A 
HETATM   15  C   UNK N   1      28.099  22.489  -6.980  0.00  0.00     0.020 A 
HETATM   16  C   UNK N   1      26.763  22.404  -7.374  0.00  0.00     0.009 A 
HETATM   17  C   UNK N   1      25.779  23.072  -6.644  0.00  0.00     0.062 A 
HETATM   18  I   UNK N   1      26.228  21.280  -9.072  0.00  0.00    -0.044 I 
HETATM   19  C   UNK N   1      26.132  23.845  -5.535  0.00  0.00     0.144 A 
HETATM   20  F   UNK N   1      25.161  24.484  -4.836  0.00  0.00    -0.204 F 
ENDBRANCH  11  13
ENDBRANCH   1  11
BRANCH   2  21
HETATM   21  C   UNK N   1      30.869  25.370  -4.050  0.00  0.00     0.279 C 
HETATM   22  O   UNK N   1      31.681  25.607  -4.934  0.00  0.00    -0.265 OA
HETATM   23  N   UNK N   1      31.102  24.252  -3.309  0.00  0.00    -0.231 N 
HETATM   24  H   UNK N   1      31.926  23.750  -3.506  0.00  0.00     0.197 HD
BRANCH  23  25
HETATM   25  O   UNK N   1      30.320  23.771  -2.340  0.00  0.00    -0.275 OA
BRANCH  25  26
HETATM   26  C   UNK N   1      30.197  22.407  -2.625  0.00  0.00     0.227 C 
BRANCH  26  27
HETATM   27  C   UNK N   1      31.514  21.845  -3.140  0.00  0.00     0.192 C 
BRANCH  27  28
HETATM   28  O   UNK N   1      32.322  21.458  -2.071  0.00  0.00    -0.399 OA
HETATM   29  H   UNK N   1      32.395  20.660  -1.523  0.00  0.00     0.209 HD
ENDBRANCH  27  28
ENDBRANCH  26  27
ENDBRANCH  25  26
ENDBRANCH  23  25
ENDBRANCH   2  21
TORSDOF 7
ENDMDL
MODEL 3
REMARK VINA RESULT:      -6.5      7.074      8.384
REMARK  7 active torsions:
REMARK  status: ('A' for Active; 'I' for Inactive)
REMARK    1  A    between atoms: C_3  and  N_9 
REMARK    2  A    between atoms: N_9  and  C_10 
REMARK    3  A    between atoms: C_11  and  C_20 
REMARK       I    between atoms: C_20  and  N_22 
REMARK    4  A    between atoms: N_22  and  O_23 
REMARK    5  A    between atoms: O_23  and  C_24 
REMARK    6  A    between atoms: C_24  and  C_25 
REMARK    7  A    between atoms: C_25  and  O_26 
ROOT
HETATM    1  C   UNK N   1      22.897  13.690   8.723  0.00  0.00     0.129 A 
HETATM    2  C   UNK N   1      21.461  13.834   8.793  0.00  0.00     0.078 A 
HETATM    3  C   UNK N   1      20.811  13.264   9.917  0.00  0.00     0.023 A 
HETATM    4  C   UNK N   1      21.499  12.600  10.925  0.00  0.00     0.032 A 
HETATM    5  C   UNK N   1      22.867  12.524  10.811  0.00  0.00     0.057 A 
HETATM    6  N   UNK N   1      23.524  13.047   9.767  0.00  0.00    -0.292 N 
HETATM    7  C   UNK N   1      24.828  12.826  10.021  0.00  0.00     0.190 A 
HETATM    8  N   UNK N   1      24.996  12.158  11.187  0.00  0.00    -0.359 N 
ATOM      9  HN  UNK N   1      25.879  11.859  11.601  1.00  0.00     0.166 HD
HETATM   10  C   UNK N   1      23.758  11.965  11.690  0.00  0.00     0.119 A 
ENDROOT
BRANCH   1  11
HETATM   11  N   UNK N   1      23.632  14.267   7.644  0.00  0.00    -0.339 N 
HETATM   12  H   UNK N   1      24.396  14.819   7.929  0.00  0.00     0.167 HD
BRANCH  11  13
HETATM   13  C   UNK N   1      23.466  14.193   6.226  0.00  0.00     0.072 A 
HETATM   14  C   UNK N   1      23.546  12.985   5.515  0.00  0.00     0.034 A 
HETATM   15  C   UNK N   1      23.385  12.963   4.127  0.00  0.00     0.020 A 
HETATM   16  C   UNK N   1      23.114  14.145   3.436  0.00  0.00     0.009 A 
HETATM   17  C   UNK N   1      22.987  15.345   4.137  0.00  0.00     0.062 A 
HETATM   18  I   UNK N   1      22.905  14.125   1.342  0.00  0.00    -0.044 I 
HETATM   19  C   UNK N   1      23.156  15.369   5.524  0.00  0.00     0.144 A 
HETATM   20  F   UNK N   1      23.026  16.545   6.187  0.00  0.00    -0.204 F 
ENDBRANCH  11  13
ENDBRANCH   1  11
BRANCH   2  21
HETATM   21  C   UNK N   1      20.513  14.543   7.831  0.00  0.00     0.279 C 
HETATM   22  O   UNK N   1      20.041  13.863   6.930  0.00  0.00    -0.265 OA
HETATM   23  N   UNK N   1      20.131  15.849   7.856  0.00  0.00    -0.231 N 
HETATM   24  H   UNK N   1      19.471  16.134   7.184  0.00  0.00     0.197 HD
BRANCH  23  25
HETATM   25  O   UNK N   1      20.566  16.781   8.707  0.00  0.00    -0.275 OA
BRANCH  25  26
HETATM   26  C   UNK N   1      19.538  17.729   8.753  0.00  0.00     0.227 C 
BRANCH  26  27
HETATM   27  C   UNK N   1      18.256  17.105   9.287  0.00  0.00     0.192 C 
BRANCH  27  28
HETATM   28  O   UNK N   1      17.427  16.730   8.230  0.00  0.00    -0.399 OA
HETATM   29  H   UNK N   1      17.531  16.168   7.447  0.00  0.00     0.209 HD
ENDBRANCH  27  28
ENDBRANCH  26  27
ENDBRANCH  25  26
ENDBRANCH  23  25
ENDBRANCH   2  21
TORSDOF 7
ENDMDL
MODEL 4
REMARK VINA RESULT:      -6.4      4.571      6.245
REMARK  7 active torsions:
REMARK  status: ('A' for Active; 'I' for Inactive)
REMARK    1  A    between atoms: C_3  and  N_9 
REMARK    2  A    between atoms: N_9  and  C_10 
REMARK    3  A    between atoms: C_11  and  C_20 
REMARK       I    between atoms: C_20  and  N_22 
REMARK    4  A    between atoms: N_22  and  O_23 
REMARK    5  A    between atoms: O_23  and  C_24 
REMARK    6  A    between atoms: C_24  and  C_25 
REMARK    7  A    between atoms: C_25  and  O_26 
ROOT
HETATM    1  C   UNK N   1      25.510  18.371   4.541  0.00  0.00     0.129 A 
HETATM    2  C   UNK N   1      25.613  19.645   3.867  0.00  0.00     0.078 A 
HETATM    3  C   UNK N   1      26.757  20.433   4.150  0.00  0.00     0.023 A 
HETATM    4  C   UNK N   1      27.755  20.020   5.024  0.00  0.00     0.032 A 
HETATM    5  C   UNK N   1      27.610  18.785   5.610  0.00  0.00     0.057 A 
HETATM    6  N   UNK N   1      26.546  18.006   5.373  0.00  0.00    -0.292 N 
HETATM    7  C   UNK N   1      26.771  16.875   6.069  0.00  0.00     0.190 A 
HETATM    8  N   UNK N   1      27.939  16.942   6.751  0.00  0.00    -0.359 N 
ATOM      9  HN  UNK N   1      28.335  16.227   7.361  1.00  0.00     0.166 HD
HETATM   10  C   UNK N   1      28.473  18.148   6.463  0.00  0.00     0.119 A 
ENDROOT
BRANCH   1  11
HETATM   11  N   UNK N   1      24.409  17.500   4.283  0.00  0.00    -0.339 N 
HETATM   12  H   UNK N   1      23.614  17.684   4.833  0.00  0.00     0.167 HD
BRANCH  11  13
HETATM   13  C   UNK N   1      24.247  16.410   3.373  0.00  0.00     0.072 A 
HETATM   14  C   UNK N   1      25.317  15.856   2.654  0.00  0.00     0.034 A 
HETATM   15  C   UNK N   1      25.108  14.795   1.767  0.00  0.00     0.020 A 
HETATM   16  C   UNK N   1      23.829  14.259   1.610  0.00  0.00     0.009 A 
HETATM   17  C   UNK N   1      22.765  14.772   2.352  0.00  0.00     0.062 A 
HETATM   18  I   UNK N   1      23.500  12.686   0.252  0.00  0.00    -0.044 I 
HETATM   19  C   UNK N   1      22.972  15.837   3.232  0.00  0.00     0.144 A 
HETATM   20  F   UNK N   1      21.925  16.320   3.947  0.00  0.00    -0.204 F 
ENDBRANCH  11  13
ENDBRANCH   1  11
BRANCH   2  21
HETATM   21  C   UNK N   1      24.667  20.280   2.852  0.00  0.00     0.279 C 
HETATM   22  O   UNK N   1      25.188  20.864   1.912  0.00  0.00    -0.265 OA
HETATM   23  N   UNK N   1      23.306  20.275   2.873  0.00  0.00    -0.231 N 
HETATM   24  H   UNK N   1      22.847  20.695   2.109  0.00  0.00     0.197 HD
BRANCH  23  25
HETATM   25  O   UNK N   1      22.534  19.755   3.828  0.00  0.00    -0.275 OA
BRANCH  25  26
HETATM   26  C   UNK N   1      21.326  19.457   3.187  0.00  0.00     0.227 C 
BRANCH  26  27
HETATM   27  C   UNK N   1      20.990  20.522   2.153  0.00  0.00     0.192 C 
BRANCH  27  28
HETATM   28  O   UNK N   1      20.849  19.941   0.893  0.00  0.00    -0.399 OA
HETATM   29  H   UNK N   1      20.209  19.336   0.487  0.00  0.00     0.209 HD
ENDBRANCH  27  28
ENDBRANCH  26  27
ENDBRANCH  25  26
ENDBRANCH  23  25
ENDBRANCH   2  21
TORSDOF 7
ENDMDL
MODEL 5
REMARK VINA RESULT:      -6.4      4.636      7.386
REMARK  7 active torsions:
REMARK  status: ('A' for Active; 'I' for Inactive)
REMARK    1  A    between atoms: C_3  and  N_9 
REMARK    2  A    between atoms: N_9  and  C_10 
REMARK    3  A    between atoms: C_11  and  C_20 
REMARK       I    between atoms: C_20  and  N_22 
REMARK    4  A    between atoms: N_22  and  O_23 
REMARK    5  A    between atoms: O_23  and  C_24 
REMARK    6  A    between atoms: C_24  and  C_25 
REMARK    7  A    between atoms: C_25  and  O_26 
ROOT
HETATM    1  C   UNK N   1      32.089  17.384   6.257  0.00  0.00     0.129 A 
HETATM    2  C   UNK N   1      32.487  17.567   7.634  0.00  0.00     0.078 A 
HETATM    3  C   UNK N   1      31.450  17.665   8.597  0.00  0.00     0.023 A 
HETATM    4  C   UNK N   1      30.105  17.581   8.261  0.00  0.00     0.032 A 
HETATM    5  C   UNK N   1      29.796  17.378   6.936  0.00  0.00     0.057 A 
HETATM    6  N   UNK N   1      30.742  17.280   5.993  0.00  0.00    -0.292 N 
HETATM    7  C   UNK N   1      30.076  17.038   4.847  0.00  0.00     0.190 A 
HETATM    8  N   UNK N   1      28.738  17.006   5.053  0.00  0.00    -0.359 N 
ATOM      9  HN  UNK N   1      28.013  16.853   4.352  1.00  0.00     0.166 HD
HETATM   10  C   UNK N   1      28.556  17.220   6.373  0.00  0.00     0.119 A 
ENDROOT
BRANCH   1  11
HETATM   11  N   UNK N   1      33.071  17.239   5.231  0.00  0.00    -0.339 N 
HETATM   12  H   UNK N   1      33.397  18.092   4.863  0.00  0.00     0.167 HD
BRANCH  11  13
HETATM   13  C   UNK N   1      33.670  16.084   4.639  0.00  0.00     0.072 A 
HETATM   14  C   UNK N   1      34.466  15.185   5.366  0.00  0.00     0.034 A 
HETATM   15  C   UNK N   1      35.038  14.073   4.742  0.00  0.00     0.020 A 
HETATM   16  C   UNK N   1      34.799  13.832   3.388  0.00  0.00     0.009 A 
HETATM   17  C   UNK N   1      33.973  14.694   2.665  0.00  0.00     0.062 A 
HETATM   18  I   UNK N   1      35.685  12.180   2.432  0.00  0.00    -0.044 I 
HETATM   19  C   UNK N   1      33.407  15.810   3.287  0.00  0.00     0.144 A 
HETATM   20  F   UNK N   1      32.605  16.634   2.568  0.00  0.00    -0.204 F 
ENDBRANCH  11  13
ENDBRANCH   1  11
BRANCH   2  21
HETATM   21  C   UNK N   1      33.888  17.651   8.232  0.00  0.00     0.279 C 
HETATM   22  O   UNK N   1      34.597  18.564   7.833  0.00  0.00    -0.265 OA
HETATM   23  N   UNK N   1      34.444  16.824   9.159  0.00  0.00    -0.231 N 
HETATM   24  H   UNK N   1      35.350  17.050   9.473  0.00  0.00     0.197 HD
BRANCH  23  25
HETATM   25  O   UNK N   1      33.879  15.735   9.684  0.00  0.00    -0.275 OA
BRANCH  25  26
HETATM   26  C   UNK N   1      34.919  15.082  10.355  0.00  0.00     0.227 C 
BRANCH  26  27
HETATM   27  C   UNK N   1      35.682  16.057  11.241  0.00  0.00     0.192 C 
BRANCH  27  28
HETATM   28  O   UNK N   1      37.018  16.119  10.849  0.00  0.00    -0.399 OA
HETATM   29  H   UNK N   1      37.680  16.825  10.786  0.00  0.00     0.209 HD
ENDBRANCH  27  28
ENDBRANCH  26  27
ENDBRANCH  25  26
ENDBRANCH  23  25
ENDBRANCH   2  21
TORSDOF 7
ENDMDL
MODEL 6
REMARK VINA RESULT:      -6.4      1.999      2.395
REMARK  7 active torsions:
REMARK  status: ('A' for Active; 'I' for Inactive)
REMARK    1  A    between atoms: C_3  and  N_9 
REMARK    2  A    between atoms: N_9  and  C_10 
REMARK    3  A    between atoms: C_11  and  C_20 
REMARK       I    between atoms: C_20  and  N_22 
REMARK    4  A    between atoms: N_22  and  O_23 
REMARK    5  A    between atoms: O_23  and  C_24 
REMARK    6  A    between atoms: C_24  and  C_25 
REMARK    7  A    between atoms: C_25  and  O_26 
ROOT
HETATM    1  C   UNK N   1      29.817  17.490   6.602  0.00  0.00     0.129 A 
HETATM    2  C   UNK N   1      29.529  17.956   7.939  0.00  0.00     0.078 A 
HETATM    3  C   UNK N   1      30.623  18.060   8.835  0.00  0.00     0.023 A 
HETATM    4  C   UNK N   1      31.926  17.745   8.468  0.00  0.00     0.032 A 
HETATM    5  C   UNK N   1      32.135  17.335   7.172  0.00  0.00     0.057 A 
HETATM    6  N   UNK N   1      31.132  17.222   6.291  0.00  0.00    -0.292 N 
HETATM    7  C   UNK N   1      31.715  16.852   5.135  0.00  0.00     0.190 A 
HETATM    8  N   UNK N   1      33.054  16.710   5.282  0.00  0.00    -0.359 N 
ATOM      9  HN  UNK N   1      33.723  16.428   4.566  1.00  0.00     0.166 HD
HETATM   10  C   UNK N   1      33.324  17.016   6.569  0.00  0.00     0.119 A 
ENDROOT
BRANCH   1  11
HETATM   11  N   UNK N   1      28.779  17.394   5.627  0.00  0.00    -0.339 N 
HETATM   12  H   UNK N   1      28.867  18.031   4.883  0.00  0.00     0.167 HD
BRANCH  11  13
HETATM   13  C   UNK N   1      27.634  16.542   5.532  0.00  0.00     0.072 A 
HETATM   14  C   UNK N   1      26.330  17.038   5.376  0.00  0.00     0.034 A 
HETATM   15  C   UNK N   1      25.240  16.166   5.296  0.00  0.00     0.020 A 
HETATM   16  C   UNK N   1      25.445  14.786   5.344  0.00  0.00     0.009 A 
HETATM   17  C   UNK N   1      26.741  14.280   5.454  0.00  0.00     0.062 A 
HETATM   18  I   UNK N   1      23.807  13.469   5.259  0.00  0.00    -0.044 I 
HETATM   19  C   UNK N   1      27.830  15.151   5.543  0.00  0.00     0.144 A 
HETATM   20  F   UNK N   1      29.082  14.640   5.646  0.00  0.00    -0.204 F 
ENDBRANCH  11  13
ENDBRANCH   1  11
BRANCH   2  21
HETATM   21  C   UNK N   1      28.197  18.387   8.546  0.00  0.00     0.279 C 
HETATM   22  O   UNK N   1      27.811  17.754   9.519  0.00  0.00    -0.265 OA
HETATM   23  N   UNK N   1      27.384  19.395   8.128  0.00  0.00    -0.231 N 
HETATM   24  H   UNK N   1      26.578  19.570   8.666  0.00  0.00     0.197 HD
BRANCH  23  25
HETATM   25  O   UNK N   1      27.575  20.171   7.059  0.00  0.00    -0.275 OA
BRANCH  25  26
HETATM   26  C   UNK N   1      26.317  20.719   6.787  0.00  0.00     0.227 C 
BRANCH  26  27
HETATM   27  C   UNK N   1      25.950  21.765   7.829  0.00  0.00     0.192 C 
BRANCH  27  28
HETATM   28  O   UNK N   1      25.079  21.221   8.772  0.00  0.00    -0.399 OA
HETATM   29  H   UNK N   1      24.171  21.412   9.054  0.00  0.00     0.209 HD
ENDBRANCH  27  28
ENDBRANCH  26  27
ENDBRANCH  25  26
ENDBRANCH  23  25
ENDBRANCH   2  21
TORSDOF 7
ENDMDL
MODEL 7
REMARK VINA RESULT:      -6.3      5.271      8.290
REMARK  7 active torsions:
REMARK  status: ('A' for Active; 'I' for Inactive)
REMARK    1  A    between atoms: C_3  and  N_9 
REMARK    2  A    between atoms: N_9  and  C_10 
REMARK    3  A    between atoms: C_11  and  C_20 
REMARK       I    between atoms: C_20  and  N_22 
REMARK    4  A    between atoms: N_22  and  O_23 
REMARK    5  A    between atoms: O_23  and  C_24 
REMARK    6  A    between atoms: C_24  and  C_25 
REMARK    7  A    between atoms: C_25  and  O_26 
ROOT
HETATM    1  C   UNK N   1      31.740  17.077   7.999  0.00  0.00     0.129 A 
HETATM    2  C   UNK N   1      32.182  17.034   6.624  0.00  0.00     0.078 A 
HETATM    3  C   UNK N   1      31.181  17.099   5.623  0.00  0.00     0.023 A 
HETATM    4  C   UNK N   1      29.828  17.211   5.921  0.00  0.00     0.032 A 
HETATM    5  C   UNK N   1      29.478  17.275   7.249  0.00  0.00     0.057 A 
HETATM    6  N   UNK N   1      30.389  17.216   8.229  0.00  0.00    -0.292 N 
HETATM    7  C   UNK N   1      29.691  17.358   9.372  0.00  0.00     0.190 A 
HETATM    8  N   UNK N   1      28.365  17.480   9.126  0.00  0.00    -0.359 N 
ATOM      9  HN  UNK N   1      27.621  17.588   9.816  1.00  0.00     0.166 HD
HETATM   10  C   UNK N   1      28.225  17.429   7.784  0.00  0.00     0.119 A 
ENDROOT
BRANCH   1  11
HETATM   11  N   UNK N   1      32.686  17.054   9.067  0.00  0.00    -0.339 N 
HETATM   12  H   UNK N   1      32.681  17.865   9.625  0.00  0.00     0.167 HD
BRANCH  11  13
HETATM   13  C   UNK N   1      33.640  16.072   9.478  0.00  0.00     0.072 A 
HETATM   14  C   UNK N   1      33.326  14.709   9.591  0.00  0.00     0.034 A 
HETATM   15  C   UNK N   1      34.290  13.786  10.005  0.00  0.00     0.020 A 
HETATM   16  C   UNK N   1      35.589  14.212  10.286  0.00  0.00     0.009 A 
HETATM   17  C   UNK N   1      35.926  15.557  10.135  0.00  0.00     0.062 A 
HETATM   18  I   UNK N   1      37.037  12.834  10.944  0.00  0.00    -0.044 I 
HETATM   19  C   UNK N   1      34.960  16.482   9.729  0.00  0.00     0.144 A 
HETATM   20  F   UNK N   1      35.308  17.785   9.585  0.00  0.00    -0.204 F 
ENDBRANCH  11  13
ENDBRANCH   1  11
BRANCH   2  21
HETATM   21  C   UNK N   1      33.601  16.950   6.068  0.00  0.00     0.279 C 
HETATM   22  O   UNK N   1      34.283  17.961   6.159  0.00  0.00    -0.265 OA
HETATM   23  N   UNK N   1      34.197  15.878   5.479  0.00  0.00    -0.231 N 
HETATM   24  H   UNK N   1      35.141  15.981   5.217  0.00  0.00     0.197 HD
BRANCH  23  25
HETATM   25  O   UNK N   1      33.626  14.700   5.222  0.00  0.00    -0.275 OA
BRANCH  25  26
HETATM   26  C   UNK N   1      33.983  14.411   3.900  0.00  0.00     0.227 C 
BRANCH  26  27
HETATM   27  C   UNK N   1      32.935  14.943   2.933  0.00  0.00     0.192 C 
BRANCH  27  28
HETATM   28  O   UNK N   1      33.280  16.226   2.508  0.00  0.00    -0.399 OA
HETATM   29  H   UNK N   1      33.133  16.739   1.698  0.00  0.00     0.209 HD
ENDBRANCH  27  28
ENDBRANCH  26  27
ENDBRANCH  25  26
ENDBRANCH  23  25
ENDBRANCH   2  21
TORSDOF 7
ENDMDL
MODEL 8
REMARK VINA RESULT:      -6.3      2.537      2.912
REMARK  7 active torsions:
REMARK  status: ('A' for Active; 'I' for Inactive)
REMARK    1  A    between atoms: C_3  and  N_9 
REMARK    2  A    between atoms: N_9  and  C_10 
REMARK    3  A    between atoms: C_11  and  C_20 
REMARK       I    between atoms: C_20  and  N_22 
REMARK    4  A    between atoms: N_22  and  O_23 
REMARK    5  A    between atoms: O_23  and  C_24 
REMARK    6  A    between atoms: C_24  and  C_25 
REMARK    7  A    between atoms: C_25  and  O_26 
ROOT
HETATM    1  C   UNK N   1      29.904  17.409   5.013  0.00  0.00     0.129 A 
HETATM    2  C   UNK N   1      29.435  17.434   6.379  0.00  0.00     0.078 A 
HETATM    3  C   UNK N   1      30.407  17.263   7.397  0.00  0.00     0.023 A 
HETATM    4  C   UNK N   1      31.758  17.088   7.123  0.00  0.00     0.032 A 
HETATM    5  C   UNK N   1      32.141  17.103   5.803  0.00  0.00     0.057 A 
HETATM    6  N   UNK N   1      31.258  17.260   4.807  0.00  0.00    -0.292 N 
HETATM    7  C   UNK N   1      31.993  17.271   3.679  0.00  0.00     0.190 A 
HETATM    8  N   UNK N   1      33.309  17.101   3.948  0.00  0.00    -0.359 N 
ATOM      9  HN  UNK N   1      34.073  17.060   3.273  1.00  0.00     0.166 HD
HETATM   10  C   UNK N   1      33.407  16.995   5.290  0.00  0.00     0.119 A 
ENDROOT
BRANCH   1  11
HETATM   11  N   UNK N   1      28.996  17.611   3.930  0.00  0.00    -0.339 N 
HETATM   12  H   UNK N   1      29.123  18.463   3.454  0.00  0.00     0.167 HD
BRANCH  11  13
HETATM   13  C   UNK N   1      27.938  16.805   3.407  0.00  0.00     0.072 A 
HETATM   14  C   UNK N   1      26.582  17.119   3.593  0.00  0.00     0.034 A 
HETATM   15  C   UNK N   1      25.581  16.295   3.070  0.00  0.00     0.020 A 
HETATM   16  C   UNK N   1      25.925  15.162   2.332  0.00  0.00     0.009 A 
HETATM   17  C   UNK N   1      27.268  14.863   2.102  0.00  0.00     0.062 A 
HETATM   18  I   UNK N   1      24.424  13.898   1.571  0.00  0.00    -0.044 I 
HETATM   19  C   UNK N   1      28.270  15.682   2.631  0.00  0.00     0.144 A 
HETATM   20  F   UNK N   1      29.570  15.377   2.395  0.00  0.00    -0.204 F 
ENDBRANCH  11  13
ENDBRANCH   1  11
BRANCH   2  21
HETATM   21  C   UNK N   1      28.021  17.645   6.911  0.00  0.00     0.279 C 
HETATM   22  O   UNK N   1      27.380  16.636   7.173  0.00  0.00    -0.265 OA
HETATM   23  N   UNK N   1      27.385  18.829   7.127  0.00  0.00    -0.231 N 
HETATM   24  H   UNK N   1      26.483  18.786   7.521  0.00  0.00     0.197 HD
BRANCH  23  25
HETATM   25  O   UNK N   1      27.867  20.044   6.856  0.00  0.00    -0.275 OA
BRANCH  25  26
HETATM   26  C   UNK N   1      26.792  20.735   6.288  0.00  0.00     0.227 C 
BRANCH  26  27
HETATM   27  C   UNK N   1      26.851  20.666   4.769  0.00  0.00     0.192 C 
BRANCH  27  28
HETATM   28  O   UNK N   1      28.114  20.242   4.356  0.00  0.00    -0.399 OA
HETATM   29  H   UNK N   1      28.456  19.765   3.583  0.00  0.00     0.209 HD
ENDBRANCH  27  28
ENDBRANCH  26  27
ENDBRANCH  25  26
ENDBRANCH  23  25
ENDBRANCH   2  21
TORSDOF 7
ENDMDL
MODEL 9
REMARK VINA RESULT:      -6.3      3.433      5.686
REMARK  7 active torsions:
REMARK  status: ('A' for Active; 'I' for Inactive)
REMARK    1  A    between atoms: C_3  and  N_9 
REMARK    2  A    between atoms: N_9  and  C_10 
REMARK    3  A    between atoms: C_11  and  C_20 
REMARK       I    between atoms: C_20  and  N_22 
REMARK    4  A    between atoms: N_22  and  O_23 
REMARK    5  A    between atoms: O_23  and  C_24 
REMARK    6  A    between atoms: C_24  and  C_25 
REMARK    7  A    between atoms: C_25  and  O_26 
ROOT
HETATM    1  C   UNK N   1      28.697  16.858   3.397  0.00  0.00     0.129 A 
HETATM    2  C   UNK N   1      27.608  17.661   3.903  0.00  0.00     0.078 A 
HETATM    3  C   UNK N   1      26.301  17.124   3.783  0.00  0.00     0.023 A 
HETATM    4  C   UNK N   1      26.052  15.879   3.218  0.00  0.00     0.032 A 
HETATM    5  C   UNK N   1      27.136  15.154   2.782  0.00  0.00     0.057 A 
HETATM    6  N   UNK N   1      28.388  15.622   2.875  0.00  0.00    -0.292 N 
HETATM    7  C   UNK N   1      29.172  14.634   2.403  0.00  0.00     0.190 A 
HETATM    8  N   UNK N   1      28.435  13.572   1.998  0.00  0.00    -0.359 N 
ATOM      9  HN  UNK N   1      28.783  12.703   1.593  1.00  0.00     0.166 HD
HETATM   10  C   UNK N   1      27.147  13.897   2.236  0.00  0.00     0.119 A 
ENDROOT
BRANCH   1  11
HETATM   11  N   UNK N   1      30.047  17.309   3.514  0.00  0.00    -0.339 N 
HETATM   12  H   UNK N   1      30.419  17.682   2.683  0.00  0.00     0.167 HD
BRANCH  11  13
HETATM   13  C   UNK N   1      30.958  17.320   4.615  0.00  0.00     0.072 A 
HETATM   14  C   UNK N   1      30.549  17.111   5.941  0.00  0.00     0.034 A 
HETATM   15  C   UNK N   1      31.476  17.139   6.987  0.00  0.00     0.020 A 
HETATM   16  C   UNK N   1      32.828  17.351   6.715  0.00  0.00     0.009 A 
HETATM   17  C   UNK N   1      33.255  17.516   5.397  0.00  0.00     0.062 A 
HETATM   18  I   UNK N   1      34.225  17.430   8.287  0.00  0.00    -0.044 I 
HETATM   19  C   UNK N   1      32.327  17.496   4.352  0.00  0.00     0.144 A 
HETATM   20  F   UNK N   1      32.761  17.655   3.077  0.00  0.00    -0.204 F 
ENDBRANCH  11  13
ENDBRANCH   1  11
BRANCH   2  21
HETATM   21  C   UNK N   1      27.649  19.025   4.586  0.00  0.00     0.279 C 
HETATM   22  O   UNK N   1      27.694  20.002   3.851  0.00  0.00    -0.265 OA
HETATM   23  N   UNK N   1      27.643  19.283   5.922  0.00  0.00    -0.231 N 
HETATM   24  H   UNK N   1      27.626  20.229   6.194  0.00  0.00     0.197 HD
BRANCH  23  25
HETATM   25  O   UNK N   1      27.658  18.375   6.900  0.00  0.00    -0.275 OA
BRANCH  25  26
HETATM   26  C   UNK N   1      28.164  19.057   8.012  0.00  0.00     0.227 C 
BRANCH  26  27
HETATM   27  C   UNK N   1      28.412  18.095   9.165  0.00  0.00     0.192 C 
BRANCH  27  28
HETATM   28  O   UNK N   1      27.374  17.167   9.248  0.00  0.00    -0.399 OA
HETATM   29  H   UNK N   1      26.523  17.051   8.797  0.00  0.00     0.209 HD
ENDBRANCH  27  28
ENDBRANCH  26  27
ENDBRANCH  25  26
ENDBRANCH  23  25
ENDBRANCH   2  21
TORSDOF 7
ENDMDL
