MODEL 1
REMARK VINA RESULT:      -8.7      0.000      0.000
REMARK  7 active torsions:
REMARK  status: ('A' for Active; 'I' for Inactive)
REMARK    1  A    between atoms: C_20  and  C_14 
REMARK    2  A    between atoms: S_33  and  C_14 
REMARK    3  A    between atoms: N_27  and  C_18 
REMARK    4  A    between atoms: S_33  and  C_19 
REMARK    5  A    between atoms: C_21  and  C_20 
REMARK    6  A    between atoms: C_20  and  O_28 
REMARK       I    between atoms: N_26  and  C_21 
REMARK    7  A    between atoms: O_30  and  C_22 
ROOT
HETATM    1  C   UNK N   1      35.239  15.960  10.410  0.00  0.00     0.224 C 
ENDROOT
BRANCH   1   2
HETATM    2  C   UNK N   1      34.475  14.916  11.211  0.00  0.00     0.187 C 
BRANCH   2   3
HETATM    3  S   UNK N   1      35.487  14.155  12.487  0.00  0.00     0.178 S 
HETATM    4  O   UNK N   1      36.275  15.255  13.220  0.00  0.00    -0.223 OA
HETATM    5  O   UNK N   1      36.672  13.511  11.754  0.00  0.00    -0.223 OA
BRANCH   3   6
HETATM    6  C   UNK N   1      34.974  12.955  13.675  0.00  0.00     0.060 A 
HETATM    7  C   UNK N   1      34.598  11.684  13.239  0.00  0.00     0.024 A 
HETATM    8  C   UNK N   1      34.445  10.650  14.161  0.00  0.00     0.014 A 
HETATM    9  C   UNK N   1      34.697  10.889  15.512  0.00  0.00    -0.024 A 
HETATM   10  C   UNK N   1      34.712   9.828  16.415  0.00  0.00     0.036 A 
HETATM   11  C   UNK N   1      35.019  12.192  15.956  0.00  0.00    -0.024 A 
HETATM   12  C   UNK N   1      35.048  10.058  17.751  0.00  0.00     0.034 A 
HETATM   13  C   UNK N   1      35.320  11.356  18.199  0.00  0.00     0.024 A 
HETATM   14 Cl   UNK N   1      35.224   8.705  18.841  0.00  0.00    -0.084 Cl
HETATM   15  C   UNK N   1      35.298  12.426  17.302  0.00  0.00     0.014 A 
HETATM   16  C   UNK N   1      35.153  13.221  15.033  0.00  0.00     0.035 A 
ENDBRANCH   3   6
ENDBRANCH   2   3
ENDBRANCH   1   2
BRANCH   1  17
HETATM   17  C   UNK N   1      35.157  15.549   8.969  0.00  0.00     0.249 C 
HETATM   18  N   UNK N   1      34.894  16.469   7.992  0.00  0.00    -0.350 N 
HETATM   19  C   UNK N   1      34.633  17.864   8.312  0.00  0.00     0.128 C 
HETATM   20  C   UNK N   1      34.633  16.044   6.634  0.00  0.00     0.128 C 
HETATM   21  C   UNK N   1      33.159  18.191   8.035  0.00  0.00     0.045 C 
HETATM   22  C   UNK N   1      32.432  16.949   7.501  0.00  0.00     0.090 C 
HETATM   23  C   UNK N   1      33.179  16.401   6.264  0.00  0.00     0.045 C 
HETATM   24  O   UNK N   1      35.294  14.368   8.682  0.00  0.00    -0.270 OA
BRANCH  22  25
HETATM   25  N   UNK N   1      31.011  17.173   7.324  0.00  0.00    -0.343 N 
HETATM   26  C   UNK N   1      30.447  17.290   5.994  0.00  0.00     0.128 C 
HETATM   27  C   UNK N   1      29.043  16.710   5.960  0.00  0.00     0.039 C 
HETATM   28  C   UNK N   1      28.228  17.381   7.057  0.00  0.00     0.125 C 
HETATM   29  N   UNK N   1      28.874  17.246   8.345  0.00  0.00    -0.356 N 
HETATM   30  C   UNK N   1      30.159  17.159   8.479  0.00  0.00     0.215 C 
ATOM     31  HN  UNK N   1      28.293  17.220   9.183  1.00  0.00     0.163 HD
BRANCH  30  32
HETATM   32  O   UNK N   1      30.682  17.017   9.710  0.00  0.00    -0.333 OA
HETATM   33  H   UNK N   1      30.923  16.168  10.024  0.00  0.00     0.220 HD
ENDBRANCH  30  32
ENDBRANCH  22  25
ENDBRANCH   1  17
BRANCH   1  34
HETATM   34  O   UNK N   1      36.589  16.037  10.776  0.00  0.00    -0.385 OA
HETATM   35  H   UNK N   1      36.905  15.582  11.572  0.00  0.00     0.210 HD
ENDBRANCH   1  34
TORSDOF 7
ENDMDL
MODEL 2
REMARK VINA RESULT:      -8.5      8.307     11.334
REMARK  7 active torsions:
REMARK  status: ('A' for Active; 'I' for Inactive)
REMARK    1  A    between atoms: C_20  and  C_14 
REMARK    2  A    between atoms: S_33  and  C_14 
REMARK    3  A    between atoms: N_27  and  C_18 
REMARK    4  A    between atoms: S_33  and  C_19 
REMARK    5  A    between atoms: C_21  and  C_20 
REMARK    6  A    between atoms: C_20  and  O_28 
REMARK       I    between atoms: N_26  and  C_21 
REMARK    7  A    between atoms: O_30  and  C_22 
ROOT
HETATM    1  C   UNK N   1      23.974  17.475   4.017  0.00  0.00     0.224 C 
ENDROOT
BRANCH   1   2
HETATM    2  C   UNK N   1      23.994  17.048   5.477  0.00  0.00     0.187 C 
BRANCH   2   3
HETATM    3  S   UNK N   1      23.024  15.564   5.773  0.00  0.00     0.178 S 
HETATM    4  O   UNK N   1      22.862  14.803   4.446  0.00  0.00    -0.223 OA
HETATM    5  O   UNK N   1      21.570  16.036   5.916  0.00  0.00    -0.223 OA
BRANCH   3   6
HETATM    6  C   UNK N   1      23.254  14.384   7.066  0.00  0.00     0.060 A 
HETATM    7  C   UNK N   1      24.551  14.029   7.440  0.00  0.00     0.024 A 
HETATM    8  C   UNK N   1      24.763  13.313   8.616  0.00  0.00     0.014 A 
HETATM    9  C   UNK N   1      23.677  12.980   9.425  0.00  0.00    -0.024 A 
HETATM   10  C   UNK N   1      23.891  12.415  10.680  0.00  0.00     0.036 A 
HETATM   11  C   UNK N   1      22.360  13.290   9.011  0.00  0.00    -0.024 A 
HETATM   12  C   UNK N   1      22.807  12.161  11.522  0.00  0.00     0.034 A 
HETATM   13  C   UNK N   1      21.501  12.424  11.094  0.00  0.00     0.024 A 
HETATM   14 Cl   UNK N   1      23.092  11.606  13.154  0.00  0.00    -0.084 Cl
HETATM   15  C   UNK N   1      21.276  12.982   9.833  0.00  0.00     0.014 A 
HETATM   16  C   UNK N   1      22.156  13.990   7.830  0.00  0.00     0.035 A 
ENDBRANCH   3   6
ENDBRANCH   2   3
ENDBRANCH   1   2
BRANCH   1  17
HETATM   17  C   UNK N   1      24.871  18.672   3.901  0.00  0.00     0.249 C 
HETATM   18  N   UNK N   1      26.216  18.523   3.696  0.00  0.00    -0.350 N 
HETATM   19  C   UNK N   1      26.832  17.207   3.634  0.00  0.00     0.128 C 
HETATM   20  C   UNK N   1      27.101  19.664   3.770  0.00  0.00     0.128 C 
HETATM   21  C   UNK N   1      27.712  16.989   4.874  0.00  0.00     0.045 C 
HETATM   22  C   UNK N   1      27.668  18.229   5.777  0.00  0.00     0.090 C 
HETATM   23  C   UNK N   1      28.061  19.481   4.963  0.00  0.00     0.045 C 
HETATM   24  O   UNK N   1      24.388  19.788   4.029  0.00  0.00    -0.270 OA
BRANCH  22  25
HETATM   25  N   UNK N   1      28.397  18.036   7.016  0.00  0.00    -0.343 N 
HETATM   26  C   UNK N   1      29.510  17.110   7.075  0.00  0.00     0.128 C 
HETATM   27  C   UNK N   1      30.568  17.613   8.042  0.00  0.00     0.039 C 
HETATM   28  C   UNK N   1      29.895  17.884   9.380  0.00  0.00     0.125 C 
HETATM   29  N   UNK N   1      28.776  18.791   9.230  0.00  0.00    -0.356 N 
HETATM   30  C   UNK N   1      28.073  18.861   8.145  0.00  0.00     0.215 C 
ATOM     31  HN  UNK N   1      28.532  19.399  10.011  1.00  0.00     0.163 HD
BRANCH  30  32
HETATM   32  O   UNK N   1      27.061  19.744   8.076  0.00  0.00    -0.333 OA
HETATM   33  H   UNK N   1      26.802  20.100   7.250  0.00  0.00     0.220 HD
ENDBRANCH  30  32
ENDBRANCH  22  25
ENDBRANCH   1  17
BRANCH   1  34
HETATM   34  O   UNK N   1      22.692  17.834   3.580  0.00  0.00    -0.385 OA
HETATM   35  H   UNK N   1      22.291  17.382   2.821  0.00  0.00     0.210 HD
ENDBRANCH   1  34
TORSDOF 7
ENDMDL
MODEL 3
REMARK VINA RESULT:      -8.3      4.733      9.695
REMARK  7 active torsions:
REMARK  status: ('A' for Active; 'I' for Inactive)
REMARK    1  A    between atoms: C_20  and  C_14 
REMARK    2  A    between atoms: S_33  and  C_14 
REMARK    3  A    between atoms: N_27  and  C_18 
REMARK    4  A    between atoms: S_33  and  C_19 
REMARK    5  A    between atoms: C_21  and  C_20 
REMARK    6  A    between atoms: C_20  and  O_28 
REMARK       I    between atoms: N_26  and  C_21 
REMARK    7  A    between atoms: O_30  and  C_22 
ROOT
HETATM    1  C   UNK N   1      36.396  13.406  10.170  0.00  0.00     0.224 C 
ENDROOT
BRANCH   1   2
HETATM    2  C   UNK N   1      36.616  14.858  10.565  0.00  0.00     0.187 C 
BRANCH   2   3
HETATM    3  S   UNK N   1      35.096  15.817  10.531  0.00  0.00     0.178 S 
HETATM    4  O   UNK N   1      35.221  16.985  11.524  0.00  0.00    -0.223 OA
HETATM    5  O   UNK N   1      34.063  14.994  11.314  0.00  0.00    -0.223 OA
BRANCH   3   6
HETATM    6  C   UNK N   1      34.235  16.394   9.101  0.00  0.00     0.060 A 
HETATM    7  C   UNK N   1      34.446  17.701   8.661  0.00  0.00     0.024 A 
HETATM    8  C   UNK N   1      33.993  18.093   7.404  0.00  0.00     0.014 A 
HETATM    9  C   UNK N   1      33.354  17.165   6.582  0.00  0.00    -0.024 A 
HETATM   10  C   UNK N   1      33.048  17.496   5.264  0.00  0.00     0.036 A 
HETATM   11  C   UNK N   1      33.089  15.858   7.056  0.00  0.00    -0.024 A 
HETATM   12  C   UNK N   1      32.485  16.537   4.419  0.00  0.00     0.034 A 
HETATM   13  C   UNK N   1      32.180  15.260   4.902  0.00  0.00     0.024 A 
HETATM   14 Cl   UNK N   1      32.255  16.906   2.727  0.00  0.00    -0.084 Cl
HETATM   15  C   UNK N   1      32.475  14.921   6.225  0.00  0.00     0.014 A 
HETATM   16  C   UNK N   1      33.530  15.481   8.317  0.00  0.00     0.035 A 
ENDBRANCH   3   6
ENDBRANCH   2   3
ENDBRANCH   1   2
BRANCH   1  17
HETATM   17  C   UNK N   1      37.279  12.576  11.054  0.00  0.00     0.249 C 
HETATM   18  N   UNK N   1      36.741  11.719  11.975  0.00  0.00    -0.350 N 
HETATM   19  C   UNK N   1      35.303  11.617  12.168  0.00  0.00     0.128 C 
HETATM   20  C   UNK N   1      37.586  11.062  12.949  0.00  0.00     0.128 C 
HETATM   21  C   UNK N   1      34.921  12.204  13.535  0.00  0.00     0.045 C 
HETATM   22  C   UNK N   1      36.177  12.703  14.265  0.00  0.00     0.090 C 
HETATM   23  C   UNK N   1      37.212  11.560  14.359  0.00  0.00     0.045 C 
HETATM   24  O   UNK N   1      38.492  12.702  10.966  0.00  0.00    -0.270 OA
BRANCH  22  25
HETATM   25  N   UNK N   1      35.861  13.365  15.516  0.00  0.00    -0.343 N 
HETATM   26  C   UNK N   1      34.783  12.878  16.352  0.00  0.00     0.128 C 
HETATM   27  C   UNK N   1      35.113  13.088  17.820  0.00  0.00     0.039 C 
HETATM   28  C   UNK N   1      35.459  14.557  18.021  0.00  0.00     0.125 C 
HETATM   29  N   UNK N   1      36.521  14.971  17.128  0.00  0.00    -0.356 N 
HETATM   30  C   UNK N   1      36.709  14.432  15.966  0.00  0.00     0.215 C 
ATOM     31  HN  UNK N   1      37.147  15.718  17.427  1.00  0.00     0.163 HD
BRANCH  30  32
HETATM   32  O   UNK N   1      37.730  14.860  15.203  0.00  0.00    -0.333 OA
HETATM   33  H   UNK N   1      38.591  14.513  15.330  0.00  0.00     0.220 HD
ENDBRANCH  30  32
ENDBRANCH  22  25
ENDBRANCH   1  17
BRANCH   1  34
HETATM   34  O   UNK N   1      36.739  13.155   8.835  0.00  0.00    -0.385 OA
HETATM   35  H   UNK N   1      37.664  13.222   8.548  0.00  0.00     0.210 HD
ENDBRANCH   1  34
TORSDOF 7
ENDMDL
MODEL 4
REMARK VINA RESULT:      -8.2      4.653      9.008
REMARK  7 active torsions:
REMARK  status: ('A' for Active; 'I' for Inactive)
REMARK    1  A    between atoms: C_20  and  C_14 
REMARK    2  A    between atoms: S_33  and  C_14 
REMARK    3  A    between atoms: N_27  and  C_18 
REMARK    4  A    between atoms: S_33  and  C_19 
REMARK    5  A    between atoms: C_21  and  C_20 
REMARK    6  A    between atoms: C_20  and  O_28 
REMARK       I    between atoms: N_26  and  C_21 
REMARK    7  A    between atoms: O_30  and  C_22 
ROOT
HETATM    1  C   UNK N   1      35.933  14.011  12.469  0.00  0.00     0.224 C 
ENDROOT
BRANCH   1   2
HETATM    2  C   UNK N   1      34.761  14.480  11.620  0.00  0.00     0.187 C 
BRANCH   2   3
HETATM    3  S   UNK N   1      35.192  15.868  10.561  0.00  0.00     0.178 S 
HETATM    4  O   UNK N   1      36.692  15.794  10.230  0.00  0.00    -0.223 OA
HETATM    5  O   UNK N   1      35.247  17.096  11.481  0.00  0.00    -0.223 OA
BRANCH   3   6
HETATM    6  C   UNK N   1      34.331  16.412   9.119  0.00  0.00     0.060 A 
HETATM    7  C   UNK N   1      34.487  17.731   8.691  0.00  0.00     0.024 A 
HETATM    8  C   UNK N   1      34.038  18.109   7.428  0.00  0.00     0.014 A 
HETATM    9  C   UNK N   1      33.460  17.157   6.588  0.00  0.00    -0.024 A 
HETATM   10  C   UNK N   1      33.163  17.482   5.267  0.00  0.00     0.036 A 
HETATM   11  C   UNK N   1      33.249  15.836   7.050  0.00  0.00    -0.024 A 
HETATM   12  C   UNK N   1      32.662  16.503   4.406  0.00  0.00     0.034 A 
HETATM   13  C   UNK N   1      32.410  15.209   4.876  0.00  0.00     0.024 A 
HETATM   14 Cl   UNK N   1      32.445  16.872   2.713  0.00  0.00    -0.084 Cl
HETATM   15  C   UNK N   1      32.697  14.877   6.202  0.00  0.00     0.014 A 
HETATM   16  C   UNK N   1      33.685  15.472   8.317  0.00  0.00     0.035 A 
ENDBRANCH   3   6
ENDBRANCH   2   3
ENDBRANCH   1   2
BRANCH   1  17
HETATM   17  C   UNK N   1      35.420  12.906  13.345  0.00  0.00     0.249 C 
HETATM   18  N   UNK N   1      35.778  11.606  13.113  0.00  0.00    -0.350 N 
HETATM   19  C   UNK N   1      36.621  11.240  11.986  0.00  0.00     0.128 C 
HETATM   20  C   UNK N   1      35.140  10.528  13.838  0.00  0.00     0.128 C 
HETATM   21  C   UNK N   1      35.795  10.458  10.954  0.00  0.00     0.045 C 
HETATM   22  C   UNK N   1      34.348  10.304  11.443  0.00  0.00     0.090 C 
HETATM   23  C   UNK N   1      34.339   9.660  12.847  0.00  0.00     0.045 C 
HETATM   24  O   UNK N   1      34.646  13.179  14.251  0.00  0.00    -0.270 OA
BRANCH  22  25
HETATM   25  N   UNK N   1      33.497   9.665  10.458  0.00  0.00    -0.343 N 
HETATM   26  C   UNK N   1      33.345   8.224  10.443  0.00  0.00     0.128 C 
HETATM   27  C   UNK N   1      31.942   7.843  10.003  0.00  0.00     0.039 C 
HETATM   28  C   UNK N   1      31.664   8.525   8.670  0.00  0.00     0.125 C 
HETATM   29  N   UNK N   1      31.869   9.955   8.761  0.00  0.00    -0.356 N 
HETATM   30  C   UNK N   1      32.719  10.490   9.577  0.00  0.00     0.215 C 
ATOM     31  HN  UNK N   1      31.320  10.567   8.157  1.00  0.00     0.163 HD
BRANCH  30  32
HETATM   32  O   UNK N   1      32.838  11.830   9.616  0.00  0.00    -0.333 OA
HETATM   33  H   UNK N   1      32.388  12.323  10.273  0.00  0.00     0.220 HD
ENDBRANCH  30  32
ENDBRANCH  22  25
ENDBRANCH   1  17
BRANCH   1  34
HETATM   34  O   UNK N   1      36.444  15.028  13.287  0.00  0.00    -0.385 OA
HETATM   35  H   UNK N   1      36.593  15.916  12.926  0.00  0.00     0.210 HD
ENDBRANCH   1  34
TORSDOF 7
ENDMDL
MODEL 5
REMARK VINA RESULT:      -8.2     12.124     15.242
REMARK  7 active torsions:
REMARK  status: ('A' for Active; 'I' for Inactive)
REMARK    1  A    between atoms: C_20  and  C_14 
REMARK    2  A    between atoms: S_33  and  C_14 
REMARK    3  A    between atoms: N_27  and  C_18 
REMARK    4  A    between atoms: S_33  and  C_19 
REMARK    5  A    between atoms: C_21  and  C_20 
REMARK    6  A    between atoms: C_20  and  O_28 
REMARK       I    between atoms: N_26  and  C_21 
REMARK    7  A    between atoms: O_30  and  C_22 
ROOT
HETATM    1  C   UNK N   1      19.844  17.998   2.125  0.00  0.00     0.224 C 
ENDROOT
BRANCH   1   2
HETATM    2  C   UNK N   1      20.780  19.102   1.657  0.00  0.00     0.187 C 
BRANCH   2   3
HETATM    3  S   UNK N   1      21.689  19.853   3.014  0.00  0.00     0.178 S 
HETATM    4  O   UNK N   1      20.699  20.225   4.131  0.00  0.00    -0.223 OA
HETATM    5  O   UNK N   1      22.023  21.280   2.555  0.00  0.00    -0.223 OA
BRANCH   3   6
HETATM    6  C   UNK N   1      23.170  19.252   3.762  0.00  0.00     0.060 A 
HETATM    7  C   UNK N   1      23.246  17.910   4.140  0.00  0.00     0.024 A 
HETATM    8  C   UNK N   1      24.476  17.354   4.483  0.00  0.00     0.014 A 
HETATM    9  C   UNK N   1      25.629  18.137   4.421  0.00  0.00    -0.024 A 
HETATM   10  C   UNK N   1      26.880  17.551   4.597  0.00  0.00     0.036 A 
HETATM   11  C   UNK N   1      25.538  19.511   4.096  0.00  0.00    -0.024 A 
HETATM   12  C   UNK N   1      28.035  18.321   4.450  0.00  0.00     0.034 A 
HETATM   13  C   UNK N   1      27.943  19.690   4.176  0.00  0.00     0.024 A 
HETATM   14 Cl   UNK N   1      29.600  17.548   4.512  0.00  0.00    -0.084 Cl
HETATM   15  C   UNK N   1      26.693  20.288   4.006  0.00  0.00     0.014 A 
HETATM   16  C   UNK N   1      24.306  20.062   3.770  0.00  0.00     0.035 A 
ENDBRANCH   3   6
ENDBRANCH   2   3
ENDBRANCH   1   2
BRANCH   1  17
HETATM   17  C   UNK N   1      20.034  16.840   1.190  0.00  0.00     0.249 C 
HETATM   18  N   UNK N   1      20.026  15.554   1.657  0.00  0.00    -0.350 N 
HETATM   19  C   UNK N   1      19.886  15.262   3.075  0.00  0.00     0.128 C 
HETATM   20  C   UNK N   1      20.393  14.456   0.790  0.00  0.00     0.128 C 
HETATM   21  C   UNK N   1      21.208  14.705   3.622  0.00  0.00     0.045 C 
HETATM   22  C   UNK N   1      22.253  14.626   2.500  0.00  0.00     0.090 C 
HETATM   23  C   UNK N   1      21.688  13.806   1.319  0.00  0.00     0.045 C 
HETATM   24  O   UNK N   1      20.234  17.063   0.005  0.00  0.00    -0.270 OA
BRANCH  22  25
HETATM   25  N   UNK N   1      23.554  14.207   2.985  0.00  0.00    -0.343 N 
HETATM   26  C   UNK N   1      23.684  13.574   4.282  0.00  0.00     0.128 C 
HETATM   27  C   UNK N   1      24.799  12.543   4.259  0.00  0.00     0.039 C 
HETATM   28  C   UNK N   1      26.063  13.225   3.755  0.00  0.00     0.125 C 
HETATM   29  N   UNK N   1      25.841  13.858   2.473  0.00  0.00    -0.356 N 
HETATM   30  C   UNK N   1      24.687  14.323   2.112  0.00  0.00     0.215 C 
ATOM     31  HN  UNK N   1      26.625  13.942   1.826  1.00  0.00     0.163 HD
BRANCH  30  32
HETATM   32  O   UNK N   1      24.557  14.880   0.895  0.00  0.00    -0.333 OA
HETATM   33  H   UNK N   1      23.707  14.999   0.520  0.00  0.00     0.220 HD
ENDBRANCH  30  32
ENDBRANCH  22  25
ENDBRANCH   1  17
BRANCH   1  34
HETATM   34  O   UNK N   1      18.497  18.384   2.089  0.00  0.00    -0.385 OA
HETATM   35  H   UNK N   1      17.803  17.720   1.958  0.00  0.00     0.210 HD
ENDBRANCH   1  34
TORSDOF 7
ENDMDL
MODEL 6
REMARK VINA RESULT:      -8.2      1.603      2.564
REMARK  7 active torsions:
REMARK  status: ('A' for Active; 'I' for Inactive)
REMARK    1  A    between atoms: C_20  and  C_14 
REMARK    2  A    between atoms: S_33  and  C_14 
REMARK    3  A    between atoms: N_27  and  C_18 
REMARK    4  A    between atoms: S_33  and  C_19 
REMARK    5  A    between atoms: C_21  and  C_20 
REMARK    6  A    between atoms: C_20  and  O_28 
REMARK       I    between atoms: N_26  and  C_21 
REMARK    7  A    between atoms: O_30  and  C_22 
ROOT
HETATM    1  C   UNK N   1      34.629  14.578   8.397  0.00  0.00     0.224 C 
ENDROOT
BRANCH   1   2
HETATM    2  C   UNK N   1      34.035  15.189   9.658  0.00  0.00     0.187 C 
BRANCH   2   3
HETATM    3  S   UNK N   1      35.256  15.401  10.959  0.00  0.00     0.178 S 
HETATM    4  O   UNK N   1      35.122  16.818  11.543  0.00  0.00    -0.223 OA
HETATM    5  O   UNK N   1      36.600  15.603  10.245  0.00  0.00    -0.223 OA
BRANCH   3   6
HETATM    6  C   UNK N   1      35.603  14.286  12.284  0.00  0.00     0.060 A 
HETATM    7  C   UNK N   1      36.358  14.733  13.369  0.00  0.00     0.024 A 
HETATM    8  C   UNK N   1      36.422  13.969  14.532  0.00  0.00     0.014 A 
HETATM    9  C   UNK N   1      35.706  12.775  14.612  0.00  0.00    -0.024 A 
HETATM   10  C   UNK N   1      35.627  12.090  15.823  0.00  0.00     0.036 A 
HETATM   11  C   UNK N   1      34.992  12.297  13.489  0.00  0.00    -0.024 A 
HETATM   12  C   UNK N   1      34.841  10.940  15.921  0.00  0.00     0.034 A 
HETATM   13  C   UNK N   1      34.172  10.442  14.797  0.00  0.00     0.024 A 
HETATM   14 Cl   UNK N   1      34.614  10.180  17.477  0.00  0.00    -0.084 Cl
HETATM   15  C   UNK N   1      34.254  11.117  13.576  0.00  0.00     0.014 A 
HETATM   16  C   UNK N   1      34.947  13.057  12.327  0.00  0.00     0.035 A 
ENDBRANCH   3   6
ENDBRANCH   2   3
ENDBRANCH   1   2
BRANCH   1  17
HETATM   17  C   UNK N   1      33.495  13.947   7.645  0.00  0.00     0.249 C 
HETATM   18  N   UNK N   1      33.010  14.519   6.500  0.00  0.00    -0.350 N 
HETATM   19  C   UNK N   1      33.536  15.779   5.999  0.00  0.00     0.128 C 
HETATM   20  C   UNK N   1      31.804  14.014   5.881  0.00  0.00     0.128 C 
HETATM   21  C   UNK N   1      32.478  16.881   6.158  0.00  0.00     0.045 C 
HETATM   22  C   UNK N   1      31.202  16.302   6.785  0.00  0.00     0.090 C 
HETATM   23  C   UNK N   1      30.710  15.100   5.949  0.00  0.00     0.045 C 
HETATM   24  O   UNK N   1      32.983  12.929   8.088  0.00  0.00    -0.270 OA
BRANCH  22  25
HETATM   25  N   UNK N   1      30.208  17.322   7.057  0.00  0.00    -0.343 N 
HETATM   26  C   UNK N   1      29.236  17.686   6.046  0.00  0.00     0.128 C 
HETATM   27  C   UNK N   1      27.913  18.059   6.693  0.00  0.00     0.039 C 
HETATM   28  C   UNK N   1      28.183  19.138   7.732  0.00  0.00     0.125 C 
HETATM   29  N   UNK N   1      29.186  18.709   8.684  0.00  0.00    -0.356 N 
HETATM   30  C   UNK N   1      30.130  17.877   8.378  0.00  0.00     0.215 C 
ATOM     31  HN  UNK N   1      29.148  19.076   9.634  1.00  0.00     0.163 HD
BRANCH  30  32
HETATM   32  O   UNK N   1      31.014  17.512   9.324  0.00  0.00    -0.333 OA
HETATM   33  H   UNK N   1      31.913  17.764   9.251  0.00  0.00     0.220 HD
ENDBRANCH  30  32
ENDBRANCH  22  25
ENDBRANCH   1  17
BRANCH   1  34
HETATM   34  O   UNK N   1      35.583  13.591   8.678  0.00  0.00    -0.385 OA
HETATM   35  H   UNK N   1      35.850  13.416   9.594  0.00  0.00     0.210 HD
ENDBRANCH   1  34
TORSDOF 7
ENDMDL
MODEL 7
REMARK VINA RESULT:      -8.1      4.479      9.991
REMARK  7 active torsions:
REMARK  status: ('A' for Active; 'I' for Inactive)
REMARK    1  A    between atoms: C_20  and  C_14 
REMARK    2  A    between atoms: S_33  and  C_14 
REMARK    3  A    between atoms: N_27  and  C_18 
REMARK    4  A    between atoms: S_33  and  C_19 
REMARK    5  A    between atoms: C_21  and  C_20 
REMARK    6  A    between atoms: C_20  and  O_28 
REMARK       I    between atoms: N_26  and  C_21 
REMARK    7  A    between atoms: O_30  and  C_22 
ROOT
HETATM    1  C   UNK N   1      34.829  15.009   9.372  0.00  0.00     0.224 C 
ENDROOT
BRANCH   1   2
HETATM    2  C   UNK N   1      34.920  16.525   9.461  0.00  0.00     0.187 C 
BRANCH   2   3
HETATM    3  S   UNK N   1      34.053  17.345   8.116  0.00  0.00     0.178 S 
HETATM    4  O   UNK N   1      34.796  17.061   6.799  0.00  0.00    -0.223 OA
HETATM    5  O   UNK N   1      34.410  18.833   8.233  0.00  0.00    -0.223 OA
BRANCH   3   6
HETATM    6  C   UNK N   1      32.318  17.311   7.793  0.00  0.00     0.060 A 
HETATM    7  C   UNK N   1      31.433  17.734   8.785  0.00  0.00     0.024 A 
HETATM    8  C   UNK N   1      30.096  17.967   8.471  0.00  0.00     0.014 A 
HETATM    9  C   UNK N   1      29.658  17.800   7.157  0.00  0.00    -0.024 A 
HETATM   10  C   UNK N   1      28.370  18.190   6.797  0.00  0.00     0.036 A 
HETATM   11  C   UNK N   1      30.545  17.314   6.168  0.00  0.00    -0.024 A 
HETATM   12  C   UNK N   1      27.964  18.101   5.465  0.00  0.00     0.034 A 
HETATM   13  C   UNK N   1      28.825  17.575   4.495  0.00  0.00     0.024 A 
HETATM   14 Cl   UNK N   1      26.409  18.741   4.992  0.00  0.00    -0.084 Cl
HETATM   15  C   UNK N   1      30.116  17.174   4.848  0.00  0.00     0.014 A 
HETATM   16  C   UNK N   1      31.873  17.069   6.493  0.00  0.00     0.035 A 
ENDBRANCH   3   6
ENDBRANCH   2   3
ENDBRANCH   1   2
BRANCH   1  17
HETATM   17  C   UNK N   1      36.153  14.467   9.826  0.00  0.00     0.249 C 
HETATM   18  N   UNK N   1      36.250  13.210  10.357  0.00  0.00    -0.350 N 
HETATM   19  C   UNK N   1      35.075  12.374  10.548  0.00  0.00     0.128 C 
HETATM   20  C   UNK N   1      37.485  12.761  10.961  0.00  0.00     0.128 C 
HETATM   21  C   UNK N   1      34.789  12.222  12.049  0.00  0.00     0.045 C 
HETATM   22  C   UNK N   1      35.836  12.990  12.868  0.00  0.00     0.090 C 
HETATM   23  C   UNK N   1      37.253  12.526  12.467  0.00  0.00     0.045 C 
HETATM   24  O   UNK N   1      37.143  15.180   9.748  0.00  0.00    -0.270 OA
BRANCH  22  25
HETATM   25  N   UNK N   1      35.550  12.968  14.290  0.00  0.00    -0.343 N 
HETATM   26  C   UNK N   1      34.676  11.955  14.846  0.00  0.00     0.128 C 
HETATM   27  C   UNK N   1      35.126  11.577  16.247  0.00  0.00     0.039 C 
HETATM   28  C   UNK N   1      35.225  12.853  17.072  0.00  0.00     0.125 C 
HETATM   29  N   UNK N   1      36.089  13.823  16.433  0.00  0.00    -0.356 N 
HETATM   30  C   UNK N   1      36.239  13.889  15.148  0.00  0.00     0.215 C 
ATOM     31  HN  UNK N   1      36.602  14.482  17.018  1.00  0.00     0.163 HD
BRANCH  30  32
HETATM   32  O   UNK N   1      37.076  14.807  14.632  0.00  0.00    -0.333 OA
HETATM   33  H   UNK N   1      37.792  15.130  15.141  0.00  0.00     0.220 HD
ENDBRANCH  30  32
ENDBRANCH  22  25
ENDBRANCH   1  17
BRANCH   1  34
HETATM   34  O   UNK N   1      34.587  14.561   8.067  0.00  0.00    -0.385 OA
HETATM   35  H   UNK N   1      33.707  14.661   7.672  0.00  0.00     0.210 HD
ENDBRANCH   1  34
TORSDOF 7
ENDMDL
MODEL 8
REMARK VINA RESULT:      -8.1      2.129      3.377
REMARK  7 active torsions:
REMARK  status: ('A' for Active; 'I' for Inactive)
REMARK    1  A    between atoms: C_20  and  C_14 
REMARK    2  A    between atoms: S_33  and  C_14 
REMARK    3  A    between atoms: N_27  and  C_18 
REMARK    4  A    between atoms: S_33  and  C_19 
REMARK    5  A    between atoms: C_21  and  C_20 
REMARK    6  A    between atoms: C_20  and  O_28 
REMARK       I    between atoms: N_26  and  C_21 
REMARK    7  A    between atoms: O_30  and  C_22 
ROOT
HETATM    1  C   UNK N   1      34.436  14.930  10.648  0.00  0.00     0.224 C 
ENDROOT
BRANCH   1   2
HETATM    2  C   UNK N   1      35.586  14.793  11.634  0.00  0.00     0.187 C 
BRANCH   2   3
HETATM    3  S   UNK N   1      35.796  13.105  12.214  0.00  0.00     0.178 S 
HETATM    4  O   UNK N   1      37.235  12.650  11.914  0.00  0.00    -0.223 OA
HETATM    5  O   UNK N   1      35.083  12.216  11.185  0.00  0.00    -0.223 OA
BRANCH   3   6
HETATM    6  C   UNK N   1      35.326  12.454  13.786  0.00  0.00     0.060 A 
HETATM    7  C   UNK N   1      35.218  11.072  13.946  0.00  0.00     0.024 A 
HETATM    8  C   UNK N   1      35.110  10.527  15.224  0.00  0.00     0.014 A 
HETATM    9  C   UNK N   1      35.137  11.368  16.337  0.00  0.00    -0.024 A 
HETATM   10  C   UNK N   1      35.200  10.825  17.618  0.00  0.00     0.036 A 
HETATM   11  C   UNK N   1      35.185  12.771  16.166  0.00  0.00    -0.024 A 
HETATM   12  C   UNK N   1      35.312  11.669  18.725  0.00  0.00     0.034 A 
HETATM   13  C   UNK N   1      35.313  13.058  18.559  0.00  0.00     0.024 A 
HETATM   14 Cl   UNK N   1      35.554  10.982  20.312  0.00  0.00    -0.084 Cl
HETATM   15  C   UNK N   1      35.241  13.611  17.278  0.00  0.00     0.014 A 
HETATM   16  C   UNK N   1      35.277  13.307  14.889  0.00  0.00     0.035 A 
ENDBRANCH   3   6
ENDBRANCH   2   3
ENDBRANCH   1   2
BRANCH   1  17
HETATM   17  C   UNK N   1      34.622  16.241   9.943  0.00  0.00     0.249 C 
HETATM   18  N   UNK N   1      33.639  16.747   9.135  0.00  0.00    -0.350 N 
HETATM   19  C   UNK N   1      32.407  16.016   8.890  0.00  0.00     0.128 C 
HETATM   20  C   UNK N   1      33.892  17.911   8.314  0.00  0.00     0.128 C 
HETATM   21  C   UNK N   1      32.375  15.529   7.434  0.00  0.00     0.045 C 
HETATM   22  C   UNK N   1      33.647  15.976   6.699  0.00  0.00     0.090 C 
HETATM   23  C   UNK N   1      33.812  17.506   6.828  0.00  0.00     0.045 C 
HETATM   24  O   UNK N   1      35.682  16.837  10.070  0.00  0.00    -0.270 OA
BRANCH  22  25
HETATM   25  N   UNK N   1      33.718  15.452   5.349  0.00  0.00    -0.343 N 
HETATM   26  C   UNK N   1      32.774  15.891   4.341  0.00  0.00     0.128 C 
HETATM   27  C   UNK N   1      33.437  15.929   2.975  0.00  0.00     0.039 C 
HETATM   28  C   UNK N   1      34.059  14.565   2.712  0.00  0.00     0.125 C 
HETATM   29  N   UNK N   1      34.962  14.187   3.778  0.00  0.00    -0.356 N 
HETATM   30  C   UNK N   1      34.808  14.584   5.001  0.00  0.00     0.215 C 
ATOM     31  HN  UNK N   1      35.753  13.583   3.557  1.00  0.00     0.163 HD
BRANCH  30  32
HETATM   32  O   UNK N   1      35.702  14.205   5.931  0.00  0.00    -0.333 OA
HETATM   33  H   UNK N   1      36.355  13.566   5.724  0.00  0.00     0.220 HD
ENDBRANCH  30  32
ENDBRANCH  22  25
ENDBRANCH   1  17
BRANCH   1  34
HETATM   34  O   UNK N   1      33.185  14.938  11.280  0.00  0.00    -0.385 OA
HETATM   35  H   UNK N   1      32.661  15.753  11.317  0.00  0.00     0.210 HD
ENDBRANCH   1  34
TORSDOF 7
ENDMDL
MODEL 9
REMARK VINA RESULT:      -8.0      4.646      9.709
REMARK  7 active torsions:
REMARK  status: ('A' for Active; 'I' for Inactive)
REMARK    1  A    between atoms: C_20  and  C_14 
REMARK    2  A    between atoms: S_33  and  C_14 
REMARK    3  A    between atoms: N_27  and  C_18 
REMARK    4  A    between atoms: S_33  and  C_19 
REMARK    5  A    between atoms: C_21  and  C_20 
REMARK    6  A    between atoms: C_20  and  O_28 
REMARK       I    between atoms: N_26  and  C_21 
REMARK    7  A    between atoms: O_30  and  C_22 
ROOT
HETATM    1  C   UNK N   1      35.065  14.794   6.968  0.00  0.00     0.224 C 
ENDROOT
BRANCH   1   2
HETATM    2  C   UNK N   1      34.929  15.772   8.126  0.00  0.00     0.187 C 
BRANCH   2   3
HETATM    3  S   UNK N   1      33.894  17.183   7.716  0.00  0.00     0.178 S 
HETATM    4  O   UNK N   1      34.531  17.943   6.541  0.00  0.00    -0.223 OA
HETATM    5  O   UNK N   1      34.163  18.231   8.806  0.00  0.00    -0.223 OA
BRANCH   3   6
HETATM    6  C   UNK N   1      32.142  17.188   7.497  0.00  0.00     0.060 A 
HETATM    7  C   UNK N   1      31.322  17.521   8.576  0.00  0.00     0.024 A 
HETATM    8  C   UNK N   1      29.972  17.788   8.365  0.00  0.00     0.014 A 
HETATM    9  C   UNK N   1      29.454  17.747   7.070  0.00  0.00    -0.024 A 
HETATM   10  C   UNK N   1      28.151  18.174   6.827  0.00  0.00     0.036 A 
HETATM   11  C   UNK N   1      30.275  17.349   5.989  0.00  0.00    -0.024 A 
HETATM   12  C   UNK N   1      27.665  18.211   5.518  0.00  0.00     0.034 A 
HETATM   13  C   UNK N   1      28.462  17.773   4.454  0.00  0.00     0.024 A 
HETATM   14 Cl   UNK N   1      26.092  18.900   5.201  0.00  0.00    -0.084 Cl
HETATM   15  C   UNK N   1      29.767  17.334   4.690  0.00  0.00     0.014 A 
HETATM   16  C   UNK N   1      31.618  17.070   6.210  0.00  0.00     0.035 A 
ENDBRANCH   3   6
ENDBRANCH   2   3
ENDBRANCH   1   2
BRANCH   1  17
HETATM   17  C   UNK N   1      36.220  13.894   7.292  0.00  0.00     0.249 C 
HETATM   18  N   UNK N   1      36.034  12.751   8.023  0.00  0.00    -0.350 N 
HETATM   19  C   UNK N   1      34.728  12.395   8.554  0.00  0.00     0.128 C 
HETATM   20  C   UNK N   1      37.169  11.986   8.491  0.00  0.00     0.128 C 
HETATM   21  C   UNK N   1      34.737  12.530  10.083  0.00  0.00     0.045 C 
HETATM   22  C   UNK N   1      36.120  12.989  10.565  0.00  0.00     0.090 C 
HETATM   23  C   UNK N   1      37.204  12.026  10.032  0.00  0.00     0.045 C 
HETATM   24  O   UNK N   1      37.341  14.213   6.924  0.00  0.00    -0.270 OA
BRANCH  22  25
HETATM   25  N   UNK N   1      36.153  13.237  11.994  0.00  0.00    -0.343 N 
HETATM   26  C   UNK N   1      36.039  12.138  12.931  0.00  0.00     0.128 C 
HETATM   27  C   UNK N   1      36.868  12.413  14.174  0.00  0.00     0.039 C 
HETATM   28  C   UNK N   1      36.451  13.767  14.730  0.00  0.00     0.125 C 
HETATM   29  N   UNK N   1      36.564  14.803  13.724  0.00  0.00    -0.356 N 
HETATM   30  C   UNK N   1      36.419  14.568  12.459  0.00  0.00     0.215 C 
ATOM     31  HN  UNK N   1      36.766  15.756  14.024  1.00  0.00     0.163 HD
BRANCH  30  32
HETATM   32  O   UNK N   1      36.558  15.581  11.585  0.00  0.00    -0.333 OA
HETATM   33  H   UNK N   1      37.332  15.649  11.062  0.00  0.00     0.220 HD
ENDBRANCH  30  32
ENDBRANCH  22  25
ENDBRANCH   1  17
BRANCH   1  34
HETATM   34  O   UNK N   1      35.328  15.437   5.751  0.00  0.00    -0.385 OA
HETATM   35  H   UNK N   1      34.602  15.826   5.238  0.00  0.00     0.210 HD
ENDBRANCH   1  34
TORSDOF 7
ENDMDL
