MODEL 1
REMARK VINA RESULT:      -8.6      0.000      0.000
REMARK  3 active torsions:
REMARK  status: ('A' for Active; 'I' for Inactive)
REMARK    1  A    between atoms: C_6  and  C_9 
REMARK    2  A    between atoms: C_10  and  C_18 
REMARK    3  A    between atoms: C_26  and  C_29 
REMARK       I    between atoms: C_29  and  N_31 
ROOT
HETATM    1  C   UNK N   1      23.601  18.785   4.116  0.00  0.00     0.088 A 
HETATM    2  C   UNK N   1      22.560  17.832   4.377  0.00  0.00     0.030 A 
HETATM    3  C   UNK N   1      21.457  18.401   3.719  0.00  0.00     0.042 A 
HETATM    4  N   UNK N   1      21.821  19.530   3.170  0.00  0.00    -0.295 N 
HETATM    5  N   UNK N   1      23.087  19.803   3.388  0.00  0.00    -0.295 N 
ATOM      6  HN  UNK N   1      23.590  20.630   3.068  1.00  0.00     0.187 HD
HETATM    7  C   UNK N   1      20.802  20.246   2.458  0.00  0.00     0.149 A 
HETATM    8  C   UNK N   1      19.581  19.313   2.630  0.00  0.00     0.028 A 
HETATM    9  C   UNK N   1      20.028  18.108   3.502  0.00  0.00     0.061 A 
ENDROOT
BRANCH   2  10
HETATM   10  C   UNK N   1      22.637  16.549   5.201  0.00  0.00    -0.008 A 
HETATM   11  C   UNK N   1      23.490  15.542   4.747  0.00  0.00     0.030 A 
HETATM   12  C   UNK N   1      23.628  14.329   5.411  0.00  0.00     0.089 A 
HETATM   13  N   UNK N   1      22.929  14.094   6.542  0.00  0.00    -0.365 N 
HETATM   14  C   UNK N   1      22.100  15.030   7.064  0.00  0.00     0.043 A 
ATOM     15  HN  UNK N   1      23.028  13.195   7.014  1.00  0.00     0.165 HD
HETATM   16  C   UNK N   1      21.933  16.289   6.418  0.00  0.00     0.003 A 
HETATM   17  C   UNK N   1      21.414  14.742   8.244  0.00  0.00     0.031 A 
HETATM   18  C   UNK N   1      21.075  17.217   7.009  0.00  0.00     0.031 A 
HETATM   19  C   UNK N   1      20.404  16.940   8.209  0.00  0.00     0.032 A 
HETATM   20  C   UNK N   1      20.572  15.692   8.816  0.00  0.00     0.019 A 
BRANCH  19  21
HETATM   21  C   UNK N   1      19.552  17.968   8.842  0.00  0.00     0.249 C 
HETATM   22  O   UNK N   1      20.028  19.042   9.175  0.00  0.00    -0.268 OA
HETATM   23  N   UNK N   1      18.248  17.718   9.080  0.00  0.00    -0.366 N 
HETATM   24  H   UNK N   1      17.825  16.906   8.718  0.00  0.00     0.159 HD
HETATM   25  H   UNK N   1      17.717  18.351   9.617  0.00  0.00     0.159 HD
ENDBRANCH  19  21
ENDBRANCH   2  10
BRANCH   1  26
HETATM   26  C   UNK N   1      25.050  18.787   4.462  0.00  0.00     0.061 A 
HETATM   27  C   UNK N   1      25.915  17.901   3.803  0.00  0.00     0.032 A 
HETATM   28  C   UNK N   1      27.271  17.880   4.137  0.00  0.00     0.004 A 
HETATM   29  C   UNK N   1      27.752  18.723   5.138  0.00  0.00     0.024 A 
HETATM   30  C   UNK N   1      26.863  19.573   5.795  0.00  0.00     0.005 A 
HETATM   31  C   UNK N   1      27.346  20.467   6.878  0.00  0.00     0.068 C 
HETATM   32  N   UNK N   1      25.550  19.581   5.447  0.00  0.00    -0.358 N 
ATOM     33  HN  UNK N   1      24.915  20.205   5.943  1.00  0.00     0.166 HD
ENDBRANCH   1  26
TORSDOF 3
ENDMDL
MODEL 2
REMARK VINA RESULT:      -7.9      3.059      5.696
REMARK  3 active torsions:
REMARK  status: ('A' for Active; 'I' for Inactive)
REMARK    1  A    between atoms: C_6  and  C_9 
REMARK    2  A    between atoms: C_10  and  C_18 
REMARK    3  A    between atoms: C_26  and  C_29 
REMARK       I    between atoms: C_29  and  N_31 
ROOT
HETATM    1  C   UNK N   1      24.003  17.346   5.180  0.00  0.00     0.088 A 
HETATM    2  C   UNK N   1      22.647  16.983   4.878  0.00  0.00     0.030 A 
HETATM    3  C   UNK N   1      22.458  15.835   5.664  0.00  0.00     0.042 A 
HETATM    4  N   UNK N   1      23.562  15.574   6.315  0.00  0.00    -0.295 N 
HETATM    5  N   UNK N   1      24.511  16.443   6.051  0.00  0.00    -0.295 N 
ATOM      6  HN  UNK N   1      25.457  16.437   6.431  1.00  0.00     0.187 HD
HETATM    7  C   UNK N   1      23.538  14.421   7.167  0.00  0.00     0.149 A 
HETATM    8  C   UNK N   1      22.093  13.909   6.967  0.00  0.00     0.028 A 
HETATM    9  C   UNK N   1      21.401  14.843   5.936  0.00  0.00     0.061 A 
ENDROOT
BRANCH   2  10
HETATM   10  C   UNK N   1      21.681  17.661   3.910  0.00  0.00    -0.008 A 
HETATM   11  C   UNK N   1      21.320  18.982   4.179  0.00  0.00     0.030 A 
HETATM   12  C   UNK N   1      20.437  19.691   3.373  0.00  0.00     0.089 A 
HETATM   13  N   UNK N   1      19.903  19.107   2.279  0.00  0.00    -0.365 N 
HETATM   14  C   UNK N   1      20.223  17.836   1.933  0.00  0.00     0.043 A 
ATOM     15  HN  UNK N   1      19.246  19.631   1.701  1.00  0.00     0.165 HD
HETATM   16  C   UNK N   1      21.128  17.075   2.729  0.00  0.00     0.003 A 
HETATM   17  C   UNK N   1      19.654  17.286   0.783  0.00  0.00     0.031 A 
HETATM   18  C   UNK N   1      21.428  15.777   2.315  0.00  0.00     0.031 A 
HETATM   19  C   UNK N   1      20.878  15.231   1.146  0.00  0.00     0.032 A 
HETATM   20  C   UNK N   1      19.982  15.991   0.390  0.00  0.00     0.019 A 
BRANCH  19  21
HETATM   21  C   UNK N   1      21.267  13.876   0.702  0.00  0.00     0.249 C 
HETATM   22  O   UNK N   1      20.412  13.033   0.479  0.00  0.00    -0.268 OA
HETATM   23  N   UNK N   1      22.569  13.553   0.564  0.00  0.00    -0.366 N 
HETATM   24  H   UNK N   1      23.262  14.249   0.631  0.00  0.00     0.159 HD
HETATM   25  H   UNK N   1      22.828  12.617   0.396  0.00  0.00     0.159 HD
ENDBRANCH  19  21
ENDBRANCH   2  10
BRANCH   1  26
HETATM   26  C   UNK N   1      24.840  18.500   4.747  0.00  0.00     0.061 A 
HETATM   27  C   UNK N   1      25.025  18.737   3.376  0.00  0.00     0.032 A 
HETATM   28  C   UNK N   1      25.827  19.802   2.961  0.00  0.00     0.004 A 
HETATM   29  C   UNK N   1      26.455  20.608   3.908  0.00  0.00     0.024 A 
HETATM   30  C   UNK N   1      26.274  20.331   5.262  0.00  0.00     0.005 A 
HETATM   31  C   UNK N   1      26.947  21.164   6.293  0.00  0.00     0.068 C 
HETATM   32  N   UNK N   1      25.484  19.294   5.643  0.00  0.00    -0.358 N 
ATOM     33  HN  UNK N   1      25.369  19.104   6.638  1.00  0.00     0.166 HD
ENDBRANCH   1  26
TORSDOF 3
ENDMDL
MODEL 3
REMARK VINA RESULT:      -7.9      5.296      7.821
REMARK  3 active torsions:
REMARK  status: ('A' for Active; 'I' for Inactive)
REMARK    1  A    between atoms: C_6  and  C_9 
REMARK    2  A    between atoms: C_10  and  C_18 
REMARK    3  A    between atoms: C_26  and  C_29 
REMARK       I    between atoms: C_29  and  N_31 
ROOT
HETATM    1  C   UNK N   1      27.541  16.289   3.426  0.00  0.00     0.088 A 
HETATM    2  C   UNK N   1      28.395  17.275   4.024  0.00  0.00     0.030 A 
HETATM    3  C   UNK N   1      27.579  18.419   4.030  0.00  0.00     0.042 A 
HETATM    4  N   UNK N   1      26.423  18.123   3.497  0.00  0.00    -0.295 N 
HETATM    5  N   UNK N   1      26.359  16.868   3.115  0.00  0.00    -0.295 N 
ATOM      6  HN  UNK N   1      25.564  16.414   2.666  1.00  0.00     0.187 HD
HETATM    7  C   UNK N   1      25.467  19.190   3.422  0.00  0.00     0.149 A 
HETATM    8  C   UNK N   1      26.248  20.359   4.065  0.00  0.00     0.028 A 
HETATM    9  C   UNK N   1      27.664  19.835   4.433  0.00  0.00     0.061 A 
ENDROOT
BRANCH   2  10
HETATM   10  C   UNK N   1      29.839  17.118   4.491  0.00  0.00    -0.008 A 
HETATM   11  C   UNK N   1      30.795  16.779   3.531  0.00  0.00     0.030 A 
HETATM   12  C   UNK N   1      32.135  16.597   3.847  0.00  0.00     0.089 A 
HETATM   13  N   UNK N   1      32.558  16.756   5.119  0.00  0.00    -0.365 N 
HETATM   14  C   UNK N   1      31.700  17.111   6.106  0.00  0.00     0.043 A 
ATOM     15  HN  UNK N   1      33.542  16.607   5.343  1.00  0.00     0.165 HD
HETATM   16  C   UNK N   1      30.317  17.312   5.825  0.00  0.00     0.003 A 
HETATM   17  C   UNK N   1      32.192  17.278   7.401  0.00  0.00     0.031 A 
HETATM   18  C   UNK N   1      29.485  17.689   6.880  0.00  0.00     0.031 A 
HETATM   19  C   UNK N   1      29.982  17.882   8.177  0.00  0.00     0.032 A 
HETATM   20  C   UNK N   1      31.339  17.664   8.431  0.00  0.00     0.019 A 
BRANCH  19  21
HETATM   21  C   UNK N   1      29.085  18.342   9.257  0.00  0.00     0.249 C 
HETATM   22  O   UNK N   1      29.548  18.730  10.319  0.00  0.00    -0.268 OA
HETATM   23  N   UNK N   1      27.747  18.313   9.089  0.00  0.00    -0.366 N 
HETATM   24  H   UNK N   1      27.362  18.111   8.206  0.00  0.00     0.159 HD
HETATM   25  H   UNK N   1      27.152  18.495   9.853  0.00  0.00     0.159 HD
ENDBRANCH  19  21
ENDBRANCH   2  10
BRANCH   1  26
HETATM   26  C   UNK N   1      27.738  14.835   3.167  0.00  0.00     0.061 A 
HETATM   27  C   UNK N   1      28.393  14.429   1.994  0.00  0.00     0.032 A 
HETATM   28  C   UNK N   1      28.562  13.069   1.731  0.00  0.00     0.004 A 
HETATM   29  C   UNK N   1      28.059  12.122   2.623  0.00  0.00     0.024 A 
HETATM   30  C   UNK N   1      27.389  12.555   3.766  0.00  0.00     0.005 A 
HETATM   31  C   UNK N   1      26.828  11.568   4.724  0.00  0.00     0.068 C 
HETATM   32  N   UNK N   1      27.244  13.885   4.004  0.00  0.00    -0.358 N 
ATOM     33  HN  UNK N   1      26.745  14.182   4.842  1.00  0.00     0.166 HD
ENDBRANCH   1  26
TORSDOF 3
ENDMDL
MODEL 4
REMARK VINA RESULT:      -7.9     12.659     15.745
REMARK  3 active torsions:
REMARK  status: ('A' for Active; 'I' for Inactive)
REMARK    1  A    between atoms: C_6  and  C_9 
REMARK    2  A    between atoms: C_10  and  C_18 
REMARK    3  A    between atoms: C_26  and  C_29 
REMARK       I    between atoms: C_29  and  N_31 
ROOT
HETATM    1  C   UNK N   1      27.750  28.301  -3.374  0.00  0.00     0.088 A 
HETATM    2  C   UNK N   1      29.171  28.496  -3.353  0.00  0.00     0.030 A 
HETATM    3  C   UNK N   1      29.340  29.380  -2.275  0.00  0.00     0.042 A 
HETATM    4  N   UNK N   1      28.171  29.657  -1.761  0.00  0.00    -0.295 N 
HETATM    5  N   UNK N   1      27.194  29.044  -2.389  0.00  0.00    -0.295 N 
ATOM      6  HN  UNK N   1      26.200  29.115  -2.174  1.00  0.00     0.187 HD
HETATM    7  C   UNK N   1      28.166  30.557  -0.644  0.00  0.00     0.149 A 
HETATM    8  C   UNK N   1      29.673  30.857  -0.473  0.00  0.00     0.028 A 
HETATM    9  C   UNK N   1      30.436  30.091  -1.589  0.00  0.00     0.061 A 
ENDROOT
BRANCH   2  10
HETATM   10  C   UNK N   1      30.219  27.917  -4.300  0.00  0.00    -0.008 A 
HETATM   11  C   UNK N   1      30.799  28.783  -5.229  0.00  0.00     0.030 A 
HETATM   12  C   UNK N   1      31.752  28.360  -6.146  0.00  0.00     0.089 A 
HETATM   13  N   UNK N   1      32.157  27.072  -6.156  0.00  0.00    -0.365 N 
HETATM   14  C   UNK N   1      31.664  26.173  -5.269  0.00  0.00     0.043 A 
ATOM     15  HN  UNK N   1      32.848  26.769  -6.842  1.00  0.00     0.165 HD
HETATM   16  C   UNK N   1      30.688  26.566  -4.308  0.00  0.00     0.003 A 
HETATM   17  C   UNK N   1      32.129  24.858  -5.312  0.00  0.00     0.031 A 
HETATM   18  C   UNK N   1      30.227  25.599  -3.414  0.00  0.00     0.031 A 
HETATM   19  C   UNK N   1      30.712  24.283  -3.438  0.00  0.00     0.032 A 
HETATM   20  C   UNK N   1      31.658  23.918  -4.400  0.00  0.00     0.019 A 
BRANCH  19  21
HETATM   21  C   UNK N   1      30.249  23.300  -2.436  0.00  0.00     0.249 C 
HETATM   22  O   UNK N   1      31.058  22.659  -1.783  0.00  0.00    -0.268 OA
HETATM   23  N   UNK N   1      28.930  23.086  -2.252  0.00  0.00    -0.366 N 
HETATM   24  H   UNK N   1      28.268  23.671  -2.686  0.00  0.00     0.159 HD
HETATM   25  H   UNK N   1      28.628  22.341  -1.682  0.00  0.00     0.159 HD
ENDBRANCH  19  21
ENDBRANCH   2  10
BRANCH   1  26
HETATM   26  C   UNK N   1      26.881  27.435  -4.221  0.00  0.00     0.061 A 
HETATM   27  C   UNK N   1      25.756  27.993  -4.845  0.00  0.00     0.032 A 
HETATM   28  C   UNK N   1      24.923  27.185  -5.621  0.00  0.00     0.004 A 
HETATM   29  C   UNK N   1      25.202  25.825  -5.753  0.00  0.00     0.024 A 
HETATM   30  C   UNK N   1      26.312  25.294  -5.098  0.00  0.00     0.005 A 
HETATM   31  C   UNK N   1      26.623  23.845  -5.206  0.00  0.00     0.068 C 
HETATM   32  N   UNK N   1      27.112  26.102  -4.354  0.00  0.00    -0.358 N 
ATOM     33  HN  UNK N   1      27.916  25.694  -3.878  1.00  0.00     0.166 HD
ENDBRANCH   1  26
TORSDOF 3
ENDMDL
MODEL 5
REMARK VINA RESULT:      -7.8      2.614      6.399
REMARK  3 active torsions:
REMARK  status: ('A' for Active; 'I' for Inactive)
REMARK    1  A    between atoms: C_6  and  C_9 
REMARK    2  A    between atoms: C_10  and  C_18 
REMARK    3  A    between atoms: C_26  and  C_29 
REMARK       I    between atoms: C_29  and  N_31 
ROOT
HETATM    1  C   UNK N   1      22.157  15.646   4.431  0.00  0.00     0.088 A 
HETATM    2  C   UNK N   1      21.795  16.963   4.872  0.00  0.00     0.030 A 
HETATM    3  C   UNK N   1      21.277  16.722   6.155  0.00  0.00     0.042 A 
HETATM    4  N   UNK N   1      21.327  15.440   6.403  0.00  0.00    -0.295 N 
HETATM    5  N   UNK N   1      21.836  14.759   5.402  0.00  0.00    -0.295 N 
ATOM      6  HN  UNK N   1      21.965  13.749   5.363  1.00  0.00     0.187 HD
HETATM    7  C   UNK N   1      20.828  15.021   7.681  0.00  0.00     0.149 A 
HETATM    8  C   UNK N   1      20.403  16.368   8.311  0.00  0.00     0.028 A 
HETATM    9  C   UNK N   1      20.678  17.484   7.267  0.00  0.00     0.061 A 
ENDROOT
BRANCH   2  10
HETATM   10  C   UNK N   1      21.910  18.280   4.109  0.00  0.00    -0.008 A 
HETATM   11  C   UNK N   1      20.725  18.890   3.693  0.00  0.00     0.030 A 
HETATM   12  C   UNK N   1      20.713  20.083   2.980  0.00  0.00     0.089 A 
HETATM   13  N   UNK N   1      21.875  20.699   2.674  0.00  0.00    -0.365 N 
HETATM   14  C   UNK N   1      23.067  20.187   3.064  0.00  0.00     0.043 A 
ATOM     15  HN  UNK N   1      21.855  21.568   2.139  1.00  0.00     0.165 HD
HETATM   16  C   UNK N   1      23.125  18.968   3.800  0.00  0.00     0.003 A 
HETATM   17  C   UNK N   1      24.237  20.873   2.734  0.00  0.00     0.031 A 
HETATM   18  C   UNK N   1      24.381  18.497   4.185  0.00  0.00     0.031 A 
HETATM   19  C   UNK N   1      25.556  19.198   3.877  0.00  0.00     0.032 A 
HETATM   20  C   UNK N   1      25.475  20.384   3.140  0.00  0.00     0.019 A 
BRANCH  19  21
HETATM   21  C   UNK N   1      26.865  18.704   4.354  0.00  0.00     0.249 C 
HETATM   22  O   UNK N   1      26.921  17.838   5.213  0.00  0.00    -0.268 OA
HETATM   23  N   UNK N   1      28.008  19.224   3.862  0.00  0.00    -0.366 N 
HETATM   24  H   UNK N   1      27.982  19.839   3.093  0.00  0.00     0.159 HD
HETATM   25  H   UNK N   1      28.872  18.988   4.273  0.00  0.00     0.159 HD
ENDBRANCH  19  21
ENDBRANCH   2  10
BRANCH   1  26
HETATM   26  C   UNK N   1      22.821  15.166   3.187  0.00  0.00     0.061 A 
HETATM   27  C   UNK N   1      22.037  14.643   2.148  0.00  0.00     0.032 A 
HETATM   28  C   UNK N   1      22.652  14.169   0.988  0.00  0.00     0.004 A 
HETATM   29  C   UNK N   1      24.042  14.196   0.878  0.00  0.00     0.024 A 
HETATM   30  C   UNK N   1      24.796  14.697   1.939  0.00  0.00     0.005 A 
HETATM   31  C   UNK N   1      26.279  14.721   1.856  0.00  0.00     0.068 C 
HETATM   32  N   UNK N   1      24.174  15.159   3.055  0.00  0.00    -0.358 N 
ATOM     33  HN  UNK N   1      24.744  15.515   3.822  1.00  0.00     0.166 HD
ENDBRANCH   1  26
TORSDOF 3
ENDMDL
MODEL 6
REMARK VINA RESULT:      -7.8     12.296     15.249
REMARK  3 active torsions:
REMARK  status: ('A' for Active; 'I' for Inactive)
REMARK    1  A    between atoms: C_6  and  C_9 
REMARK    2  A    between atoms: C_10  and  C_18 
REMARK    3  A    between atoms: C_26  and  C_29 
REMARK       I    between atoms: C_29  and  N_31 
ROOT
HETATM    1  C   UNK N   1      26.441  24.539  -6.649  0.00  0.00     0.088 A 
HETATM    2  C   UNK N   1      27.501  23.695  -7.121  0.00  0.00     0.030 A 
HETATM    3  C   UNK N   1      26.809  22.546  -7.541  0.00  0.00     0.042 A 
HETATM    4  N   UNK N   1      25.531  22.713  -7.324  0.00  0.00    -0.295 N 
HETATM    5  N   UNK N   1      25.266  23.882  -6.787  0.00  0.00    -0.295 N 
ATOM      6  HN  UNK N   1      24.345  24.229  -6.522  1.00  0.00     0.187 HD
HETATM    7  C   UNK N   1      24.677  21.622  -7.696  0.00  0.00     0.149 A 
HETATM    8  C   UNK N   1      25.694  20.602  -8.260  0.00  0.00     0.028 A 
HETATM    9  C   UNK N   1      27.111  21.222  -8.116  0.00  0.00     0.061 A 
ENDROOT
BRANCH   2  10
HETATM   10  C   UNK N   1      29.001  23.971  -7.121  0.00  0.00    -0.008 A 
HETATM   11  C   UNK N   1      29.584  24.376  -8.323  0.00  0.00     0.030 A 
HETATM   12  C   UNK N   1      30.942  24.641  -8.440  0.00  0.00     0.089 A 
HETATM   13  N   UNK N   1      31.750  24.520  -7.365  0.00  0.00    -0.365 N 
HETATM   14  C   UNK N   1      31.260  24.159  -6.154  0.00  0.00     0.043 A 
ATOM     15  HN  UNK N   1      32.748  24.705  -7.465  1.00  0.00     0.165 HD
HETATM   16  C   UNK N   1      29.871  23.882  -5.989  0.00  0.00     0.003 A 
HETATM   17  C   UNK N   1      32.135  24.064  -5.072  0.00  0.00     0.031 A 
HETATM   18  C   UNK N   1      29.424  23.527  -4.716  0.00  0.00     0.031 A 
HETATM   19  C   UNK N   1      30.298  23.456  -3.621  0.00  0.00     0.032 A 
HETATM   20  C   UNK N   1      31.658  23.718  -3.811  0.00  0.00     0.019 A 
BRANCH  19  21
HETATM   21  C   UNK N   1      29.780  23.139  -2.274  0.00  0.00     0.249 C 
HETATM   22  O   UNK N   1      30.552  22.934  -1.350  0.00  0.00    -0.268 OA
HETATM   23  N   UNK N   1      28.452  23.047  -2.060  0.00  0.00    -0.366 N 
HETATM   24  H   UNK N   1      27.817  23.317  -2.762  0.00  0.00     0.159 HD
HETATM   25  H   UNK N   1      28.115  22.708  -1.198  0.00  0.00     0.159 HD
ENDBRANCH  19  21
ENDBRANCH   2  10
BRANCH   1  26
HETATM   26  C   UNK N   1      26.445  25.933  -6.121  0.00  0.00     0.061 A 
HETATM   27  C   UNK N   1      25.516  26.296  -5.135  0.00  0.00     0.032 A 
HETATM   28  C   UNK N   1      25.497  27.606  -4.651  0.00  0.00     0.004 A 
HETATM   29  C   UNK N   1      26.386  28.549  -5.166  0.00  0.00     0.024 A 
HETATM   30  C   UNK N   1      27.279  28.165  -6.165  0.00  0.00     0.005 A 
HETATM   31  C   UNK N   1      28.224  29.153  -6.745  0.00  0.00     0.068 C 
HETATM   32  N   UNK N   1      27.283  26.883  -6.615  0.00  0.00    -0.358 N 
ATOM     33  HN  UNK N   1      27.940  26.623  -7.350  1.00  0.00     0.166 HD
ENDBRANCH   1  26
TORSDOF 3
ENDMDL
MODEL 7
REMARK VINA RESULT:      -7.7      5.243      7.808
REMARK  3 active torsions:
REMARK  status: ('A' for Active; 'I' for Inactive)
REMARK    1  A    between atoms: C_6  and  C_9 
REMARK    2  A    between atoms: C_10  and  C_18 
REMARK    3  A    between atoms: C_26  and  C_29 
REMARK       I    between atoms: C_29  and  N_31 
ROOT
HETATM    1  C   UNK N   1      27.124  16.762   5.018  0.00  0.00     0.088 A 
HETATM    2  C   UNK N   1      28.281  15.913   4.993  0.00  0.00     0.030 A 
HETATM    3  C   UNK N   1      27.714  14.629   4.963  0.00  0.00     0.042 A 
HETATM    4  N   UNK N   1      26.411  14.735   4.981  0.00  0.00    -0.295 N 
HETATM    5  N   UNK N   1      26.015  15.986   5.022  0.00  0.00    -0.295 N 
ATOM      6  HN  UNK N   1      25.050  16.313   5.052  1.00  0.00     0.187 HD
HETATM    7  C   UNK N   1      25.675  13.504   4.959  0.00  0.00     0.149 A 
HETATM    8  C   UNK N   1      26.810  12.456   4.909  0.00  0.00     0.028 A 
HETATM    9  C   UNK N   1      28.161  13.223   4.947  0.00  0.00     0.061 A 
ENDROOT
BRANCH   2  10
HETATM   10  C   UNK N   1      29.752  16.319   5.033  0.00  0.00    -0.008 A 
HETATM   11  C   UNK N   1      30.482  16.217   3.847  0.00  0.00     0.030 A 
HETATM   12  C   UNK N   1      31.829  16.547   3.773  0.00  0.00     0.089 A 
HETATM   13  N   UNK N   1      32.478  16.992   4.870  0.00  0.00    -0.365 N 
HETATM   14  C   UNK N   1      31.836  17.145   6.053  0.00  0.00     0.043 A 
ATOM     15  HN  UNK N   1      33.471  17.219   4.807  1.00  0.00     0.165 HD
HETATM   16  C   UNK N   1      30.453  16.824   6.172  0.00  0.00     0.003 A 
HETATM   17  C   UNK N   1      32.550  17.625   7.152  0.00  0.00     0.031 A 
HETATM   18  C   UNK N   1      29.843  17.014   7.413  0.00  0.00     0.031 A 
HETATM   19  C   UNK N   1      30.552  17.520   8.512  0.00  0.00     0.032 A 
HETATM   20  C   UNK N   1      31.912  17.814   8.375  0.00  0.00     0.019 A 
BRANCH  19  21
HETATM   21  C   UNK N   1      29.862  17.769   9.794  0.00  0.00     0.249 C 
HETATM   22  O   UNK N   1      29.615  18.912  10.150  0.00  0.00    -0.268 OA
HETATM   23  N   UNK N   1      29.521  16.739  10.595  0.00  0.00    -0.366 N 
HETATM   24  H   UNK N   1      29.610  15.812  10.275  0.00  0.00     0.159 HD
HETATM   25  H   UNK N   1      29.181  16.913  11.503  0.00  0.00     0.159 HD
ENDBRANCH  19  21
ENDBRANCH   2  10
BRANCH   1  26
HETATM   26  C   UNK N   1      26.982  18.245   4.992  0.00  0.00     0.061 A 
HETATM   27  C   UNK N   1      27.149  18.930   3.779  0.00  0.00     0.032 A 
HETATM   28  C   UNK N   1      27.041  20.322   3.750  0.00  0.00     0.004 A 
HETATM   29  C   UNK N   1      26.793  21.024   4.929  0.00  0.00     0.024 A 
HETATM   30  C   UNK N   1      26.660  20.317   6.124  0.00  0.00     0.005 A 
HETATM   31  C   UNK N   1      26.413  21.041   7.398  0.00  0.00     0.068 C 
HETATM   32  N   UNK N   1      26.761  18.963   6.126  0.00  0.00    -0.358 N 
ATOM     33  HN  UNK N   1      26.667  18.465   7.011  1.00  0.00     0.166 HD
ENDBRANCH   1  26
TORSDOF 3
ENDMDL
MODEL 8
REMARK VINA RESULT:      -7.7      5.036      8.394
REMARK  3 active torsions:
REMARK  status: ('A' for Active; 'I' for Inactive)
REMARK    1  A    between atoms: C_6  and  C_9 
REMARK    2  A    between atoms: C_10  and  C_18 
REMARK    3  A    between atoms: C_26  and  C_29 
REMARK       I    between atoms: C_29  and  N_31 
ROOT
HETATM    1  C   UNK N   1      26.700  17.189   5.967  0.00  0.00     0.088 A 
HETATM    2  C   UNK N   1      27.604  18.023   6.708  0.00  0.00     0.030 A 
HETATM    3  C   UNK N   1      27.284  19.308   6.238  0.00  0.00     0.042 A 
HETATM    4  N   UNK N   1      26.336  19.214   5.344  0.00  0.00    -0.295 N 
HETATM    5  N   UNK N   1      25.963  17.970   5.144  0.00  0.00    -0.295 N 
ATOM      6  HN  UNK N   1      25.250  17.652   4.489  1.00  0.00     0.187 HD
HETATM    7  C   UNK N   1      25.894  20.445   4.757  0.00  0.00     0.149 A 
HETATM    8  C   UNK N   1      26.783  21.480   5.485  0.00  0.00     0.028 A 
HETATM    9  C   UNK N   1      27.726  20.700   6.442  0.00  0.00     0.061 A 
ENDROOT
BRANCH   2  10
HETATM   10  C   UNK N   1      28.668  17.600   7.716  0.00  0.00    -0.008 A 
HETATM   11  C   UNK N   1      28.303  17.563   9.063  0.00  0.00     0.030 A 
HETATM   12  C   UNK N   1      29.195  17.206  10.067  0.00  0.00     0.089 A 
HETATM   13  N   UNK N   1      30.465  16.870   9.754  0.00  0.00    -0.365 N 
HETATM   14  C   UNK N   1      30.892  16.854   8.469  0.00  0.00     0.043 A 
ATOM     15  HN  UNK N   1      31.115  16.622  10.500  1.00  0.00     0.165 HD
HETATM   16  C   UNK N   1      30.009  17.209   7.408  0.00  0.00     0.003 A 
HETATM   17  C   UNK N   1      32.210  16.483   8.200  0.00  0.00     0.031 A 
HETATM   18  C   UNK N   1      30.503  17.162   6.104  0.00  0.00     0.031 A 
HETATM   19  C   UNK N   1      31.819  16.764   5.829  0.00  0.00     0.032 A 
HETATM   20  C   UNK N   1      32.672  16.435   6.887  0.00  0.00     0.019 A 
BRANCH  19  21
HETATM   21  C   UNK N   1      32.292  16.664   4.433  0.00  0.00     0.249 C 
HETATM   22  O   UNK N   1      32.922  17.581   3.929  0.00  0.00    -0.268 OA
HETATM   23  N   UNK N   1      32.008  15.571   3.695  0.00  0.00    -0.366 N 
HETATM   24  H   UNK N   1      31.601  14.780   4.117  0.00  0.00     0.159 HD
HETATM   25  H   UNK N   1      32.209  15.563   2.731  0.00  0.00     0.159 HD
ENDBRANCH  19  21
ENDBRANCH   2  10
BRANCH   1  26
HETATM   26  C   UNK N   1      26.447  15.721   6.009  0.00  0.00     0.061 A 
HETATM   27  C   UNK N   1      26.876  14.921   4.940  0.00  0.00     0.032 A 
HETATM   28  C   UNK N   1      26.624  13.548   4.958  0.00  0.00     0.004 A 
HETATM   29  C   UNK N   1      25.927  12.985   6.027  0.00  0.00     0.024 A 
HETATM   30  C   UNK N   1      25.490  13.810   7.062  0.00  0.00     0.005 A 
HETATM   31  C   UNK N   1      24.730  13.240   8.204  0.00  0.00     0.068 C 
HETATM   32  N   UNK N   1      25.754  15.142   7.025  0.00  0.00    -0.358 N 
ATOM     33  HN  UNK N   1      25.420  15.730   7.788  1.00  0.00     0.166 HD
ENDBRANCH   1  26
TORSDOF 3
ENDMDL
MODEL 9
REMARK VINA RESULT:      -7.6      3.091      6.299
REMARK  3 active torsions:
REMARK  status: ('A' for Active; 'I' for Inactive)
REMARK    1  A    between atoms: C_6  and  C_9 
REMARK    2  A    between atoms: C_10  and  C_18 
REMARK    3  A    between atoms: C_26  and  C_29 
REMARK       I    between atoms: C_29  and  N_31 
ROOT
HETATM    1  C   UNK N   1      23.331  17.608   5.162  0.00  0.00     0.088 A 
HETATM    2  C   UNK N   1      22.904  18.322   3.992  0.00  0.00     0.030 A 
HETATM    3  C   UNK N   1      24.004  19.156   3.728  0.00  0.00     0.042 A 
HETATM    4  N   UNK N   1      24.925  18.951   4.633  0.00  0.00    -0.295 N 
HETATM    5  N   UNK N   1      24.564  18.044   5.512  0.00  0.00    -0.295 N 
ATOM      6  HN  UNK N   1      25.112  17.727   6.311  1.00  0.00     0.187 HD
HETATM    7  C   UNK N   1      26.121  19.733   4.509  0.00  0.00     0.149 A 
HETATM    8  C   UNK N   1      25.822  20.569   3.243  0.00  0.00     0.028 A 
HETATM    9  C   UNK N   1      24.394  20.196   2.758  0.00  0.00     0.061 A 
ENDROOT
BRANCH   2  10
HETATM   10  C   UNK N   1      21.570  18.222   3.258  0.00  0.00    -0.008 A 
HETATM   11  C   UNK N   1      20.672  19.280   3.404  0.00  0.00     0.030 A 
HETATM   12  C   UNK N   1      19.425  19.287   2.791  0.00  0.00     0.089 A 
HETATM   13  N   UNK N   1      19.047  18.249   2.015  0.00  0.00    -0.365 N 
HETATM   14  C   UNK N   1      19.871  17.195   1.800  0.00  0.00     0.043 A 
ATOM     15  HN  UNK N   1      18.124  18.258   1.581  1.00  0.00     0.165 HD
HETATM   16  C   UNK N   1      21.160  17.150   2.405  0.00  0.00     0.003 A 
HETATM   17  C   UNK N   1      19.437  16.156   0.976  0.00  0.00     0.031 A 
HETATM   18  C   UNK N   1      21.968  16.044   2.136  0.00  0.00     0.031 A 
HETATM   19  C   UNK N   1      21.545  15.011   1.287  0.00  0.00     0.032 A 
HETATM   20  C   UNK N   1      20.270  15.071   0.718  0.00  0.00     0.019 A 
BRANCH  19  21
HETATM   21  C   UNK N   1      22.450  13.886   0.974  0.00  0.00     0.249 C 
HETATM   22  O   UNK N   1      23.445  14.068   0.289  0.00  0.00    -0.268 OA
HETATM   23  N   UNK N   1      22.170  12.644   1.420  0.00  0.00    -0.366 N 
HETATM   24  H   UNK N   1      21.438  12.501   2.062  0.00  0.00     0.159 HD
HETATM   25  H   UNK N   1      22.701  11.877   1.102  0.00  0.00     0.159 HD
ENDBRANCH  19  21
ENDBRANCH   2  10
BRANCH   1  26
HETATM   26  C   UNK N   1      22.687  16.518   5.947  0.00  0.00     0.061 A 
HETATM   27  C   UNK N   1      23.028  15.184   5.679  0.00  0.00     0.032 A 
HETATM   28  C   UNK N   1      22.413  14.155   6.393  0.00  0.00     0.004 A 
HETATM   29  C   UNK N   1      21.446  14.457   7.352  0.00  0.00     0.024 A 
HETATM   30  C   UNK N   1      21.108  15.791   7.577  0.00  0.00     0.005 A 
HETATM   31  C   UNK N   1      20.069  16.140   8.580  0.00  0.00     0.068 C 
HETATM   32  N   UNK N   1      21.727  16.776   6.875  0.00  0.00    -0.358 N 
ATOM     33  HN  UNK N   1      21.461  17.744   7.049  1.00  0.00     0.166 HD
ENDBRANCH   1  26
TORSDOF 3
ENDMDL
