MODEL 1
REMARK VINA RESULT:      -7.9      0.000      0.000
REMARK  5 active torsions:
REMARK  status: ('A' for Active; 'I' for Inactive)
REMARK    1  A    between atoms: C_3  and  N_9 
REMARK       I    between atoms: N_9  and  C_10 
REMARK    2  A    between atoms: C_14  and  C_22 
REMARK    3  A    between atoms: C_15  and  C_18 
REMARK       I    between atoms: C_22  and  N_24 
REMARK    4  A    between atoms: N_24  and  C_25 
REMARK    5  A    between atoms: C_25  and  C_26 
ROOT
HETATM    1  N   UNK N   1      29.171  16.284   6.042  0.00  0.00    -0.190 N 
HETATM    2  C   UNK N   1      30.500  15.979   6.423  0.00  0.00     0.683 A 
HETATM    3  N   UNK N   1      31.076  14.803   6.062  0.00  0.00    -0.201 N 
ATOM      4  HN  UNK N   1      30.528  14.106   5.557  1.00  0.00     0.183 HD
HETATM    5  C   UNK N   1      32.376  14.547   6.366  0.00  0.00     0.125 A 
HETATM    6  C   UNK N   1      33.154  15.491   7.060  0.00  0.00     0.080 A 
HETATM    7  C   UNK N   1      32.507  16.699   7.464  0.00  0.00     0.149 A 
HETATM    8  N   UNK N   1      31.211  16.881   7.136  0.00  0.00    -0.185 N 
ATOM      9  HN  UNK N   1      30.748  17.738   7.437  1.00  0.00     0.184 HD
HETATM   10  H   UNK N   1      28.577  15.556   5.746  0.00  0.00     0.184 HD
ENDROOT
BRANCH   6  11
HETATM   11  C   UNK N   1      34.598  15.193   7.306  0.00  0.00     0.255 C 
HETATM   12  O   UNK N   1      35.450  15.547   6.500  0.00  0.00    -0.268 OA
HETATM   13  N   UNK N   1      34.963  14.560   8.440  0.00  0.00    -0.356 N 
HETATM   14  H   UNK N   1      34.237  14.280   9.043  0.00  0.00     0.162 HD
BRANCH  13  15
HETATM   15  C   UNK N   1      36.305  14.253   8.855  0.00  0.00     0.127 C 
BRANCH  15  16
HETATM   16  C   UNK N   1      36.232  13.950  10.347  0.00  0.00     0.007 C 
HETATM   17  C   UNK N   1      36.043  15.184  11.216  0.00  0.00     0.032 C 
HETATM   18  C   UNK N   1      36.007  14.710  12.674  0.00  0.00     0.168 C 
HETATM   19  O   UNK N   1      34.919  13.834  12.872  0.00  0.00    -0.391 OA
HETATM   20  C   UNK N   1      35.210  12.647  12.175  0.00  0.00     0.168 C 
HETATM   21  C   UNK N   1      35.154  12.916  10.674  0.00  0.00     0.032 C 
ENDBRANCH  15  16
ENDBRANCH  13  15
ENDBRANCH   6  11
BRANCH   7  22
HETATM   22  C   UNK N   1      33.177  17.828   8.208  0.00  0.00     0.434 C 
HETATM   23  F   UNK N   1      34.127  18.421   7.399  0.00  0.00    -0.165 F 
HETATM   24  F   UNK N   1      32.249  18.803   8.534  0.00  0.00    -0.165 F 
HETATM   25  F   UNK N   1      33.742  17.374   9.386  0.00  0.00    -0.165 F 
ENDBRANCH   7  22
BRANCH   1  26
HETATM   26  C   UNK N   1      28.669  17.620   6.075  0.00  0.00     0.071 A 
HETATM   27  C   UNK N   1      28.702  18.377   4.899  0.00  0.00     0.033 A 
HETATM   28  C   UNK N   1      28.181  19.675   4.874  0.00  0.00     0.026 A 
HETATM   29  C   UNK N   1      27.628  20.231   6.028  0.00  0.00     0.035 A 
HETATM   30  C   UNK N   1      27.617  19.502   7.215  0.00  0.00     0.050 A 
HETATM   31 Cl   UNK N   1      26.957  21.847   5.994  0.00  0.00    -0.084 Cl
HETATM   32  C   UNK N   1      28.132  18.205   7.258  0.00  0.00     0.062 A 
HETATM   33 Cl   UNK N   1      28.130  17.392   8.821  0.00  0.00    -0.082 Cl
ENDBRANCH   1  26
TORSDOF 5
ENDMDL
MODEL 2
REMARK VINA RESULT:      -7.6      3.395      4.677
REMARK  5 active torsions:
REMARK  status: ('A' for Active; 'I' for Inactive)
REMARK    1  A    between atoms: C_3  and  N_9 
REMARK       I    between atoms: N_9  and  C_10 
REMARK    2  A    between atoms: C_14  and  C_22 
REMARK    3  A    between atoms: C_15  and  C_18 
REMARK       I    between atoms: C_22  and  N_24 
REMARK    4  A    between atoms: N_24  and  C_25 
REMARK    5  A    between atoms: C_25  and  C_26 
ROOT
HETATM    1  N   UNK N   1      33.583  17.918   8.433  0.00  0.00    -0.190 N 
HETATM    2  C   UNK N   1      34.476  16.980   9.007  0.00  0.00     0.683 A 
HETATM    3  N   UNK N   1      34.929  17.137  10.277  0.00  0.00    -0.201 N 
ATOM      4  HN  UNK N   1      34.668  17.969  10.808  1.00  0.00     0.183 HD
HETATM    5  C   UNK N   1      35.726  16.195  10.849  0.00  0.00     0.125 A 
HETATM    6  C   UNK N   1      36.099  15.039  10.140  0.00  0.00     0.080 A 
HETATM    7  C   UNK N   1      35.642  14.925   8.792  0.00  0.00     0.149 A 
HETATM    8  N   UNK N   1      34.862  15.903   8.286  0.00  0.00    -0.185 N 
ATOM      9  HN  UNK N   1      34.548  15.826   7.319  1.00  0.00     0.184 HD
HETATM   10  H   UNK N   1      33.493  18.808   8.844  0.00  0.00     0.184 HD
ENDROOT
BRANCH   6  11
HETATM   11  C   UNK N   1      36.916  13.999  10.838  0.00  0.00     0.255 C 
HETATM   12  O   UNK N   1      38.066  13.775  10.481  0.00  0.00    -0.268 OA
HETATM   13  N   UNK N   1      36.390  13.331  11.884  0.00  0.00    -0.356 N 
HETATM   14  H   UNK N   1      35.456  13.535  12.116  0.00  0.00     0.162 HD
BRANCH  13  15
HETATM   15  C   UNK N   1      37.059  12.350  12.696  0.00  0.00     0.127 C 
BRANCH  15  16
HETATM   16  C   UNK N   1      36.266  12.259  13.995  0.00  0.00     0.007 C 
HETATM   17  C   UNK N   1      36.406  13.483  14.887  0.00  0.00     0.032 C 
HETATM   18  C   UNK N   1      35.569  13.225  16.145  0.00  0.00     0.168 C 
HETATM   19  O   UNK N   1      34.212  13.057  15.799  0.00  0.00    -0.391 OA
HETATM   20  C   UNK N   1      34.107  11.835  15.109  0.00  0.00     0.168 C 
HETATM   21  C   UNK N   1      34.786  11.964  13.749  0.00  0.00     0.032 C 
ENDBRANCH  15  16
ENDBRANCH  13  15
ENDBRANCH   6  11
BRANCH   7  22
HETATM   22  C   UNK N   1      35.932  13.759   7.879  0.00  0.00     0.434 C 
HETATM   23  F   UNK N   1      35.531  12.583   8.483  0.00  0.00    -0.165 F 
HETATM   24  F   UNK N   1      35.215  13.883   6.702  0.00  0.00    -0.165 F 
HETATM   25  F   UNK N   1      37.275  13.714   7.550  0.00  0.00    -0.165 F 
ENDBRANCH   7  22
BRANCH   1  26
HETATM   26  C   UNK N   1      32.810  17.606   7.274  0.00  0.00     0.071 A 
HETATM   27  C   UNK N   1      33.424  17.679   6.019  0.00  0.00     0.033 A 
HETATM   28  C   UNK N   1      32.718  17.340   4.861  0.00  0.00     0.026 A 
HETATM   29  C   UNK N   1      31.387  16.931   4.946  0.00  0.00     0.035 A 
HETATM   30  C   UNK N   1      30.750  16.883   6.184  0.00  0.00     0.050 A 
HETATM   31 Cl   UNK N   1      30.507  16.487   3.500  0.00  0.00    -0.084 Cl
HETATM   32  C   UNK N   1      31.441  17.218   7.351  0.00  0.00     0.062 A 
HETATM   33 Cl   UNK N   1      30.530  17.188   8.859  0.00  0.00    -0.082 Cl
ENDBRANCH   1  26
TORSDOF 5
ENDMDL
MODEL 3
REMARK VINA RESULT:      -7.5      3.164      4.563
REMARK  5 active torsions:
REMARK  status: ('A' for Active; 'I' for Inactive)
REMARK    1  A    between atoms: C_3  and  N_9 
REMARK       I    between atoms: N_9  and  C_10 
REMARK    2  A    between atoms: C_14  and  C_22 
REMARK    3  A    between atoms: C_15  and  C_18 
REMARK       I    between atoms: C_22  and  N_24 
REMARK    4  A    between atoms: N_24  and  C_25 
REMARK    5  A    between atoms: C_25  and  C_26 
ROOT
HETATM    1  N   UNK N   1      33.159  17.976   8.574  0.00  0.00    -0.190 N 
HETATM    2  C   UNK N   1      34.095  17.039   9.077  0.00  0.00     0.683 A 
HETATM    3  N   UNK N   1      34.923  17.364  10.103  0.00  0.00    -0.201 N 
ATOM      4  HN  UNK N   1      34.911  18.311  10.482  1.00  0.00     0.183 HD
HETATM    5  C   UNK N   1      35.767  16.437  10.630  0.00  0.00     0.125 A 
HETATM    6  C   UNK N   1      35.802  15.124  10.128  0.00  0.00     0.080 A 
HETATM    7  C   UNK N   1      34.950  14.827   9.020  0.00  0.00     0.149 A 
HETATM    8  N   UNK N   1      34.146  15.799   8.542  0.00  0.00    -0.185 N 
ATOM      9  HN  UNK N   1      33.549  15.588   7.742  1.00  0.00     0.184 HD
HETATM   10  H   UNK N   1      33.279  18.931   8.781  0.00  0.00     0.184 HD
ENDROOT
BRANCH   6  11
HETATM   11  C   UNK N   1      36.694  14.123  10.790  0.00  0.00     0.255 C 
HETATM   12  O   UNK N   1      37.823  13.921  10.360  0.00  0.00    -0.268 OA
HETATM   13  N   UNK N   1      36.259  13.465  11.884  0.00  0.00    -0.356 N 
HETATM   14  H   UNK N   1      35.337  13.650  12.175  0.00  0.00     0.162 HD
BRANCH  13  15
HETATM   15  C   UNK N   1      37.009  12.522  12.669  0.00  0.00     0.127 C 
BRANCH  15  16
HETATM   16  C   UNK N   1      36.257  12.370  13.986  0.00  0.00     0.007 C 
HETATM   17  C   UNK N   1      36.387  13.572  14.909  0.00  0.00     0.032 C 
HETATM   18  C   UNK N   1      35.595  13.253  16.183  0.00  0.00     0.168 C 
HETATM   19  O   UNK N   1      34.234  13.054  15.870  0.00  0.00    -0.391 OA
HETATM   20  C   UNK N   1      34.145  11.850  15.148  0.00  0.00     0.168 C 
HETATM   21  C   UNK N   1      34.780  12.037  13.774  0.00  0.00     0.032 C 
ENDBRANCH  15  16
ENDBRANCH  13  15
ENDBRANCH   6  11
BRANCH   7  22
HETATM   22  C   UNK N   1      34.845  13.478   8.352  0.00  0.00     0.434 C 
HETATM   23  F   UNK N   1      34.379  12.544   9.258  0.00  0.00    -0.165 F 
HETATM   24  F   UNK N   1      33.934  13.530   7.310  0.00  0.00    -0.165 F 
HETATM   25  F   UNK N   1      36.064  13.092   7.825  0.00  0.00    -0.165 F 
ENDBRANCH   7  22
BRANCH   1  26
HETATM   26  C   UNK N   1      32.047  17.571   7.776  0.00  0.00     0.071 A 
HETATM   27  C   UNK N   1      30.812  17.369   8.401  0.00  0.00     0.033 A 
HETATM   28  C   UNK N   1      29.686  17.015   7.652  0.00  0.00     0.026 A 
HETATM   29  C   UNK N   1      29.786  16.853   6.270  0.00  0.00     0.035 A 
HETATM   30  C   UNK N   1      31.015  17.019   5.636  0.00  0.00     0.050 A 
HETATM   31 Cl   UNK N   1      28.373  16.430   5.327  0.00  0.00    -0.084 Cl
HETATM   32  C   UNK N   1      32.150  17.373   6.369  0.00  0.00     0.062 A 
HETATM   33 Cl   UNK N   1      33.669  17.495   5.485  0.00  0.00    -0.082 Cl
ENDBRANCH   1  26
TORSDOF 5
ENDMDL
MODEL 4
REMARK VINA RESULT:      -7.2      4.694      9.300
REMARK  5 active torsions:
REMARK  status: ('A' for Active; 'I' for Inactive)
REMARK    1  A    between atoms: C_3  and  N_9 
REMARK       I    between atoms: N_9  and  C_10 
REMARK    2  A    between atoms: C_14  and  C_22 
REMARK    3  A    between atoms: C_15  and  C_18 
REMARK       I    between atoms: C_22  and  N_24 
REMARK    4  A    between atoms: N_24  and  C_25 
REMARK    5  A    between atoms: C_25  and  C_26 
ROOT
HETATM    1  N   UNK N   1      34.559  10.673  11.755  0.00  0.00    -0.190 N 
HETATM    2  C   UNK N   1      34.479  11.873  11.007  0.00  0.00     0.683 A 
HETATM    3  N   UNK N   1      33.741  11.936   9.868  0.00  0.00    -0.201 N 
ATOM      4  HN  UNK N   1      33.283  11.096   9.515  1.00  0.00     0.183 HD
HETATM    5  C   UNK N   1      33.608  13.110   9.195  0.00  0.00     0.125 A 
HETATM    6  C   UNK N   1      34.227  14.284   9.660  0.00  0.00     0.080 A 
HETATM    7  C   UNK N   1      35.031  14.174  10.836  0.00  0.00     0.149 A 
HETATM    8  N   UNK N   1      35.127  12.975  11.447  0.00  0.00    -0.185 N 
ATOM      9  HN  UNK N   1      35.712  12.897  12.278  1.00  0.00     0.184 HD
HETATM   10  H   UNK N   1      34.303   9.824  11.327  0.00  0.00     0.184 HD
ENDROOT
BRANCH   6  11
HETATM   11  C   UNK N   1      33.990  15.564   8.925  0.00  0.00     0.255 C 
HETATM   12  O   UNK N   1      34.806  15.968   8.107  0.00  0.00    -0.268 OA
HETATM   13  N   UNK N   1      32.854  16.257   9.145  0.00  0.00    -0.356 N 
HETATM   14  H   UNK N   1      32.242  15.899   9.828  0.00  0.00     0.162 HD
BRANCH  13  15
HETATM   15  C   UNK N   1      32.447  17.466   8.482  0.00  0.00     0.127 C 
BRANCH  15  16
HETATM   16  C   UNK N   1      30.923  17.459   8.477  0.00  0.00     0.007 C 
HETATM   17  C   UNK N   1      30.300  18.678   9.138  0.00  0.00     0.032 C 
HETATM   18  C   UNK N   1      28.778  18.507   9.063  0.00  0.00     0.168 C 
HETATM   19  O   UNK N   1      28.363  18.449   7.717  0.00  0.00    -0.391 OA
HETATM   20  C   UNK N   1      28.831  17.231   7.190  0.00  0.00     0.168 C 
HETATM   21  C   UNK N   1      30.351  17.284   7.069  0.00  0.00     0.032 C 
ENDBRANCH  15  16
ENDBRANCH  13  15
ENDBRANCH   6  11
BRANCH   7  22
HETATM   22  C   UNK N   1      35.766  15.320  11.487  0.00  0.00     0.434 C 
HETATM   23  F   UNK N   1      36.276  14.915  12.706  0.00  0.00    -0.165 F 
HETATM   24  F   UNK N   1      36.837  15.710  10.702  0.00  0.00    -0.165 F 
HETATM   25  F   UNK N   1      34.935  16.416  11.638  0.00  0.00    -0.165 F 
ENDBRANCH   7  22
BRANCH   1  26
HETATM   26  C   UNK N   1      34.999  10.663  13.112  0.00  0.00     0.071 A 
HETATM   27  C   UNK N   1      34.039  10.716  14.129  0.00  0.00     0.033 A 
HETATM   28  C   UNK N   1      34.423  10.665  15.472  0.00  0.00     0.026 A 
HETATM   29  C   UNK N   1      35.772  10.567  15.813  0.00  0.00     0.035 A 
HETATM   30  C   UNK N   1      36.743  10.546  14.814  0.00  0.00     0.050 A 
HETATM   31 Cl   UNK N   1      36.253  10.482  17.493  0.00  0.00    -0.084 Cl
HETATM   32  C   UNK N   1      36.378  10.596  13.467  0.00  0.00     0.062 A 
HETATM   33 Cl   UNK N   1      37.682  10.630  12.283  0.00  0.00    -0.082 Cl
ENDBRANCH   1  26
TORSDOF 5
ENDMDL
MODEL 5
REMARK VINA RESULT:      -7.0      4.536      9.293
REMARK  5 active torsions:
REMARK  status: ('A' for Active; 'I' for Inactive)
REMARK    1  A    between atoms: C_3  and  N_9 
REMARK       I    between atoms: N_9  and  C_10 
REMARK    2  A    between atoms: C_14  and  C_22 
REMARK    3  A    between atoms: C_15  and  C_18 
REMARK       I    between atoms: C_22  and  N_24 
REMARK    4  A    between atoms: N_24  and  C_25 
REMARK    5  A    between atoms: C_25  and  C_26 
ROOT
HETATM    1  N   UNK N   1      37.689  13.552  11.368  0.00  0.00    -0.190 N 
HETATM    2  C   UNK N   1      36.728  14.442  10.830  0.00  0.00     0.683 A 
HETATM    3  N   UNK N   1      36.422  15.604  11.463  0.00  0.00    -0.201 N 
ATOM      4  HN  UNK N   1      36.848  15.814  12.366  1.00  0.00     0.183 HD
HETATM    5  C   UNK N   1      35.554  16.489  10.904  0.00  0.00     0.125 A 
HETATM    6  C   UNK N   1      34.955  16.224   9.659  0.00  0.00     0.080 A 
HETATM    7  C   UNK N   1      35.264  14.974   9.040  0.00  0.00     0.149 A 
HETATM    8  N   UNK N   1      36.126  14.139   9.658  0.00  0.00    -0.185 N 
ATOM      9  HN  UNK N   1      36.334  13.242   9.220  1.00  0.00     0.184 HD
HETATM   10  H   UNK N   1      37.944  13.638  12.316  0.00  0.00     0.184 HD
ENDROOT
BRANCH   6  11
HETATM   11  C   UNK N   1      34.065  17.260   9.053  0.00  0.00     0.255 C 
HETATM   12  O   UNK N   1      34.545  18.257   8.527  0.00  0.00    -0.268 OA
HETATM   13  N   UNK N   1      32.729  17.077   9.059  0.00  0.00    -0.356 N 
HETATM   14  H   UNK N   1      32.395  16.269   9.513  0.00  0.00     0.162 HD
BRANCH  13  15
HETATM   15  C   UNK N   1      31.743  17.942   8.469  0.00  0.00     0.127 C 
BRANCH  15  16
HETATM   16  C   UNK N   1      31.086  17.141   7.352  0.00  0.00     0.007 C 
HETATM   17  C   UNK N   1      29.659  17.568   7.047  0.00  0.00     0.032 C 
HETATM   18  C   UNK N   1      29.144  16.660   5.923  0.00  0.00     0.168 C 
HETATM   19  O   UNK N   1      29.934  16.827   4.766  0.00  0.00    -0.391 OA
HETATM   20  C   UNK N   1      31.199  16.277   5.044  0.00  0.00     0.168 C 
HETATM   21  C   UNK N   1      31.916  17.153   6.067  0.00  0.00     0.032 C 
ENDBRANCH  15  16
ENDBRANCH  13  15
ENDBRANCH   6  11
BRANCH   7  22
HETATM   22  C   UNK N   1      34.725  14.516   7.707  0.00  0.00     0.434 C 
HETATM   23  F   UNK N   1      35.020  15.455   6.738  0.00  0.00    -0.165 F 
HETATM   24  F   UNK N   1      35.330  13.330   7.329  0.00  0.00    -0.165 F 
HETATM   25  F   UNK N   1      33.362  14.289   7.778  0.00  0.00    -0.165 F 
ENDBRANCH   7  22
BRANCH   1  26
HETATM   26  C   UNK N   1      38.298  12.534  10.574  0.00  0.00     0.071 A 
HETATM   27  C   UNK N   1      39.315  12.898   9.684  0.00  0.00     0.033 A 
HETATM   28  C   UNK N   1      39.969  11.929   8.918  0.00  0.00     0.026 A 
HETATM   29  C   UNK N   1      39.608  10.586   9.029  0.00  0.00     0.035 A 
HETATM   30  C   UNK N   1      38.576  10.211   9.886  0.00  0.00     0.050 A 
HETATM   31 Cl   UNK N   1      40.439   9.368   8.086  0.00  0.00    -0.084 Cl
HETATM   32  C   UNK N   1      37.912  11.166  10.659  0.00  0.00     0.062 A 
HETATM   33 Cl   UNK N   1      36.579  10.600  11.663  0.00  0.00    -0.082 Cl
ENDBRANCH   1  26
TORSDOF 5
ENDMDL
MODEL 6
REMARK VINA RESULT:      -7.0      2.772      3.717
REMARK  5 active torsions:
REMARK  status: ('A' for Active; 'I' for Inactive)
REMARK    1  A    between atoms: C_3  and  N_9 
REMARK       I    between atoms: N_9  and  C_10 
REMARK    2  A    between atoms: C_14  and  C_22 
REMARK    3  A    between atoms: C_15  and  C_18 
REMARK       I    between atoms: C_22  and  N_24 
REMARK    4  A    between atoms: N_24  and  C_25 
REMARK    5  A    between atoms: C_25  and  C_26 
ROOT
HETATM    1  N   UNK N   1      28.118  17.357   6.642  0.00  0.00    -0.190 N 
HETATM    2  C   UNK N   1      29.462  17.525   7.055  0.00  0.00     0.683 A 
HETATM    3  N   UNK N   1      29.757  17.970   8.304  0.00  0.00    -0.201 N 
ATOM      4  HN  UNK N   1      29.002  18.240   8.935  1.00  0.00     0.183 HD
HETATM    5  C   UNK N   1      31.048  18.058   8.720  0.00  0.00     0.125 A 
HETATM    6  C   UNK N   1      32.107  17.691   7.870  0.00  0.00     0.080 A 
HETATM    7  C   UNK N   1      31.766  17.269   6.549  0.00  0.00     0.149 A 
HETATM    8  N   UNK N   1      30.463  17.215   6.201  0.00  0.00    -0.185 N 
ATOM      9  HN  UNK N   1      30.224  16.927   5.252  1.00  0.00     0.184 HD
HETATM   10  H   UNK N   1      27.401  17.801   7.150  0.00  0.00     0.184 HD
ENDROOT
BRANCH   6  11
HETATM   11  C   UNK N   1      33.505  17.736   8.400  0.00  0.00     0.255 C 
HETATM   12  O   UNK N   1      34.302  18.560   7.971  0.00  0.00    -0.268 OA
HETATM   13  N   UNK N   1      33.874  16.884   9.378  0.00  0.00    -0.356 N 
HETATM   14  H   UNK N   1      33.200  16.229   9.672  0.00  0.00     0.162 HD
BRANCH  13  15
HETATM   15  C   UNK N   1      35.152  16.837  10.035  0.00  0.00     0.127 C 
BRANCH  15  16
HETATM   16  C   UNK N   1      35.465  15.362  10.255  0.00  0.00     0.007 C 
HETATM   17  C   UNK N   1      34.884  14.796  11.542  0.00  0.00     0.032 C 
HETATM   18  C   UNK N   1      35.301  13.323  11.618  0.00  0.00     0.168 C 
HETATM   19  O   UNK N   1      34.773  12.612  10.520  0.00  0.00    -0.391 OA
HETATM   20  C   UNK N   1      35.451  13.060   9.371  0.00  0.00     0.168 C 
HETATM   21  C   UNK N   1      35.037  14.497   9.069  0.00  0.00     0.032 C 
ENDBRANCH  15  16
ENDBRANCH  13  15
ENDBRANCH   6  11
BRANCH   7  22
HETATM   22  C   UNK N   1      32.760  16.832   5.501  0.00  0.00     0.434 C 
HETATM   23  F   UNK N   1      33.500  17.919   5.078  0.00  0.00    -0.165 F 
HETATM   24  F   UNK N   1      33.646  15.913   6.036  0.00  0.00    -0.165 F 
HETATM   25  F   UNK N   1      32.118  16.225   4.436  0.00  0.00    -0.165 F 
ENDBRANCH   7  22
BRANCH   1  26
HETATM   26  C   UNK N   1      27.776  16.561   5.507  0.00  0.00     0.071 A 
HETATM   27  C   UNK N   1      27.726  15.171   5.655  0.00  0.00     0.033 A 
HETATM   28  C   UNK N   1      27.352  14.355   4.582  0.00  0.00     0.026 A 
HETATM   29  C   UNK N   1      27.032  14.922   3.349  0.00  0.00     0.035 A 
HETATM   30  C   UNK N   1      27.108  16.302   3.175  0.00  0.00     0.050 A 
HETATM   31 Cl   UNK N   1      26.545  13.904   2.011  0.00  0.00    -0.084 Cl
HETATM   32  C   UNK N   1      27.479  17.132   4.236  0.00  0.00     0.062 A 
HETATM   33 Cl   UNK N   1      27.608  18.856   3.897  0.00  0.00    -0.082 Cl
ENDBRANCH   1  26
TORSDOF 5
ENDMDL
MODEL 7
REMARK VINA RESULT:      -6.8      4.787      9.785
REMARK  5 active torsions:
REMARK  status: ('A' for Active; 'I' for Inactive)
REMARK    1  A    between atoms: C_3  and  N_9 
REMARK       I    between atoms: N_9  and  C_10 
REMARK    2  A    between atoms: C_14  and  C_22 
REMARK    3  A    between atoms: C_15  and  C_18 
REMARK       I    between atoms: C_22  and  N_24 
REMARK    4  A    between atoms: N_24  and  C_25 
REMARK    5  A    between atoms: C_25  and  C_26 
ROOT
HETATM    1  N   UNK N   1      36.599  14.095  14.268  0.00  0.00    -0.190 N 
HETATM    2  C   UNK N   1      36.195  14.336  12.932  0.00  0.00     0.683 A 
HETATM    3  N   UNK N   1      36.423  15.537  12.342  0.00  0.00    -0.201 N 
ATOM      4  HN  UNK N   1      36.841  16.295  12.882  1.00  0.00     0.183 HD
HETATM    5  C   UNK N   1      36.100  15.738  11.036  0.00  0.00     0.125 A 
HETATM    6  C   UNK N   1      35.525  14.710  10.268  0.00  0.00     0.080 A 
HETATM    7  C   UNK N   1      35.258  13.473  10.931  0.00  0.00     0.149 A 
HETATM    8  N   UNK N   1      35.595  13.348  12.232  0.00  0.00    -0.185 N 
ATOM      9  HN  UNK N   1      35.391  12.468  12.706  1.00  0.00     0.184 HD
HETATM   10  H   UNK N   1      36.805  14.861  14.852  0.00  0.00     0.184 HD
ENDROOT
BRANCH   6  11
HETATM   11  C   UNK N   1      35.256  14.957   8.818  0.00  0.00     0.255 C 
HETATM   12  O   UNK N   1      35.898  14.365   7.960  0.00  0.00    -0.268 OA
HETATM   13  N   UNK N   1      34.277  15.813   8.460  0.00  0.00    -0.356 N 
HETATM   14  H   UNK N   1      33.806  16.277   9.189  0.00  0.00     0.162 HD
BRANCH  13  15
HETATM   15  C   UNK N   1      33.853  16.115   7.120  0.00  0.00     0.127 C 
BRANCH  15  16
HETATM   16  C   UNK N   1      32.342  16.306   7.182  0.00  0.00     0.007 C 
HETATM   17  C   UNK N   1      31.859  16.959   8.468  0.00  0.00     0.032 C 
HETATM   18  C   UNK N   1      30.331  17.061   8.378  0.00  0.00     0.168 C 
HETATM   19  O   UNK N   1      29.964  17.870   7.283  0.00  0.00    -0.391 OA
HETATM   20  C   UNK N   1      30.289  17.158   6.113  0.00  0.00     0.168 C 
HETATM   21  C   UNK N   1      31.807  17.079   5.976  0.00  0.00     0.032 C 
ENDBRANCH  15  16
ENDBRANCH  13  15
ENDBRANCH   6  11
BRANCH   7  22
HETATM   22  C   UNK N   1      34.653  12.256  10.274  0.00  0.00     0.434 C 
HETATM   23  F   UNK N   1      35.577  11.675   9.428  0.00  0.00    -0.165 F 
HETATM   24  F   UNK N   1      34.319  11.312  11.231  0.00  0.00    -0.165 F 
HETATM   25  F   UNK N   1      33.496  12.589   9.592  0.00  0.00    -0.165 F 
ENDBRANCH   7  22
BRANCH   1  26
HETATM   26  C   UNK N   1      36.716  12.771  14.790  0.00  0.00     0.071 A 
HETATM   27  C   UNK N   1      37.657  11.907  14.219  0.00  0.00     0.033 A 
HETATM   28  C   UNK N   1      37.836  10.617  14.727  0.00  0.00     0.026 A 
HETATM   29  C   UNK N   1      37.071  10.175  15.806  0.00  0.00     0.035 A 
HETATM   30  C   UNK N   1      36.107  11.012  16.365  0.00  0.00     0.050 A 
HETATM   31 Cl   UNK N   1      37.307   8.567  16.455  0.00  0.00    -0.084 Cl
HETATM   32  C   UNK N   1      35.915  12.304  15.871  0.00  0.00     0.062 A 
HETATM   33 Cl   UNK N   1      34.628  13.259  16.603  0.00  0.00    -0.082 Cl
ENDBRANCH   1  26
TORSDOF 5
ENDMDL
MODEL 8
REMARK VINA RESULT:      -6.8      3.704      5.740
REMARK  5 active torsions:
REMARK  status: ('A' for Active; 'I' for Inactive)
REMARK    1  A    between atoms: C_3  and  N_9 
REMARK       I    between atoms: N_9  and  C_10 
REMARK    2  A    between atoms: C_14  and  C_22 
REMARK    3  A    between atoms: C_15  and  C_18 
REMARK       I    between atoms: C_22  and  N_24 
REMARK    4  A    between atoms: N_24  and  C_25 
REMARK    5  A    between atoms: C_25  and  C_26 
ROOT
HETATM    1  N   UNK N   1      32.690  13.145   7.885  0.00  0.00    -0.190 N 
HETATM    2  C   UNK N   1      33.495  13.210   9.049  0.00  0.00     0.683 A 
HETATM    3  N   UNK N   1      33.720  12.102   9.802  0.00  0.00    -0.201 N 
ATOM      4  HN  UNK N   1      33.260  11.224   9.559  1.00  0.00     0.183 HD
HETATM    5  C   UNK N   1      34.553  12.153  10.875  0.00  0.00     0.125 A 
HETATM    6  C   UNK N   1      35.200  13.350  11.230  0.00  0.00     0.080 A 
HETATM    7  C   UNK N   1      34.908  14.507  10.444  0.00  0.00     0.149 A 
HETATM    8  N   UNK N   1      34.064  14.384   9.399  0.00  0.00    -0.185 N 
ATOM      9  HN  UNK N   1      33.847  15.215   8.849  1.00  0.00     0.184 HD
HETATM   10  H   UNK N   1      32.086  12.377   7.761  0.00  0.00     0.184 HD
ENDROOT
BRANCH   6  11
HETATM   11  C   UNK N   1      36.163  13.336  12.374  0.00  0.00     0.255 C 
HETATM   12  O   UNK N   1      37.325  12.992  12.201  0.00  0.00    -0.268 OA
HETATM   13  N   UNK N   1      35.751  13.738  13.595  0.00  0.00    -0.356 N 
HETATM   14  H   UNK N   1      34.802  13.985  13.683  0.00  0.00     0.162 HD
BRANCH  13  15
HETATM   15  C   UNK N   1      36.560  13.843  14.779  0.00  0.00     0.127 C 
BRANCH  15  16
HETATM   16  C   UNK N   1      35.778  13.156  15.892  0.00  0.00     0.007 C 
HETATM   17  C   UNK N   1      36.161  11.700  16.104  0.00  0.00     0.032 C 
HETATM   18  C   UNK N   1      35.279  11.159  17.236  0.00  0.00     0.168 C 
HETATM   19  O   UNK N   1      35.521  11.878  18.424  0.00  0.00    -0.391 OA
HETATM   20  C   UNK N   1      35.011  13.176  18.236  0.00  0.00     0.168 C 
HETATM   21  C   UNK N   1      35.873  13.914  17.217  0.00  0.00     0.032 C 
ENDBRANCH  15  16
ENDBRANCH  13  15
ENDBRANCH   6  11
BRANCH   7  22
HETATM   22  C   UNK N   1      35.509  15.873  10.667  0.00  0.00     0.434 C 
HETATM   23  F   UNK N   1      36.877  15.817  10.483  0.00  0.00    -0.165 F 
HETATM   24  F   UNK N   1      35.006  16.773   9.742  0.00  0.00    -0.165 F 
HETATM   25  F   UNK N   1      35.197  16.348  11.928  0.00  0.00    -0.165 F 
ENDBRANCH   7  22
BRANCH   1  26
HETATM   26  C   UNK N   1      32.732  14.165   6.887  0.00  0.00     0.071 A 
HETATM   27  C   UNK N   1      31.686  15.092   6.832  0.00  0.00     0.033 A 
HETATM   28  C   UNK N   1      31.707  16.134   5.899  0.00  0.00     0.026 A 
HETATM   29  C   UNK N   1      32.772  16.254   5.007  0.00  0.00     0.035 A 
HETATM   30  C   UNK N   1      33.806  15.321   5.026  0.00  0.00     0.050 A 
HETATM   31 Cl   UNK N   1      32.811  17.569   3.852  0.00  0.00    -0.084 Cl
HETATM   32  C   UNK N   1      33.801  14.274   5.951  0.00  0.00     0.062 A 
HETATM   33 Cl   UNK N   1      35.120  13.110   5.852  0.00  0.00    -0.082 Cl
ENDBRANCH   1  26
TORSDOF 5
ENDMDL
MODEL 9
REMARK VINA RESULT:      -6.7      4.966      9.141
REMARK  5 active torsions:
REMARK  status: ('A' for Active; 'I' for Inactive)
REMARK    1  A    between atoms: C_3  and  N_9 
REMARK       I    between atoms: N_9  and  C_10 
REMARK    2  A    between atoms: C_14  and  C_22 
REMARK    3  A    between atoms: C_15  and  C_18 
REMARK       I    between atoms: C_22  and  N_24 
REMARK    4  A    between atoms: N_24  and  C_25 
REMARK    5  A    between atoms: C_25  and  C_26 
ROOT
HETATM    1  N   UNK N   1      36.788  14.009  12.382  0.00  0.00    -0.190 N 
HETATM    2  C   UNK N   1      35.974  14.748  11.490  0.00  0.00     0.683 A 
HETATM    3  N   UNK N   1      36.137  16.089  11.346  0.00  0.00    -0.201 N 
ATOM      4  HN  UNK N   1      36.816  16.581  11.928  1.00  0.00     0.183 HD
HETATM    5  C   UNK N   1      35.403  16.781  10.434  0.00  0.00     0.125 A 
HETATM    6  C   UNK N   1      34.462  16.127   9.619  0.00  0.00     0.080 A 
HETATM    7  C   UNK N   1      34.283  14.725   9.826  0.00  0.00     0.149 A 
HETATM    8  N   UNK N   1      35.039  14.105  10.756  0.00  0.00    -0.185 N 
ATOM      9  HN  UNK N   1      34.900  13.106  10.910  1.00  0.00     0.184 HD
HETATM   10  H   UNK N   1      37.288  14.488  13.084  0.00  0.00     0.184 HD
ENDROOT
BRANCH   6  11
HETATM   11  C   UNK N   1      33.733  16.919   8.582  0.00  0.00     0.255 C 
HETATM   12  O   UNK N   1      32.684  17.486   8.860  0.00  0.00    -0.268 OA
HETATM   13  N   UNK N   1      34.255  17.034   7.343  0.00  0.00    -0.356 N 
HETATM   14  H   UNK N   1      35.089  16.542   7.168  0.00  0.00     0.162 HD
BRANCH  13  15
HETATM   15  C   UNK N   1      33.716  17.803   6.255  0.00  0.00     0.127 C 
BRANCH  15  16
HETATM   16  C   UNK N   1      33.176  16.797   5.247  0.00  0.00     0.007 C 
HETATM   17  C   UNK N   1      32.688  17.427   3.951  0.00  0.00     0.032 C 
HETATM   18  C   UNK N   1      32.167  16.290   3.063  0.00  0.00     0.168 C 
HETATM   19  O   UNK N   1      33.209  15.385   2.773  0.00  0.00    -0.391 OA
HETATM   20  C   UNK N   1      33.521  14.715   3.970  0.00  0.00     0.168 C 
HETATM   21  C   UNK N   1      34.185  15.691   4.936  0.00  0.00     0.032 C 
ENDBRANCH  15  16
ENDBRANCH  13  15
ENDBRANCH   6  11
BRANCH   7  22
HETATM   22  C   UNK N   1      33.328  13.854   9.047  0.00  0.00     0.434 C 
HETATM   23  F   UNK N   1      32.039  14.330   9.191  0.00  0.00    -0.165 F 
HETATM   24  F   UNK N   1      33.634  13.897   7.697  0.00  0.00    -0.165 F 
HETATM   25  F   UNK N   1      33.418  12.535   9.457  0.00  0.00    -0.165 F 
ENDBRANCH   7  22
BRANCH   1  26
HETATM   26  C   UNK N   1      36.904  12.589  12.291  0.00  0.00     0.071 A 
HETATM   27  C   UNK N   1      37.762  12.048  11.328  0.00  0.00     0.033 A 
HETATM   28  C   UNK N   1      37.940  10.664  11.232  0.00  0.00     0.026 A 
HETATM   29  C   UNK N   1      37.255   9.808  12.095  0.00  0.00     0.035 A 
HETATM   30  C   UNK N   1      36.373  10.329  13.038  0.00  0.00     0.050 A 
HETATM   31 Cl   UNK N   1      37.492   8.077  11.991  0.00  0.00    -0.084 Cl
HETATM   32  C   UNK N   1      36.183  11.709  13.148  0.00  0.00     0.062 A 
HETATM   33 Cl   UNK N   1      34.998  12.264  14.327  0.00  0.00    -0.082 Cl
ENDBRANCH   1  26
TORSDOF 5
ENDMDL
