REMARK WARNING: 32 MAX_TORS EXCEEDED!!!
REMARK  45 active torsions:
REMARK  status: ('A' for Active; 'I' for Inactive)
REMARK    1  A    between atoms: C_2  and  C_3 
REMARK    2  A    between atoms: C_2  and  N_46 
REMARK       I    between atoms: C_3  and  N_5 
REMARK    3  A    between atoms: C_6  and  N_5 
REMARK    4  A    between atoms: C_6  and  C_7 
REMARK    5  A    between atoms: C_6  and  C_11 
REMARK    6  A    between atoms: C_7  and  C_8 
REMARK    7  A    between atoms: C_8  and  O_10 
REMARK       I    between atoms: C_11  and  N_13 
REMARK    8  A    between atoms: C_14  and  N_13 
REMARK    9  A    between atoms: C_14  and  C_15 
REMARK   10  A    between atoms: C_14  and  C_19 
REMARK   11  A    between atoms: C_15  and  C_16 
REMARK   12  A    between atoms: C_16  and  O_18 
REMARK       I    between atoms: C_19  and  N_21 
REMARK   13  A    between atoms: N_21  and  C_22 
REMARK   14  A    between atoms: C_22  and  C_24 
REMARK       I    between atoms: C_24  and  N_26 
REMARK   15  A    between atoms: N_26  and  C_27 
REMARK   16  A    between atoms: C_27  and  C_28 
REMARK       I    between atoms: C_28  and  N_30 
REMARK   17  A    between atoms: C_31  and  N_30 
REMARK   18  A    between atoms: C_31  and  C_32 
REMARK   19  A    between atoms: C_31  and  C_36 
REMARK   20  A    between atoms: C_32  and  C_33 
REMARK       I    between atoms: C_36  and  N_38 
REMARK   21  A    between atoms: C_39  and  N_38 
REMARK   22  A    between atoms: C_39  and  C_40 
REMARK   23  A    between atoms: C_39  and  C_43 
REMARK   24  A    between atoms: C_43  and  O_45 
REMARK       I    between atoms: N_46  and  C_47 
REMARK   25  A    between atoms: C_49  and  C_47 
REMARK       I    between atoms: N_53  and  C_54 
REMARK   26  A    between atoms: C_54  and  C_56 
REMARK   27  A    between atoms: C_56  and  C_57 
REMARK   28  A    between atoms: C_56  and  N_62 
REMARK   29  A    between atoms: C_57  and  C_58 
REMARK   30  A    between atoms: C_58  and  C_59 
REMARK   31  A    between atoms: C_59  and  C_60 
REMARK   32  A    between atoms: C_60  and  N_61 
REMARK       I    between atoms: N_62  and  C_63 
REMARK   33  A    between atoms: C_63  and  C_65 
REMARK   34  A    between atoms: C_65  and  N_66 
REMARK       I    between atoms: N_66  and  C_67 
REMARK   35  A    between atoms: C_69  and  C_67 
REMARK       I    between atoms: N_73  and  C_74 
REMARK   36  A    between atoms: C_76  and  C_74 
REMARK       I    between atoms: N_80  and  C_81 
REMARK   37  A    between atoms: C_83  and  C_81 
REMARK       I    between atoms: N_87  and  C_88 
REMARK   38  A    between atoms: C_88  and  C_90 
REMARK   39  A    between atoms: C_90  and  C_91 
REMARK   40  A    between atoms: C_90  and  N_96 
REMARK   41  A    between atoms: C_91  and  C_92 
REMARK   42  A    between atoms: C_92  and  C_93 
REMARK   43  A    between atoms: C_93  and  O_95 
REMARK       I    between atoms: N_96  and  C_97 
REMARK   44  A    between atoms: C_97  and  C_99 
REMARK   45  A    between atoms: C_99  and  N_100 
ROOT
HETATM    1  C   UNK N   1      34.037   8.784  -1.017  0.00  0.00     0.179 C 
HETATM    2  C   UNK N   1      33.266  10.062  -1.265  0.00  0.00     0.037 C 
HETATM    3  C   UNK N   1      33.854  11.076  -0.284  0.00  0.00     0.022 C 
HETATM    4  C   UNK N   1      34.476  10.262   0.844  0.00  0.00     0.127 C 
HETATM    5  N   UNK N   1      34.619   8.952   0.292  0.00  0.00    -0.337 N 
HETATM    6  C   UNK N   1      35.328   7.973   0.903  0.00  0.00     0.243 C 
HETATM    7  O   UNK N   1      35.700   8.106   2.066  0.00  0.00    -0.271 OA
ENDROOT
BRANCH   1   8
HETATM    8  C   UNK N   1      33.165   7.543  -1.153  0.00  0.00     0.241 C 
HETATM    9  N   UNK N   1      32.475   6.970  -0.123  0.00  0.00    -0.346 N 
HETATM   10  H   UNK N   1      32.061   6.099  -0.321  0.00  0.00     0.163 HD
HETATM   11  O   UNK N   1      33.158   6.975  -2.234  0.00  0.00    -0.271 OA
BRANCH   9  12
HETATM   12  C   UNK N   1      32.270   7.469   1.220  0.00  0.00     0.172 C 
HETATM   13  C   UNK N   1      31.599   6.416   2.084  0.00  0.00     0.042 C 
BRANCH  12  14
HETATM   14  C   UNK N   1      31.482   8.745   1.226  0.00  0.00     0.240 C 
HETATM   15  O   UNK N   1      32.037   9.752   1.611  0.00  0.00    -0.271 OA
HETATM   16  N   UNK N   1      30.181   8.859   0.889  0.00  0.00    -0.346 N 
HETATM   17  H   UNK N   1      29.909   9.784   0.692  0.00  0.00     0.163 HD
BRANCH  16  18
HETATM   18  C   UNK N   1      29.100   7.902   0.758  0.00  0.00     0.186 C 
BRANCH  18  19
HETATM   19  C   UNK N   1      27.828   8.737   0.953  0.00  0.00     0.144 C 
BRANCH  19  20
HETATM   20  C   UNK N   1      27.929  10.151   0.396  0.00  0.00     0.141 C 
HETATM   21  O   UNK N   1      28.130  10.338  -0.794  0.00  0.00    -0.650 OA
BRANCH  20  22
HETATM   22  O   UNK N   1      27.876  11.204   1.234  0.00  0.00    -0.776 OA
HETATM   23  H   UNK N   1      28.493  11.602   1.817  0.00  0.00     0.167 HD
ENDBRANCH  20  22
ENDBRANCH  19  20
ENDBRANCH  18  19
BRANCH  18  24
HETATM   24  C   UNK N   1      29.135   6.929  -0.436  0.00  0.00     0.241 C 
HETATM   25  O   UNK N   1      30.187   6.416  -0.734  0.00  0.00    -0.271 OA
HETATM   26  N   UNK N   1      28.044   6.468  -1.094  0.00  0.00    -0.345 N 
HETATM   27  H   UNK N   1      28.220   5.915  -1.889  0.00  0.00     0.163 HD
BRANCH  26  28
HETATM   28  C   UNK N   1      26.665   6.689  -0.773  0.00  0.00     0.186 C 
BRANCH  28  29
HETATM   29  C   UNK N   1      25.846   5.489  -1.234  0.00  0.00     0.144 C 
BRANCH  29  30
HETATM   30  C   UNK N   1      26.118   4.300  -0.361  0.00  0.00     0.141 C 
HETATM   31  O   UNK N   1      25.229   3.844   0.340  0.00  0.00    -0.650 OA
BRANCH  30  32
HETATM   32  O   UNK N   1      27.338   3.731  -0.347  0.00  0.00    -0.776 OA
HETATM   33  H   UNK N   1      27.419   2.798  -0.338  0.00  0.00     0.167 HD
ENDBRANCH  30  32
ENDBRANCH  29  30
ENDBRANCH  28  29
BRANCH  28  34
HETATM   34  C   UNK N   1      26.157   7.984  -1.344  0.00  0.00     0.241 C 
HETATM   35  O   UNK N   1      26.507   8.348  -2.455  0.00  0.00    -0.271 OA
HETATM   36  N   UNK N   1      25.333   8.770  -0.604  0.00  0.00    -0.346 N 
HETATM   37  H   UNK N   1      25.091   9.665  -0.935  0.00  0.00     0.163 HD
BRANCH  36  38
HETATM   38  C   UNK N   1      24.803   8.313   0.667  0.00  0.00     0.172 C 
HETATM   39  C   UNK N   1      24.173   9.430   1.475  0.00  0.00     0.042 C 
BRANCH  38  40
HETATM   40  C   UNK N   1      23.896   7.106   0.515  0.00  0.00     0.240 C 
HETATM   41  O   UNK N   1      23.862   6.292   1.423  0.00  0.00    -0.271 OA
HETATM   42  N   UNK N   1      23.182   6.857  -0.623  0.00  0.00    -0.351 N 
HETATM   43  H   UNK N   1      22.741   5.981  -0.710  0.00  0.00     0.163 HD
BRANCH  42  44
HETATM   44  C   UNK N   1      23.034   7.806  -1.712  0.00  0.00     0.225 C 
BRANCH  44  45
HETATM   45  C   UNK N   1      22.128   8.869  -1.213  0.00  0.00     0.236 C 
HETATM   46  O   UNK N   1      22.591   9.927  -0.820  0.00  0.00    -0.272 OA
HETATM   47  N   UNK N   1      20.886   8.499  -0.871  0.00  0.00    -0.346 N 
HETATM   48  H   UNK N   1      20.240   8.269  -1.577  0.00  0.00     0.163 HD
BRANCH  47  49
HETATM   49  C   UNK N   1      20.476   8.432   0.509  0.00  0.00     0.177 C 
BRANCH  49  50
HETATM   50  C   UNK N   1      19.532   9.589   0.878  0.00  0.00     0.038 C 
BRANCH  50  51
HETATM   51  C   UNK N   1      19.924  10.941   0.307  0.00  0.00    -0.020 C 
HETATM   52  C   UNK N   1      19.384  11.063  -1.107  0.00  0.00     0.009 C 
HETATM   53  C   UNK N   1      19.297  12.026   1.152  0.00  0.00     0.009 C 
ENDBRANCH  50  51
ENDBRANCH  49  50
BRANCH  49  54
HETATM   54  C   UNK N   1      19.755   7.113   0.585  0.00  0.00     0.241 C 
HETATM   55  O   UNK N   1      20.319   6.098   0.200  0.00  0.00    -0.271 OA
HETATM   56  N   UNK N   1      18.419   7.138   0.763  0.00  0.00    -0.345 N 
HETATM   57  H   UNK N   1      18.058   7.732   1.460  0.00  0.00     0.163 HD
BRANCH  56  58
HETATM   58  C   UNK N   1      17.483   6.349  -0.003  0.00  0.00     0.185 C 
BRANCH  58  59
HETATM   59  C   UNK N   1      16.116   7.042   0.079  0.00  0.00     0.010 C 
HETATM   60  C   UNK N   1      15.182   6.507  -0.986  0.00  0.00     0.012 C 
HETATM   61  C   UNK N   1      16.250   8.547  -0.144  0.00  0.00     0.012 C 
ENDBRANCH  58  59
BRANCH  58  62
HETATM   62  C   UNK N   1      17.469   4.871   0.310  0.00  0.00     0.163 C 
HETATM   63  O   UNK N   1      18.470   4.197   0.131  0.00  0.00    -0.648 OA
BRANCH  62  64
HETATM   64  O   UNK N   1      16.327   4.266   0.689  0.00  0.00    -0.775 OA
HETATM   65  H   UNK N   1      15.565   4.744   0.953  0.00  0.00     0.167 HD
ENDBRANCH  62  64
ENDBRANCH  58  62
ENDBRANCH  56  58
ENDBRANCH  49  54
ENDBRANCH  47  49
ENDBRANCH  44  45
ENDBRANCH  42  44
ENDBRANCH  38  40
ENDBRANCH  36  38
ENDBRANCH  28  34
ENDBRANCH  26  28
ENDBRANCH  18  24
ENDBRANCH  16  18
ENDBRANCH  12  14
ENDBRANCH   9  12
ENDBRANCH   1   8
BRANCH   6  66
HETATM   66  C   UNK N   1      35.749   6.786   0.106  0.00  0.00     0.176 C 
BRANCH  66  67
HETATM   67  C   UNK N   1      36.808   7.307  -0.889  0.00  0.00     0.035 C 
BRANCH  67  68
HETATM   68  C   UNK N   1      38.009   7.919  -0.153  0.00  0.00     0.004 C 
BRANCH  68  69
HETATM   69  C   UNK N   1      38.439   9.253  -0.737  0.00  0.00     0.019 C 
BRANCH  69  70
HETATM   70  C   UNK N   1      37.779  10.402   0.004  0.00  0.00     0.111 C 
BRANCH  70  71
HETATM   71  N   UNK N   1      38.528  11.625  -0.228  0.00  0.00    -0.430 N 
HETATM   72  H   UNK N   1      39.534  11.599  -0.392  0.00  0.00     0.149 HD
HETATM   73  H   UNK N   1      38.041  12.521  -0.228  0.00  0.00     0.149 HD
ENDBRANCH  70  71
ENDBRANCH  69  70
ENDBRANCH  68  69
ENDBRANCH  67  68
ENDBRANCH  66  67
BRANCH  66  74
HETATM   74  N   UNK N   1      36.327   5.760   0.917  0.00  0.00    -0.346 N 
HETATM   75  C   UNK N   1      36.610   4.552   0.399  0.00  0.00     0.236 C 
HETATM   76  O   UNK N   1      36.252   4.247  -0.733  0.00  0.00    -0.272 OA
HETATM   77  H   UNK N   1      36.521   5.941   1.865  0.00  0.00     0.163 HD
BRANCH  75  78
HETATM   78  C   UNK N   1      37.563   3.705   1.120  0.00  0.00     0.225 C 
BRANCH  78  79
HETATM   79  N   UNK N   1      38.807   3.833   0.413  0.00  0.00    -0.351 N 
HETATM   80  C   UNK N   1      39.629   4.914   0.496  0.00  0.00     0.241 C 
HETATM   81  O   UNK N   1      39.372   5.827   1.268  0.00  0.00    -0.271 OA
HETATM   82  H   UNK N   1      39.084   3.090  -0.170  0.00  0.00     0.163 HD
BRANCH  80  83
HETATM   83  C   UNK N   1      40.913   4.922  -0.324  0.00  0.00     0.179 C 
HETATM   84  C   UNK N   1      41.858   6.028   0.122  0.00  0.00     0.037 C 
HETATM   85  C   UNK N   1      42.838   5.367   1.092  0.00  0.00     0.022 C 
HETATM   86  C   UNK N   1      42.713   3.861   0.887  0.00  0.00     0.127 C 
HETATM   87  N   UNK N   1      41.604   3.707  -0.014  0.00  0.00    -0.337 N 
HETATM   88  C   UNK N   1      41.126   2.500  -0.433  0.00  0.00     0.243 C 
HETATM   89  O   UNK N   1      40.243   2.473  -1.291  0.00  0.00    -0.271 OA
BRANCH  88  90
HETATM   90  C   UNK N   1      41.551   1.205   0.207  0.00  0.00     0.179 C 
HETATM   91  C   UNK N   1      42.908   0.788  -0.326  0.00  0.00     0.037 C 
HETATM   92  C   UNK N   1      42.728  -0.601  -0.932  0.00  0.00     0.022 C 
HETATM   93  C   UNK N   1      41.237  -0.901  -0.939  0.00  0.00     0.127 C 
HETATM   94  N   UNK N   1      40.640   0.144  -0.164  0.00  0.00    -0.337 N 
HETATM   95  C   UNK N   1      39.304   0.153   0.179  0.00  0.00     0.243 C 
HETATM   96  O   UNK N   1      38.868   1.038   0.896  0.00  0.00    -0.271 OA
BRANCH  95  97
HETATM   97  C   UNK N   1      38.353  -0.916  -0.338  0.00  0.00     0.179 C 
HETATM   98  C   UNK N   1      38.774  -2.268   0.215  0.00  0.00     0.037 C 
HETATM   99  C   UNK N   1      37.503  -2.969   0.670  0.00  0.00     0.022 C 
HETATM  100  C   UNK N   1      36.451  -1.889   0.804  0.00  0.00     0.127 C 
HETATM  101  N   UNK N   1      36.967  -0.764   0.076  0.00  0.00    -0.337 N 
HETATM  102  C   UNK N   1      36.161   0.289  -0.280  0.00  0.00     0.243 C 
HETATM  103  O   UNK N   1      36.618   1.219  -0.929  0.00  0.00    -0.271 OA
BRANCH 102 104
HETATM  104  C   UNK N   1      34.681   0.286   0.097  0.00  0.00     0.177 C 
BRANCH 104 105
HETATM  105  C   UNK N   1      33.939   1.565  -0.312  0.00  0.00     0.045 C 
BRANCH 105 106
HETATM  106  C   UNK N   1      32.743   1.798   0.604  0.00  0.00     0.112 C 
BRANCH 106 107
HETATM  107  C   UNK N   1      31.673   2.593  -0.070  0.00  0.00     0.139 C 
HETATM  108  O   UNK N   1      30.554   2.122  -0.194  0.00  0.00    -0.650 OA
BRANCH 107 109
HETATM  109  O   UNK N   1      31.929   3.837  -0.516  0.00  0.00    -0.776 OA
HETATM  110  H   UNK N   1      32.768   4.116  -0.826  0.00  0.00     0.167 HD
ENDBRANCH 107 109
ENDBRANCH 106 107
ENDBRANCH 105 106
ENDBRANCH 104 105
BRANCH 104 111
HETATM  111  N   UNK N   1      34.058  -0.866  -0.526  0.00  0.00    -0.346 N 
HETATM  112  C   UNK N   1      32.953  -1.487  -0.047  0.00  0.00     0.235 C 
HETATM  113  O   UNK N   1      32.382  -1.068   0.950  0.00  0.00    -0.272 OA
HETATM  114  H   UNK N   1      34.464  -1.220  -1.350  0.00  0.00     0.163 HD
BRANCH 112 115
HETATM  115  C   UNK N   1      32.461  -2.722  -0.744  0.00  0.00     0.214 C 
BRANCH 115 116
HETATM  116  N   UNK N   1      31.336  -3.320  -0.043  0.00  0.00    -0.422 N 
HETATM  117  H   UNK N   1      30.578  -2.846   0.448  0.00  0.00     0.150 HD
HETATM  118  H   UNK N   1      31.300  -4.340  -0.043  0.00  0.00     0.150 HD
ENDBRANCH 115 116
ENDBRANCH 112 115
ENDBRANCH 104 111
ENDBRANCH 102 104
ENDBRANCH  95  97
ENDBRANCH  88  90
ENDBRANCH  80  83
ENDBRANCH  78  79
ENDBRANCH  75  78
ENDBRANCH  66  74
ENDBRANCH   6  66
TORSDOF 45
