REMARK  8 active torsions:
REMARK  status: ('A' for Active; 'I' for Inactive)
REMARK    1  A    between atoms: C_4  and  O_10 
REMARK    2  A    between atoms: C_7  and  N_8 
REMARK    3  A    between atoms: O_10  and  C_11 
REMARK    4  A    between atoms: C_18  and  C_21 
REMARK    5  A    between atoms: C_21  and  O_22 
REMARK    6  A    between atoms: O_22  and  C_23 
REMARK    7  A    between atoms: C_26  and  C_29 
REMARK    8  A    between atoms: C_29  and  C_30 
ROOT
HETATM    1  C   UNK N   1       4.063   3.276   1.132  0.00  0.00     0.078 A 
HETATM    2  C   UNK N   1       3.860   2.253   2.102  0.00  0.00     0.039 A 
HETATM    3  C   UNK N   1       2.787   1.354   1.982  0.00  0.00     0.035 A 
HETATM    4  C   UNK N   1       1.961   1.505   0.875  0.00  0.00     0.060 A 
HETATM    5  C   UNK N   1       2.099   2.552   0.011  0.00  0.00     0.065 A 
HETATM    6  C   UNK N   1       3.125   3.477   0.109  0.00  0.00     0.069 A 
HETATM    7  N   UNK N   1       1.248   2.393  -0.998  0.00  0.00    -0.337 N 
HETATM    8  C   UNK N   1       0.652   1.203  -0.778  0.00  0.00     0.108 A 
HETATM    9  N   UNK N   1       1.054   0.632   0.392  0.00  0.00    -0.342 N 
ATOM     10  HN  UNK N   1       0.742  -0.247   0.805  1.00  0.00     0.167 HD
HETATM   11  C   UNK N   1       1.134   3.224  -2.188  0.00  0.00     0.158 C 
ENDROOT
BRANCH   8  12
HETATM   12  C   UNK N   1      -0.081   0.497  -1.870  0.00  0.00     0.252 C 
BRANCH  12  13
HETATM   13  O   UNK N   1      -1.190  -0.217  -1.512  0.00  0.00    -0.344 OA
BRANCH  13  14
HETATM   14  C   UNK N   1      -2.329   0.340  -1.076  0.00  0.00     0.069 A 
HETATM   15  C   UNK N   1      -3.524  -0.059  -1.671  0.00  0.00     0.037 A 
HETATM   16  C   UNK N   1      -4.734   0.414  -1.187  0.00  0.00     0.010 A 
HETATM   17  C   UNK N   1      -4.756   1.267  -0.080  0.00  0.00    -0.056 A 
HETATM   18  C   UNK N   1      -3.559   1.708   0.494  0.00  0.00     0.010 A 
HETATM   19  C   UNK N   1      -2.340   1.260  -0.017  0.00  0.00     0.037 A 
BRANCH  17  20
HETATM   20  C   UNK N   1      -6.046   1.524   0.624  0.00  0.00     0.063 C 
BRANCH  20  21
HETATM   21  C   UNK N   1      -6.726   0.220   1.120  0.00  0.00     0.153 A 
HETATM   22  C   UNK N   1      -5.804  -0.983   1.216  0.00  0.00     0.239 A 
HETATM   23  O   UNK N   1      -4.816  -1.001   1.933  0.00  0.00    -0.272 OA
HETATM   24  N   UNK N   1      -6.097  -2.017   0.416  0.00  0.00    -0.287 N 
HETATM   25  C   UNK N   1      -7.195  -1.821  -0.320  0.00  0.00     0.287 A 
HETATM   26  H   UNK N   1      -5.557  -2.840   0.376  0.00  0.00     0.172 HD
HETATM   27  O   UNK N   1      -7.589  -2.659  -1.113  0.00  0.00    -0.260 OA
HETATM   28  S   UNK N   1      -8.049  -0.270  -0.062  0.00  0.00    -0.054 SA
ENDBRANCH  20  21
ENDBRANCH  17  20
ENDBRANCH  13  14
ENDBRANCH  12  13
ENDBRANCH   8  12
BRANCH   1  29
HETATM   29  O   UNK N   1       5.327   3.710   0.926  0.00  0.00    -0.311 OA
BRANCH  29  30
HETATM   30  C   UNK N   1       6.210   2.805   0.390  0.00  0.00     0.077 A 
HETATM   31  C   UNK N   1       5.733   1.596  -0.172  0.00  0.00     0.046 A 
HETATM   32  C   UNK N   1       6.593   0.610  -0.624  0.00  0.00    -0.033 A 
HETATM   33  C   UNK N   1       6.016  -0.654  -1.169  0.00  0.00     0.050 C 
HETATM   34  C   UNK N   1       7.973   0.807  -0.532  0.00  0.00     0.037 A 
HETATM   35  C   UNK N   1       8.472   2.020  -0.009  0.00  0.00    -0.033 A 
HETATM   36  C   UNK N   1       7.589   3.016   0.447  0.00  0.00     0.046 A 
HETATM   37  C   UNK N   1       9.939   2.250   0.094  0.00  0.00     0.050 C 
BRANCH  34  38
HETATM   38  N   UNK N   1       8.859  -0.209  -0.955  0.00  0.00    -0.398 N 
HETATM   39  H   UNK N   1       8.555  -1.098  -1.251  0.00  0.00     0.156 HD
HETATM   40  H   UNK N   1       9.826  -0.020  -0.955  0.00  0.00     0.156 HD
ENDBRANCH  34  38
ENDBRANCH  29  30
ENDBRANCH   1  29
TORSDOF 8
