MODEL 1
REMARK VINA RESULT:      -8.1      0.000      0.000
REMARK  4 active torsions:
REMARK  status: ('A' for Active; 'I' for Inactive)
REMARK    1  A    between atoms: N_29  and  C_18 
REMARK    2  A    between atoms: C_19  and  N_26 
REMARK    3  A    between atoms: C_20  and  C_22 
REMARK    4  A    between atoms: N_27  and  C_21 
REMARK       I    between atoms: N_28  and  C_22 
ROOT
HETATM    1  C   UNK N   1      32.713  15.005   9.419  0.00  0.00     0.292 C 
HETATM    2  C   UNK N   1      34.255  16.925   9.226  0.00  0.00     0.292 C 
HETATM    3  C   UNK N   1      32.953  14.679   7.942  0.00  0.00     0.154 C 
HETATM    4  C   UNK N   1      34.518  16.526   7.772  0.00  0.00     0.154 C 
HETATM    5  N   UNK N   1      33.804  15.790  10.044  0.00  0.00     0.098 N 
HETATM    6  N   UNK N   1      33.332  15.897   7.275  0.00  0.00    -0.362 N 
ENDROOT
BRANCH   5   7
HETATM    7  C   UNK N   1      34.953  14.994  10.495  0.00  0.00     0.242 C 
HETATM    8  C   UNK N   1      34.589  14.046  11.594  0.00  0.00     0.072 C 
HETATM    9  C   UNK N   1      35.940  13.782  12.205  0.00  0.00     0.171 C 
HETATM   10  N   UNK N   1      36.588  15.087  12.283  0.00  0.00    -0.407 N 
HETATM   11  C   UNK N   1      35.996  15.869  11.191  0.00  0.00     0.150 C 
HETATM   12  H   UNK N   1      37.297  15.390  12.951  0.00  0.00     0.154 HD
BRANCH   9  13
HETATM   13  C   UNK N   1      35.788  13.094  13.539  0.00  0.00     0.242 C 
HETATM   14  N   UNK N   1      36.579  12.025  13.855  0.00  0.00    -0.341 N 
HETATM   15  C   UNK N   1      36.433  11.318  15.099  0.00  0.00     0.137 C 
HETATM   16  C   UNK N   1      37.572  11.519  12.941  0.00  0.00     0.200 C 
HETATM   17  C   UNK N   1      37.494  10.233  15.124  0.00  0.00     0.095 C 
HETATM   18  S   UNK N   1      37.888   9.801  13.405  0.00  0.00    -0.148 SA
HETATM   19  O   UNK N   1      34.947  13.493  14.334  0.00  0.00    -0.271 OA
ENDBRANCH   9  13
ENDBRANCH   5   7
BRANCH   6  20
HETATM   20  C   UNK N   1      32.553  16.398   6.176  0.00  0.00     0.127 A 
HETATM   21  C   UNK N   1      32.966  16.289   4.856  0.00  0.00     0.076 A 
HETATM   22  C   UNK N   1      31.979  16.934   4.143  0.00  0.00     0.026 A 
HETATM   23  C   UNK N   1      31.940  17.100   2.666  0.00  0.00     0.070 C 
HETATM   24  N   UNK N   1      31.030  17.395   4.972  0.00  0.00    -0.297 N 
HETATM   25  N   UNK N   1      31.354  17.066   6.216  0.00  0.00    -0.240 N 
ATOM     26  HN  UNK N   1      30.198  17.913   4.693  1.00  0.00     0.187 HD
BRANCH  25  27
HETATM   27  C   UNK N   1      30.436  17.372   7.298  0.00  0.00     0.058 A 
HETATM   28  C   UNK N   1      29.078  17.053   7.239  0.00  0.00     0.031 A 
HETATM   29  C   UNK N   1      28.199  17.394   8.267  0.00  0.00     0.002 A 
HETATM   30  C   UNK N   1      28.672  18.091   9.375  0.00  0.00     0.000 A 
HETATM   31  C   UNK N   1      30.019  18.453   9.443  0.00  0.00     0.002 A 
HETATM   32  C   UNK N   1      30.893  18.103   8.407  0.00  0.00     0.031 A 
ENDBRANCH  25  27
ENDBRANCH   6  20
TORSDOF 4
ENDMDL
MODEL 2
REMARK VINA RESULT:      -7.9      3.567      9.574
REMARK  4 active torsions:
REMARK  status: ('A' for Active; 'I' for Inactive)
REMARK    1  A    between atoms: N_29  and  C_18 
REMARK    2  A    between atoms: C_19  and  N_26 
REMARK    3  A    between atoms: C_20  and  C_22 
REMARK    4  A    between atoms: N_27  and  C_21 
REMARK       I    between atoms: N_28  and  C_22 
ROOT
HETATM    1  C   UNK N   1      34.797  13.413  10.253  0.00  0.00     0.292 C 
HETATM    2  C   UNK N   1      36.430  15.174  10.828  0.00  0.00     0.292 C 
HETATM    3  C   UNK N   1      34.593  13.132  11.745  0.00  0.00     0.154 C 
HETATM    4  C   UNK N   1      36.149  14.907  12.308  0.00  0.00     0.154 C 
HETATM    5  N   UNK N   1      35.310  14.774   9.965  0.00  0.00     0.098 N 
HETATM    6  N   UNK N   1      35.792  13.527  12.438  0.00  0.00    -0.362 N 
ENDROOT
BRANCH   5   7
HETATM    7  C   UNK N   1      34.283  15.824   9.936  0.00  0.00     0.242 C 
HETATM    8  C   UNK N   1      33.164  15.495   8.999  0.00  0.00     0.072 C 
HETATM    9  C   UNK N   1      32.585  16.864   8.752  0.00  0.00     0.171 C 
HETATM   10  N   UNK N   1      33.737  17.737   8.549  0.00  0.00    -0.407 N 
HETATM   11  C   UNK N   1      34.823  17.111   9.313  0.00  0.00     0.150 C 
HETATM   12  H   UNK N   1      33.778  18.594   7.999  0.00  0.00     0.154 HD
BRANCH   9  13
HETATM   13  C   UNK N   1      31.633  16.828   7.583  0.00  0.00     0.242 C 
HETATM   14  N   UNK N   1      30.435  17.481   7.652  0.00  0.00    -0.341 N 
HETATM   15  C   UNK N   1      29.483  17.433   6.574  0.00  0.00     0.137 C 
HETATM   16  C   UNK N   1      30.037  18.216   8.827  0.00  0.00     0.200 C 
HETATM   17  C   UNK N   1      28.304  18.299   6.979  0.00  0.00     0.095 C 
HETATM   18  S   UNK N   1      28.234  18.330   8.793  0.00  0.00    -0.148 SA
HETATM   19  O   UNK N   1      31.935  16.205   6.574  0.00  0.00    -0.271 OA
ENDBRANCH   9  13
ENDBRANCH   5   7
BRANCH   6  20
HETATM   20  C   UNK N   1      36.534  12.571  13.212  0.00  0.00     0.127 A 
HETATM   21  C   UNK N   1      37.075  11.419  12.658  0.00  0.00     0.076 A 
HETATM   22  C   UNK N   1      37.642  10.767  13.731  0.00  0.00     0.026 A 
HETATM   23  C   UNK N   1      38.363   9.468  13.678  0.00  0.00     0.070 C 
HETATM   24  N   UNK N   1      37.465  11.478  14.856  0.00  0.00    -0.297 N 
HETATM   25  N   UNK N   1      36.804  12.589  14.558  0.00  0.00    -0.240 N 
ATOM     26  HN  UNK N   1      37.785  11.209  15.785  1.00  0.00     0.187 HD
BRANCH  25  27
HETATM   27  C   UNK N   1      36.566  13.578  15.593  0.00  0.00     0.058 A 
HETATM   28  C   UNK N   1      37.288  14.772  15.667  0.00  0.00     0.031 A 
HETATM   29  C   UNK N   1      37.081  15.691  16.694  0.00  0.00     0.002 A 
HETATM   30  C   UNK N   1      36.148  15.415  17.690  0.00  0.00     0.000 A 
HETATM   31  C   UNK N   1      35.437  14.213  17.659  0.00  0.00     0.002 A 
HETATM   32  C   UNK N   1      35.652  13.297  16.622  0.00  0.00     0.031 A 
ENDBRANCH  25  27
ENDBRANCH   6  20
TORSDOF 4
ENDMDL
MODEL 3
REMARK VINA RESULT:      -7.4      3.696      5.754
REMARK  4 active torsions:
REMARK  status: ('A' for Active; 'I' for Inactive)
REMARK    1  A    between atoms: N_29  and  C_18 
REMARK    2  A    between atoms: C_19  and  N_26 
REMARK    3  A    between atoms: C_20  and  C_22 
REMARK    4  A    between atoms: N_27  and  C_21 
REMARK       I    between atoms: N_28  and  C_22 
ROOT
HETATM    1  C   UNK N   1      29.655  17.011   6.357  0.00  0.00     0.292 C 
HETATM    2  C   UNK N   1      30.915  17.132   4.236  0.00  0.00     0.292 C 
HETATM    3  C   UNK N   1      28.891  15.796   5.820  0.00  0.00     0.154 C 
HETATM    4  C   UNK N   1      30.178  15.877   3.764  0.00  0.00     0.154 C 
HETATM    5  N   UNK N   1      30.966  17.232   5.702  0.00  0.00     0.098 N 
HETATM    6  N   UNK N   1      28.887  15.876   4.383  0.00  0.00    -0.362 N 
ENDROOT
BRANCH   5   7
HETATM    7  C   UNK N   1      32.064  16.414   6.234  0.00  0.00     0.242 C 
HETATM    8  C   UNK N   1      32.439  16.809   7.628  0.00  0.00     0.072 C 
HETATM    9  C   UNK N   1      33.835  16.248   7.718  0.00  0.00     0.171 C 
HETATM   10  N   UNK N   1      34.472  16.597   6.452  0.00  0.00    -0.407 N 
HETATM   11  C   UNK N   1      33.370  16.684   5.487  0.00  0.00     0.150 C 
HETATM   12  H   UNK N   1      35.466  16.747   6.277  0.00  0.00     0.154 HD
BRANCH   9  13
HETATM   13  C   UNK N   1      34.544  16.798   8.931  0.00  0.00     0.242 C 
HETATM   14  N   UNK N   1      34.981  15.955   9.913  0.00  0.00    -0.341 N 
HETATM   15  C   UNK N   1      35.622  16.447  11.103  0.00  0.00     0.137 C 
HETATM   16  C   UNK N   1      34.783  14.529   9.833  0.00  0.00     0.200 C 
HETATM   17  C   UNK N   1      36.007  15.238  11.936  0.00  0.00     0.095 C 
HETATM   18  S   UNK N   1      34.864  13.889  11.521  0.00  0.00    -0.148 SA
HETATM   19  O   UNK N   1      34.719  18.005   9.035  0.00  0.00    -0.271 OA
ENDBRANCH   9  13
ENDBRANCH   5   7
BRANCH   6  20
HETATM   20  C   UNK N   1      27.645  15.927   3.661  0.00  0.00     0.127 A 
HETATM   21  C   UNK N   1      27.154  14.847   2.942  0.00  0.00     0.076 A 
HETATM   22  C   UNK N   1      25.997  15.327   2.367  0.00  0.00     0.026 A 
HETATM   23  C   UNK N   1      25.077  14.557   1.488  0.00  0.00     0.070 C 
HETATM   24  N   UNK N   1      25.797  16.607   2.719  0.00  0.00    -0.297 N 
HETATM   25  N   UNK N   1      26.784  16.987   3.521  0.00  0.00    -0.240 N 
ATOM     26  HN  UNK N   1      25.016  17.190   2.421  1.00  0.00     0.187 HD
BRANCH  25  27
HETATM   27  C   UNK N   1      26.750  18.310   4.118  0.00  0.00     0.058 A 
HETATM   28  C   UNK N   1      27.870  19.144   4.153  0.00  0.00     0.031 A 
HETATM   29  C   UNK N   1      27.835  20.393   4.770  0.00  0.00     0.002 A 
HETATM   30  C   UNK N   1      26.665  20.823   5.391  0.00  0.00     0.000 A 
HETATM   31  C   UNK N   1      25.541  19.994   5.400  0.00  0.00     0.002 A 
HETATM   32  C   UNK N   1      25.586  18.742   4.776  0.00  0.00     0.031 A 
ENDBRANCH  25  27
ENDBRANCH   6  20
TORSDOF 4
ENDMDL
MODEL 4
REMARK VINA RESULT:      -7.2      6.949     11.741
REMARK  4 active torsions:
REMARK  status: ('A' for Active; 'I' for Inactive)
REMARK    1  A    between atoms: N_29  and  C_18 
REMARK    2  A    between atoms: C_19  and  N_26 
REMARK    3  A    between atoms: C_20  and  C_22 
REMARK    4  A    between atoms: N_27  and  C_21 
REMARK       I    between atoms: N_28  and  C_22 
ROOT
HETATM    1  C   UNK N   1      28.178  16.775   3.400  0.00  0.00     0.292 C 
HETATM    2  C   UNK N   1      29.085  17.833   5.439  0.00  0.00     0.292 C 
HETATM    3  C   UNK N   1      28.102  15.437   4.142  0.00  0.00     0.154 C 
HETATM    4  C   UNK N   1      28.930  16.494   6.163  0.00  0.00     0.154 C 
HETATM    5  N   UNK N   1      28.171  17.957   4.294  0.00  0.00     0.098 N 
HETATM    6  N   UNK N   1      29.088  15.456   5.190  0.00  0.00    -0.362 N 
ENDROOT
BRANCH   5   7
HETATM    7  C   UNK N   1      26.839  18.380   4.744  0.00  0.00     0.242 C 
HETATM    8  C   UNK N   1      25.909  18.634   3.599  0.00  0.00     0.072 C 
HETATM    9  C   UNK N   1      24.882  19.519   4.255  0.00  0.00     0.171 C 
HETATM   10  N   UNK N   1      25.648  20.469   5.055  0.00  0.00    -0.407 N 
HETATM   11  C   UNK N   1      26.885  19.760   5.400  0.00  0.00     0.150 C 
HETATM   12  H   UNK N   1      25.381  21.418   5.318  0.00  0.00     0.154 HD
BRANCH   9  13
HETATM   13  C   UNK N   1      24.004  20.167   3.213  0.00  0.00     0.242 C 
HETATM   14  N   UNK N   1      22.667  19.886   3.169  0.00  0.00    -0.341 N 
HETATM   15  C   UNK N   1      21.808  20.451   2.163  0.00  0.00     0.137 C 
HETATM   16  C   UNK N   1      22.052  18.974   4.100  0.00  0.00     0.200 C 
HETATM   17  C   UNK N   1      20.401  19.961   2.450  0.00  0.00     0.095 C 
HETATM   18  S   UNK N   1      20.532  18.376   3.327  0.00  0.00    -0.148 SA
HETATM   19  O   UNK N   1      24.497  20.938   2.400  0.00  0.00    -0.271 OA
ENDBRANCH   9  13
ENDBRANCH   5   7
BRANCH   6  20
HETATM   20  C   UNK N   1      30.130  14.466   5.228  0.00  0.00     0.127 A 
HETATM   21  C   UNK N   1      29.985  13.206   4.663  0.00  0.00     0.076 A 
HETATM   22  C   UNK N   1      31.166  12.567   4.967  0.00  0.00     0.026 A 
HETATM   23  C   UNK N   1      31.526  11.176   4.585  0.00  0.00     0.070 C 
HETATM   24  N   UNK N   1      31.975  13.384   5.660  0.00  0.00    -0.297 N 
HETATM   25  N   UNK N   1      31.367  14.553   5.816  0.00  0.00    -0.240 N 
ATOM     26  HN  UNK N   1      32.903  13.146   6.008  1.00  0.00     0.187 HD
BRANCH  25  27
HETATM   27  C   UNK N   1      32.074  15.646   6.457  0.00  0.00     0.058 A 
HETATM   28  C   UNK N   1      32.821  16.580   5.734  0.00  0.00     0.031 A 
HETATM   29  C   UNK N   1      33.532  17.598   6.367  0.00  0.00     0.002 A 
HETATM   30  C   UNK N   1      33.527  17.683   7.757  0.00  0.00     0.000 A 
HETATM   31  C   UNK N   1      32.817  16.741   8.505  0.00  0.00     0.002 A 
HETATM   32  C   UNK N   1      32.104  15.724   7.860  0.00  0.00     0.031 A 
ENDBRANCH  25  27
ENDBRANCH   6  20
TORSDOF 4
ENDMDL
MODEL 5
REMARK VINA RESULT:      -7.1      3.790     10.296
REMARK  4 active torsions:
REMARK  status: ('A' for Active; 'I' for Inactive)
REMARK    1  A    between atoms: N_29  and  C_18 
REMARK    2  A    between atoms: C_19  and  N_26 
REMARK    3  A    between atoms: C_20  and  C_22 
REMARK    4  A    between atoms: N_27  and  C_21 
REMARK       I    between atoms: N_28  and  C_22 
ROOT
HETATM    1  C   UNK N   1      34.838  10.814  12.012  0.00  0.00     0.292 C 
HETATM    2  C   UNK N   1      37.240  11.190  12.447  0.00  0.00     0.292 C 
HETATM    3  C   UNK N   1      34.543  11.063  13.495  0.00  0.00     0.154 C 
HETATM    4  C   UNK N   1      36.895  11.496  13.906  0.00  0.00     0.154 C 
HETATM    5  N   UNK N   1      36.105  11.425  11.543  0.00  0.00     0.098 N 
HETATM    6  N   UNK N   1      35.730  10.737  14.243  0.00  0.00    -0.362 N 
ENDROOT
BRANCH   5   7
HETATM    7  C   UNK N   1      36.009  12.849  11.198  0.00  0.00     0.242 C 
HETATM    8  C   UNK N   1      35.265  13.072   9.919  0.00  0.00     0.072 C 
HETATM    9  C   UNK N   1      35.757  14.444   9.537  0.00  0.00     0.171 C 
HETATM   10  N   UNK N   1      37.196  14.417   9.779  0.00  0.00    -0.407 N 
HETATM   11  C   UNK N   1      37.380  13.429  10.849  0.00  0.00     0.150 C 
HETATM   12  H   UNK N   1      37.916  14.965   9.309  0.00  0.00     0.154 HD
BRANCH   9  13
HETATM   13  C   UNK N   1      35.384  14.756   8.109  0.00  0.00     0.242 C 
HETATM   14  N   UNK N   1      34.752  15.929   7.805  0.00  0.00    -0.341 N 
HETATM   15  C   UNK N   1      34.342  16.241   6.462  0.00  0.00     0.137 C 
HETATM   16  C   UNK N   1      34.418  16.897   8.820  0.00  0.00     0.200 C 
HETATM   17  C   UNK N   1      33.721  17.626   6.494  0.00  0.00     0.095 C 
HETATM   18  S   UNK N   1      33.067  17.903   8.166  0.00  0.00    -0.148 SA
HETATM   19  O   UNK N   1      35.644  13.951   7.225  0.00  0.00    -0.271 OA
ENDBRANCH   9  13
ENDBRANCH   5   7
BRANCH   6  20
HETATM   20  C   UNK N   1      35.692   9.726  15.264  0.00  0.00     0.127 A 
HETATM   21  C   UNK N   1      35.810   8.372  14.980  0.00  0.00     0.076 A 
HETATM   22  C   UNK N   1      35.667   7.761  16.206  0.00  0.00     0.026 A 
HETATM   23  C   UNK N   1      35.716   6.297  16.460  0.00  0.00     0.070 C 
HETATM   24  N   UNK N   1      35.484   8.680  17.168  0.00  0.00    -0.297 N 
HETATM   25  N   UNK N   1      35.511   9.886  16.615  0.00  0.00    -0.240 N 
ATOM     26  HN  UNK N   1      35.347   8.484  18.158  1.00  0.00     0.187 HD
BRANCH  25  27
HETATM   27  C   UNK N   1      35.429  11.062  17.462  0.00  0.00     0.058 A 
HETATM   28  C   UNK N   1      35.513  10.988  18.855  0.00  0.00     0.031 A 
HETATM   29  C   UNK N   1      35.386  12.120  19.658  0.00  0.00     0.002 A 
HETATM   30  C   UNK N   1      35.145  13.359  19.070  0.00  0.00     0.000 A 
HETATM   31  C   UNK N   1      35.022  13.455  17.682  0.00  0.00     0.002 A 
HETATM   32  C   UNK N   1      35.154  12.313  16.885  0.00  0.00     0.031 A 
ENDBRANCH  25  27
ENDBRANCH   6  20
TORSDOF 4
ENDMDL
MODEL 6
REMARK VINA RESULT:      -7.1      2.770      3.886
REMARK  4 active torsions:
REMARK  status: ('A' for Active; 'I' for Inactive)
REMARK    1  A    between atoms: N_29  and  C_18 
REMARK    2  A    between atoms: C_19  and  N_26 
REMARK    3  A    between atoms: C_20  and  C_22 
REMARK    4  A    between atoms: N_27  and  C_21 
REMARK       I    between atoms: N_28  and  C_22 
ROOT
HETATM    1  C   UNK N   1      34.814  12.786  10.788  0.00  0.00     0.292 C 
HETATM    2  C   UNK N   1      35.584  15.107  11.134  0.00  0.00     0.292 C 
HETATM    3  C   UNK N   1      35.911  12.592   9.736  0.00  0.00     0.154 C 
HETATM    4  C   UNK N   1      36.707  14.851  10.127  0.00  0.00     0.154 C 
HETATM    5  N   UNK N   1      35.101  13.868  11.760  0.00  0.00     0.098 N 
HETATM    6  N   UNK N   1      36.230  13.883   9.186  0.00  0.00    -0.362 N 
ENDROOT
BRANCH   5   7
HETATM    7  C   UNK N   1      35.978  13.477  12.871  0.00  0.00     0.242 C 
HETATM    8  C   UNK N   1      35.251  12.696  13.919  0.00  0.00     0.072 C 
HETATM    9  C   UNK N   1      36.159  12.892  15.105  0.00  0.00     0.171 C 
HETATM   10  N   UNK N   1      36.517  14.306  15.085  0.00  0.00    -0.407 N 
HETATM   11  C   UNK N   1      36.434  14.696  13.673  0.00  0.00     0.150 C 
HETATM   12  H   UNK N   1      36.770  14.894  15.879  0.00  0.00     0.154 HD
BRANCH   9  13
HETATM   13  C   UNK N   1      35.469  12.453  16.373  0.00  0.00     0.242 C 
HETATM   14  N   UNK N   1      35.772  11.247  16.939  0.00  0.00    -0.341 N 
HETATM   15  C   UNK N   1      35.104  10.778  18.123  0.00  0.00     0.137 C 
HETATM   16  C   UNK N   1      36.746  10.358  16.356  0.00  0.00     0.200 C 
HETATM   17  C   UNK N   1      35.722   9.439  18.485  0.00  0.00     0.095 C 
HETATM   18  S   UNK N   1      36.372   8.697  16.960  0.00  0.00    -0.148 SA
HETATM   19  O   UNK N   1      34.630  13.180  16.888  0.00  0.00    -0.271 OA
ENDBRANCH   9  13
ENDBRANCH   5   7
BRANCH   6  20
HETATM   20  C   UNK N   1      36.085  14.131   7.778  0.00  0.00     0.127 A 
HETATM   21  C   UNK N   1      36.832  13.460   6.819  0.00  0.00     0.076 A 
HETATM   22  C   UNK N   1      36.432  14.026   5.629  0.00  0.00     0.026 A 
HETATM   23  C   UNK N   1      36.934  13.657   4.278  0.00  0.00     0.070 C 
HETATM   24  N   UNK N   1      35.502  14.968   5.848  0.00  0.00    -0.297 N 
HETATM   25  N   UNK N   1      35.265  15.037   7.152  0.00  0.00    -0.240 N 
ATOM     26  HN  UNK N   1      35.051  15.536   5.132  1.00  0.00     0.187 HD
BRANCH  25  27
HETATM   27  C   UNK N   1      34.224  15.921   7.643  0.00  0.00     0.058 A 
HETATM   28  C   UNK N   1      32.974  15.450   8.055  0.00  0.00     0.031 A 
HETATM   29  C   UNK N   1      31.969  16.315   8.481  0.00  0.00     0.002 A 
HETATM   30  C   UNK N   1      32.194  17.690   8.478  0.00  0.00     0.000 A 
HETATM   31  C   UNK N   1      33.422  18.189   8.039  0.00  0.00     0.002 A 
HETATM   32  C   UNK N   1      34.426  17.311   7.615  0.00  0.00     0.031 A 
ENDBRANCH  25  27
ENDBRANCH   6  20
TORSDOF 4
ENDMDL
MODEL 7
REMARK VINA RESULT:      -7.0      3.657      9.614
REMARK  4 active torsions:
REMARK  status: ('A' for Active; 'I' for Inactive)
REMARK    1  A    between atoms: N_29  and  C_18 
REMARK    2  A    between atoms: C_19  and  N_26 
REMARK    3  A    between atoms: C_20  and  C_22 
REMARK    4  A    between atoms: N_27  and  C_21 
REMARK       I    between atoms: N_28  and  C_22 
ROOT
HETATM    1  C   UNK N   1      35.065  14.113   9.344  0.00  0.00     0.292 C 
HETATM    2  C   UNK N   1      36.019  16.064  10.519  0.00  0.00     0.292 C 
HETATM    3  C   UNK N   1      34.487  13.611  10.671  0.00  0.00     0.154 C 
HETATM    4  C   UNK N   1      35.370  15.564  11.811  0.00  0.00     0.154 C 
HETATM    5  N   UNK N   1      35.328  15.571   9.319  0.00  0.00     0.098 N 
HETATM    6  N   UNK N   1      35.303  14.136  11.735  0.00  0.00    -0.362 N 
ENDROOT
BRANCH   5   7
HETATM    7  C   UNK N   1      34.154  16.402   9.024  0.00  0.00     0.242 C 
HETATM    8  C   UNK N   1      33.441  15.956   7.786  0.00  0.00     0.072 C 
HETATM    9  C   UNK N   1      32.680  17.206   7.427  0.00  0.00     0.171 C 
HETATM   10  N   UNK N   1      33.630  18.299   7.606  0.00  0.00    -0.407 N 
HETATM   11  C   UNK N   1      34.563  17.823   8.634  0.00  0.00     0.150 C 
HETATM   12  H   UNK N   1      33.643  19.197   7.122  0.00  0.00     0.154 HD
BRANCH   9  13
HETATM   13  C   UNK N   1      32.127  17.100   6.028  0.00  0.00     0.242 C 
HETATM   14  N   UNK N   1      30.779  17.174   5.814  0.00  0.00    -0.341 N 
HETATM   15  C   UNK N   1      30.213  17.033   4.499  0.00  0.00     0.137 C 
HETATM   16  C   UNK N   1      29.847  17.350   6.899  0.00  0.00     0.200 C 
HETATM   17  C   UNK N   1      28.712  17.214   4.637  0.00  0.00     0.095 C 
HETATM   18  S   UNK N   1      28.248  16.735   6.326  0.00  0.00    -0.148 SA
HETATM   19  O   UNK N   1      32.891  16.939   5.085  0.00  0.00    -0.271 OA
ENDBRANCH   9  13
ENDBRANCH   5   7
BRANCH   6  20
HETATM   20  C   UNK N   1      35.968  13.248  12.649  0.00  0.00     0.127 A 
HETATM   21  C   UNK N   1      35.550  13.074  13.961  0.00  0.00     0.076 A 
HETATM   22  C   UNK N   1      36.476  12.203  14.492  0.00  0.00     0.026 A 
HETATM   23  C   UNK N   1      36.482  11.685  15.886  0.00  0.00     0.070 C 
HETATM   24  N   UNK N   1      37.386  11.866  13.566  0.00  0.00    -0.297 N 
HETATM   25  N   UNK N   1      37.086  12.481  12.429  0.00  0.00    -0.240 N 
ATOM     26  HN  UNK N   1      38.178  11.240  13.711  1.00  0.00     0.187 HD
BRANCH  25  27
HETATM   27  C   UNK N   1      37.871  12.208  11.240  0.00  0.00     0.058 A 
HETATM   28  C   UNK N   1      38.514  13.217  10.519  0.00  0.00     0.031 A 
HETATM   29  C   UNK N   1      39.227  12.944   9.353  0.00  0.00     0.002 A 
HETATM   30  C   UNK N   1      39.287  11.640   8.870  0.00  0.00     0.000 A 
HETATM   31  C   UNK N   1      38.624  10.618   9.552  0.00  0.00     0.002 A 
HETATM   32  C   UNK N   1      37.913  10.901  10.724  0.00  0.00     0.031 A 
ENDBRANCH  25  27
ENDBRANCH   6  20
TORSDOF 4
ENDMDL
MODEL 8
REMARK VINA RESULT:      -7.0      3.544      9.383
REMARK  4 active torsions:
REMARK  status: ('A' for Active; 'I' for Inactive)
REMARK    1  A    between atoms: N_29  and  C_18 
REMARK    2  A    between atoms: C_19  and  N_26 
REMARK    3  A    between atoms: C_20  and  C_22 
REMARK    4  A    between atoms: N_27  and  C_21 
REMARK       I    between atoms: N_28  and  C_22 
ROOT
HETATM    1  C   UNK N   1      36.417  13.392   8.757  0.00  0.00     0.292 C 
HETATM    2  C   UNK N   1      36.663  14.476  10.962  0.00  0.00     0.292 C 
HETATM    3  C   UNK N   1      35.783  12.176   9.439  0.00  0.00     0.154 C 
HETATM    4  C   UNK N   1      35.966  13.271  11.597  0.00  0.00     0.154 C 
HETATM    5  N   UNK N   1      36.311  14.643   9.545  0.00  0.00     0.098 N 
HETATM    6  N   UNK N   1      36.268  12.125  10.794  0.00  0.00    -0.362 N 
ENDROOT
BRANCH   5   7
HETATM    7  C   UNK N   1      35.028  15.345   9.414  0.00  0.00     0.242 C 
HETATM    8  C   UNK N   1      34.629  15.534   7.984  0.00  0.00     0.072 C 
HETATM    9  C   UNK N   1      33.652  16.675   8.108  0.00  0.00     0.171 C 
HETATM   10  N   UNK N   1      34.277  17.618   9.029  0.00  0.00    -0.407 N 
HETATM   11  C   UNK N   1      35.137  16.795   9.886  0.00  0.00     0.150 C 
HETATM   12  H   UNK N   1      34.144  18.629   9.068  0.00  0.00     0.154 HD
BRANCH   9  13
HETATM   13  C   UNK N   1      33.349  17.256   6.749  0.00  0.00     0.242 C 
HETATM   14  N   UNK N   1      32.142  17.019   6.154  0.00  0.00    -0.341 N 
HETATM   15  C   UNK N   1      31.835  17.521   4.841  0.00  0.00     0.137 C 
HETATM   16  C   UNK N   1      31.127  16.216   6.788  0.00  0.00     0.200 C 
HETATM   17  C   UNK N   1      30.409  17.107   4.526  0.00  0.00     0.095 C 
HETATM   18  S   UNK N   1      30.044  15.603   5.477  0.00  0.00    -0.148 SA
HETATM   19  O   UNK N   1      34.193  17.934   6.179  0.00  0.00    -0.271 OA
ENDBRANCH   9  13
ENDBRANCH   5   7
BRANCH   6  20
HETATM   20  C   UNK N   1      36.983  10.972  11.268  0.00  0.00     0.127 A 
HETATM   21  C   UNK N   1      37.985  10.357  10.530  0.00  0.00     0.076 A 
HETATM   22  C   UNK N   1      38.358   9.282  11.306  0.00  0.00     0.026 A 
HETATM   23  C   UNK N   1      39.411   8.288  10.966  0.00  0.00     0.070 C 
HETATM   24  N   UNK N   1      37.640   9.251  12.439  0.00  0.00    -0.297 N 
HETATM   25  N   UNK N   1      36.805  10.283  12.442  0.00  0.00    -0.240 N 
ATOM     26  HN  UNK N   1      37.722   8.552  13.175  1.00  0.00     0.187 HD
BRANCH  25  27
HETATM   27  C   UNK N   1      35.977  10.528  13.609  0.00  0.00     0.058 A 
HETATM   28  C   UNK N   1      36.520  10.789  14.869  0.00  0.00     0.031 A 
HETATM   29  C   UNK N   1      35.712  10.977  15.990  0.00  0.00     0.002 A 
HETATM   30  C   UNK N   1      34.328  10.882  15.867  0.00  0.00     0.000 A 
HETATM   31  C   UNK N   1      33.762  10.589  14.625  0.00  0.00     0.002 A 
HETATM   32  C   UNK N   1      34.582  10.403  13.505  0.00  0.00     0.031 A 
ENDBRANCH  25  27
ENDBRANCH   6  20
TORSDOF 4
ENDMDL
MODEL 9
REMARK VINA RESULT:      -6.9      3.298     10.620
REMARK  4 active torsions:
REMARK  status: ('A' for Active; 'I' for Inactive)
REMARK    1  A    between atoms: N_29  and  C_18 
REMARK    2  A    between atoms: C_19  and  N_26 
REMARK    3  A    between atoms: C_20  and  C_22 
REMARK    4  A    between atoms: N_27  and  C_21 
REMARK       I    between atoms: N_28  and  C_22 
ROOT
HETATM    1  C   UNK N   1      34.921  11.869  13.056  0.00  0.00     0.292 C 
HETATM    2  C   UNK N   1      36.698  13.475  13.659  0.00  0.00     0.292 C 
HETATM    3  C   UNK N   1      34.288  12.070  14.437  0.00  0.00     0.154 C 
HETATM    4  C   UNK N   1      35.997  13.697  15.001  0.00  0.00     0.154 C 
HETATM    5  N   UNK N   1      35.775  13.000  12.619  0.00  0.00     0.098 N 
HETATM    6  N   UNK N   1      35.327  12.480  15.345  0.00  0.00    -0.362 N 
ENDROOT
BRANCH   5   7
HETATM    7  C   UNK N   1      35.044  14.127  12.026  0.00  0.00     0.242 C 
HETATM    8  C   UNK N   1      34.803  13.937  10.561  0.00  0.00     0.072 C 
HETATM    9  C   UNK N   1      34.562  15.359  10.124  0.00  0.00     0.171 C 
HETATM   10  N   UNK N   1      35.586  16.148  10.800  0.00  0.00    -0.407 N 
HETATM   11  C   UNK N   1      35.892  15.399  12.025  0.00  0.00     0.150 C 
HETATM   12  H   UNK N   1      35.999  17.028  10.490  0.00  0.00     0.154 HD
BRANCH   9  13
HETATM   13  C   UNK N   1      34.607  15.460   8.620  0.00  0.00     0.242 C 
HETATM   14  N   UNK N   1      33.649  16.168   7.950  0.00  0.00    -0.341 N 
HETATM   15  C   UNK N   1      33.635  16.250   6.514  0.00  0.00     0.137 C 
HETATM   16  C   UNK N   1      32.573  16.833   8.642  0.00  0.00     0.200 C 
HETATM   17  C   UNK N   1      32.470  17.144   6.128  0.00  0.00     0.095 C 
HETATM   18  S   UNK N   1      31.230  17.043   7.451  0.00  0.00    -0.148 SA
HETATM   19  O   UNK N   1      35.501  14.899   8.001  0.00  0.00    -0.271 OA
ENDBRANCH   9  13
ENDBRANCH   5   7
BRANCH   6  20
HETATM   20  C   UNK N   1      35.621  11.700  16.516  0.00  0.00     0.127 A 
HETATM   21  C   UNK N   1      35.226  12.085  17.789  0.00  0.00     0.076 A 
HETATM   22  C   UNK N   1      35.748  11.108  18.609  0.00  0.00     0.026 A 
HETATM   23  C   UNK N   1      35.608  11.048  20.089  0.00  0.00     0.070 C 
HETATM   24  N   UNK N   1      36.406  10.191  17.883  0.00  0.00    -0.297 N 
HETATM   25  N   UNK N   1      36.327  10.526  16.601  0.00  0.00    -0.240 N 
ATOM     26  HN  UNK N   1      36.886   9.372  18.255  1.00  0.00     0.187 HD
BRANCH  25  27
HETATM   27  C   UNK N   1      36.883   9.639  15.596  0.00  0.00     0.058 A 
HETATM   28  C   UNK N   1      36.347   8.376  15.334  0.00  0.00     0.031 A 
HETATM   29  C   UNK N   1      36.920   7.517  14.397  0.00  0.00     0.002 A 
HETATM   30  C   UNK N   1      38.070   7.906  13.716  0.00  0.00     0.000 A 
HETATM   31  C   UNK N   1      38.647   9.150  13.985  0.00  0.00     0.002 A 
HETATM   32  C   UNK N   1      38.062  10.006  14.926  0.00  0.00     0.031 A 
ENDBRANCH  25  27
ENDBRANCH   6  20
TORSDOF 4
ENDMDL
