MODEL 1
REMARK VINA RESULT:      -7.9      0.000      0.000
REMARK  6 active torsions:
REMARK  status: ('A' for Active; 'I' for Inactive)
REMARK    1  A    between atoms: C_5  and  N_8 
REMARK    2  A    between atoms: C_10  and  O_12 
REMARK    3  A    between atoms: N_14  and  C_22 
REMARK    4  A    between atoms: C_16  and  C_19 
REMARK    5  A    between atoms: C_19  and  O_21 
REMARK    6  A    between atoms: C_26  and  N_29 
ROOT
HETATM    1  C   UNK N   1      20.966  18.109   5.774  0.00  0.00     0.062 C 
HETATM    2  C   UNK N   1      20.697  18.002   4.409  0.00  0.00     0.047 A 
HETATM    3  C   UNK N   1      20.245  16.769   3.850  0.00  0.00     0.078 A 
HETATM    4  C   UNK N   1      19.936  15.701   4.777  0.00  0.00     0.086 C 
HETATM    5  C   UNK N   1      20.292  15.825   6.147  0.00  0.00     0.074 C 
HETATM    6  C   UNK N   1      20.818  17.024   6.622  0.00  0.00     0.140 C 
HETATM    7  F   UNK N   1      21.162  17.148   7.927  0.00  0.00    -0.204 F 
HETATM    8 Cl   UNK N   1      18.931  14.296   4.350  0.00  0.00    -0.080 Cl
HETATM    9  N   UNK N   1      20.123  16.670   2.461  0.00  0.00    -0.302 N 
HETATM   10  C   UNK N   1      20.299  17.785   1.686  0.00  0.00     0.121 A 
HETATM   11  C   UNK N   1      20.647  19.025   2.212  0.00  0.00     0.104 A 
HETATM   12  C   UNK N   1      20.881  19.126   3.588  0.00  0.00     0.202 A 
HETATM   13  O   UNK N   1      21.239  20.187   4.078  0.00  0.00    -0.286 OA
ENDROOT
BRANCH   9  14
HETATM   14  C   UNK N   1      20.033  15.408   1.729  0.00  0.00     0.153 A 
HETATM   15  C   UNK N   1      21.118  14.501   1.633  0.00  0.00     0.164 A 
HETATM   16  C   UNK N   1      20.951  13.298   0.939  0.00  0.00     0.092 A 
HETATM   17  F   UNK N   1      22.328  14.774   2.181  0.00  0.00    -0.202 F 
HETATM   18  C   UNK N   1      19.721  12.985   0.363  0.00  0.00     0.162 A 
HETATM   19  C   UNK N   1      18.656  13.866   0.521  0.00  0.00     0.140 A 
HETATM   20  F   UNK N   1      19.565  11.835  -0.337  0.00  0.00    -0.202 F 
HETATM   21  N   UNK N   1      18.831  15.018   1.212  0.00  0.00    -0.324 N 
ATOM     22  HN  UNK N   1      18.024  15.626   1.352  1.00  0.00     0.169 HD
BRANCH  19  23
HETATM   23  N   UNK N   1      17.400  13.581  -0.056  0.00  0.00    -0.383 N 
HETATM   24  H   UNK N   1      17.113  13.789  -0.974  0.00  0.00     0.157 HD
HETATM   25  H   UNK N   1      16.744  13.127   0.520  0.00  0.00     0.157 HD
ENDBRANCH  19  23
ENDBRANCH   9  14
BRANCH  11  26
HETATM   26  C   UNK N   1      20.808  20.176   1.282  0.00  0.00     0.181 C 
HETATM   27  O   UNK N   1      20.814  20.009   0.073  0.00  0.00    -0.646 OA
BRANCH  26  28
HETATM   28  O   UNK N   1      20.950  21.422   1.775  0.00  0.00    -0.772 OA
HETATM   29  H   UNK N   1      20.719  22.168   1.256  0.00  0.00     0.167 HD
ENDBRANCH  26  28
ENDBRANCH  11  26
BRANCH   5  30
HETATM   30  N   UNK N   1      20.191  14.731   7.061  0.00  0.00    -0.275 NA
HETATM   31  C   UNK N   1      21.222  13.756   7.164  0.00  0.00     0.128 A 
HETATM   32  C   UNK N   1      21.228  13.978   8.696  0.00  0.00     0.145 A 
HETATM   33  C   UNK N   1      20.107  15.005   8.457  0.00  0.00     0.128 A 
BRANCH  32  34
HETATM   34  O   UNK N   1      20.692  12.869   9.347  0.00  0.00    -0.393 OA
HETATM   35  H   UNK N   1      21.248  12.121   9.618  0.00  0.00     0.210 HD
ENDBRANCH  32  34
ENDBRANCH   5  30
TORSDOF 6
ENDMDL
MODEL 2
REMARK VINA RESULT:      -7.8      5.406      7.190
REMARK  6 active torsions:
REMARK  status: ('A' for Active; 'I' for Inactive)
REMARK    1  A    between atoms: C_5  and  N_8 
REMARK    2  A    between atoms: C_10  and  O_12 
REMARK    3  A    between atoms: N_14  and  C_22 
REMARK    4  A    between atoms: C_16  and  C_19 
REMARK    5  A    between atoms: C_19  and  O_21 
REMARK    6  A    between atoms: C_26  and  N_29 
ROOT
HETATM    1  C   UNK N   1      22.373  16.620   5.116  0.00  0.00     0.062 C 
HETATM    2  C   UNK N   1      23.486  17.392   4.778  0.00  0.00     0.047 A 
HETATM    3  C   UNK N   1      24.791  17.020   5.220  0.00  0.00     0.078 A 
HETATM    4  C   UNK N   1      24.919  15.742   5.889  0.00  0.00     0.086 C 
HETATM    5  C   UNK N   1      23.756  15.024   6.277  0.00  0.00     0.074 C 
HETATM    6  C   UNK N   1      22.498  15.483   5.897  0.00  0.00     0.140 C 
HETATM    7  F   UNK N   1      21.384  14.804   6.266  0.00  0.00    -0.204 F 
HETATM    8 Cl   UNK N   1      26.470  14.890   6.080  0.00  0.00    -0.080 Cl
HETATM    9  N   UNK N   1      25.854  17.895   4.977  0.00  0.00    -0.302 N 
HETATM   10  C   UNK N   1      25.649  19.008   4.206  0.00  0.00     0.121 A 
HETATM   11  C   UNK N   1      24.406  19.347   3.681  0.00  0.00     0.104 A 
HETATM   12  C   UNK N   1      23.305  18.546   4.000  0.00  0.00     0.202 A 
HETATM   13  O   UNK N   1      22.189  18.842   3.599  0.00  0.00    -0.286 OA
ENDROOT
BRANCH   9  14
HETATM   14  C   UNK N   1      27.142  17.839   5.666  0.00  0.00     0.153 A 
HETATM   15  C   UNK N   1      28.348  17.503   5.004  0.00  0.00     0.164 A 
HETATM   16  C   UNK N   1      29.549  17.496   5.722  0.00  0.00     0.092 A 
HETATM   17  F   UNK N   1      28.373  17.166   3.690  0.00  0.00    -0.202 F 
HETATM   18  C   UNK N   1      29.561  17.837   7.073  0.00  0.00     0.162 A 
HETATM   19  C   UNK N   1      28.372  18.219   7.685  0.00  0.00     0.140 A 
HETATM   20  F   UNK N   1      30.718  17.801   7.779  0.00  0.00    -0.202 F 
HETATM   21  N   UNK N   1      27.221  18.237   6.970  0.00  0.00    -0.324 N 
ATOM     22  HN  UNK N   1      26.370  18.564   7.429  1.00  0.00     0.169 HD
BRANCH  19  23
HETATM   23  N   UNK N   1      28.349  18.563   9.053  0.00  0.00    -0.383 N 
HETATM   24  H   UNK N   1      28.797  19.332   9.475  0.00  0.00     0.157 HD
HETATM   25  H   UNK N   1      27.831  17.974   9.647  0.00  0.00     0.157 HD
ENDBRANCH  19  23
ENDBRANCH   9  14
BRANCH  11  26
HETATM   26  C   UNK N   1      24.293  20.576   2.850  0.00  0.00     0.181 C 
HETATM   27  O   UNK N   1      25.172  20.882   2.059  0.00  0.00    -0.646 OA
BRANCH  26  28
HETATM   28  O   UNK N   1      23.210  21.369   2.967  0.00  0.00    -0.772 OA
HETATM   29  H   UNK N   1      22.831  21.536   3.808  0.00  0.00     0.167 HD
ENDBRANCH  26  28
ENDBRANCH  11  26
BRANCH   5  30
HETATM   30  N   UNK N   1      23.821  13.863   7.109  0.00  0.00    -0.275 NA
HETATM   31  C   UNK N   1      22.998  13.733   8.261  0.00  0.00     0.128 A 
HETATM   32  C   UNK N   1      22.559  12.341   7.744  0.00  0.00     0.145 A 
HETATM   33  C   UNK N   1      23.493  12.595   6.548  0.00  0.00     0.128 A 
BRANCH  32  34
HETATM   34  O   UNK N   1      23.106  11.336   8.538  0.00  0.00    -0.393 OA
HETATM   35  H   UNK N   1      22.570  10.595   8.862  0.00  0.00     0.210 HD
ENDBRANCH  32  34
ENDBRANCH   5  30
TORSDOF 6
ENDMDL
MODEL 3
REMARK VINA RESULT:      -7.8     11.460     13.350
REMARK  6 active torsions:
REMARK  status: ('A' for Active; 'I' for Inactive)
REMARK    1  A    between atoms: C_5  and  N_8 
REMARK    2  A    between atoms: C_10  and  O_12 
REMARK    3  A    between atoms: N_14  and  C_22 
REMARK    4  A    between atoms: C_16  and  C_19 
REMARK    5  A    between atoms: C_19  and  O_21 
REMARK    6  A    between atoms: C_26  and  N_29 
ROOT
HETATM    1  C   UNK N   1      29.658  17.158   4.645  0.00  0.00     0.062 C 
HETATM    2  C   UNK N   1      30.089  17.111   5.972  0.00  0.00     0.047 A 
HETATM    3  C   UNK N   1      31.312  16.461   6.318  0.00  0.00     0.078 A 
HETATM    4  C   UNK N   1      32.143  16.001   5.225  0.00  0.00     0.086 C 
HETATM    5  C   UNK N   1      31.635  16.002   3.897  0.00  0.00     0.074 C 
HETATM    6  C   UNK N   1      30.392  16.567   3.630  0.00  0.00     0.140 C 
HETATM    7  F   UNK N   1      29.901  16.570   2.367  0.00  0.00    -0.204 F 
HETATM    8 Cl   UNK N   1      33.871  15.617   5.406  0.00  0.00    -0.080 Cl
HETATM    9  N   UNK N   1      31.633  16.317   7.671  0.00  0.00    -0.302 N 
HETATM   10  C   UNK N   1      30.850  16.919   8.619  0.00  0.00     0.121 A 
HETATM   11  C   UNK N   1      29.703  17.641   8.305  0.00  0.00     0.104 A 
HETATM   12  C   UNK N   1      29.300  17.709   6.967  0.00  0.00     0.202 A 
HETATM   13  O   UNK N   1      28.269  18.290   6.661  0.00  0.00    -0.286 OA
ENDROOT
BRANCH   9  14
HETATM   14  C   UNK N   1      32.630  15.380   8.186  0.00  0.00     0.153 A 
HETATM   15  C   UNK N   1      33.832  15.807   8.803  0.00  0.00     0.164 A 
HETATM   16  C   UNK N   1      34.729  14.854   9.298  0.00  0.00     0.092 A 
HETATM   17  F   UNK N   1      34.152  17.121   8.912  0.00  0.00    -0.202 F 
HETATM   18  C   UNK N   1      34.432  13.495   9.201  0.00  0.00     0.162 A 
HETATM   19  C   UNK N   1      33.220  13.105   8.643  0.00  0.00     0.140 A 
HETATM   20  F   UNK N   1      35.314  12.569   9.652  0.00  0.00    -0.202 F 
HETATM   21  N   UNK N   1      32.355  14.043   8.186  0.00  0.00    -0.324 N 
ATOM     22  HN  UNK N   1      31.453  13.734   7.822  1.00  0.00     0.169 HD
BRANCH  19  23
HETATM   23  N   UNK N   1      32.893  11.738   8.526  0.00  0.00    -0.383 N 
HETATM   24  H   UNK N   1      33.481  11.017   8.203  0.00  0.00     0.157 HD
HETATM   25  H   UNK N   1      31.983  11.477   8.795  0.00  0.00     0.157 HD
ENDBRANCH  19  23
ENDBRANCH   9  14
BRANCH  11  26
HETATM   26  C   UNK N   1      28.925  18.262   9.412  0.00  0.00     0.181 C 
HETATM   27  O   UNK N   1      29.490  18.834  10.331  0.00  0.00    -0.646 OA
BRANCH  26  28
HETATM   28  O   UNK N   1      27.579  18.196   9.407  0.00  0.00    -0.772 OA
HETATM   29  H   UNK N   1      27.118  17.961   8.625  0.00  0.00     0.167 HD
ENDBRANCH  26  28
ENDBRANCH  11  26
BRANCH   5  30
HETATM   30  N   UNK N   1      32.333  15.379   2.816  0.00  0.00    -0.275 NA
HETATM   31  C   UNK N   1      33.728  15.578   2.626  0.00  0.00     0.128 A 
HETATM   32  C   UNK N   1      33.899  14.040   2.551  0.00  0.00     0.145 A 
HETATM   33  C   UNK N   1      32.376  13.956   2.753  0.00  0.00     0.128 A 
BRANCH  32  34
HETATM   34  O   UNK N   1      34.203  13.651   1.249  0.00  0.00    -0.393 OA
HETATM   35  H   UNK N   1      34.801  12.908   1.066  0.00  0.00     0.210 HD
ENDBRANCH  32  34
ENDBRANCH   5  30
TORSDOF 6
ENDMDL
MODEL 4
REMARK VINA RESULT:      -7.7     14.122     16.280
REMARK  6 active torsions:
REMARK  status: ('A' for Active; 'I' for Inactive)
REMARK    1  A    between atoms: C_5  and  N_8 
REMARK    2  A    between atoms: C_10  and  O_12 
REMARK    3  A    between atoms: N_14  and  C_22 
REMARK    4  A    between atoms: C_16  and  C_19 
REMARK    5  A    between atoms: C_19  and  O_21 
REMARK    6  A    between atoms: C_26  and  N_29 
ROOT
HETATM    1  C   UNK N   1      29.314  21.021  -6.878  0.00  0.00     0.062 C 
HETATM    2  C   UNK N   1      29.267  21.938  -5.827  0.00  0.00     0.047 A 
HETATM    3  C   UNK N   1      28.393  23.065  -5.882  0.00  0.00     0.078 A 
HETATM    4  C   UNK N   1      27.462  23.121  -6.990  0.00  0.00     0.086 C 
HETATM    5  C   UNK N   1      27.592  22.210  -8.073  0.00  0.00     0.074 C 
HETATM    6  C   UNK N   1      28.529  21.183  -8.007  0.00  0.00     0.140 C 
HETATM    7  F   UNK N   1      28.660  20.312  -9.038  0.00  0.00    -0.204 F 
HETATM    8 Cl   UNK N   1      26.005  24.143  -6.992  0.00  0.00    -0.080 Cl
HETATM    9  N   UNK N   1      28.481  24.030  -4.874  0.00  0.00    -0.302 N 
HETATM   10  C   UNK N   1      29.291  23.805  -3.793  0.00  0.00     0.121 A 
HETATM   11  C   UNK N   1      30.084  22.669  -3.666  0.00  0.00     0.104 A 
HETATM   12  C   UNK N   1      30.097  21.741  -4.712  0.00  0.00     0.202 A 
HETATM   13  O   UNK N   1      30.821  20.758  -4.657  0.00  0.00    -0.286 OA
ENDROOT
BRANCH   9  14
HETATM   14  C   UNK N   1      27.935  25.382  -4.977  0.00  0.00     0.153 A 
HETATM   15  C   UNK N   1      26.880  25.845  -4.153  0.00  0.00     0.164 A 
HETATM   16  C   UNK N   1      26.427  27.162  -4.288  0.00  0.00     0.092 A 
HETATM   17  F   UNK N   1      26.277  25.039  -3.243  0.00  0.00    -0.202 F 
HETATM   18  C   UNK N   1      27.023  28.017  -5.214  0.00  0.00     0.162 A 
HETATM   19  C   UNK N   1      28.095  27.555  -5.970  0.00  0.00     0.140 A 
HETATM   20  F   UNK N   1      26.565  29.283  -5.369  0.00  0.00    -0.202 F 
HETATM   21  N   UNK N   1      28.532  26.282  -5.812  0.00  0.00    -0.324 N 
ATOM     22  HN  UNK N   1      29.348  25.981  -6.345  1.00  0.00     0.169 HD
BRANCH  19  23
HETATM   23  N   UNK N   1      28.715  28.394  -6.919  0.00  0.00    -0.383 N 
HETATM   24  H   UNK N   1      29.641  28.726  -6.897  0.00  0.00     0.157 HD
HETATM   25  H   UNK N   1      28.164  28.676  -7.684  0.00  0.00     0.157 HD
ENDBRANCH  19  23
ENDBRANCH   9  14
BRANCH  11  26
HETATM   26  C   UNK N   1      30.926  22.520  -2.447  0.00  0.00     0.181 C 
HETATM   27  O   UNK N   1      30.587  23.019  -1.385  0.00  0.00    -0.646 OA
BRANCH  26  28
HETATM   28  O   UNK N   1      32.079  21.826  -2.509  0.00  0.00    -0.772 OA
HETATM   29  H   UNK N   1      32.105  20.980  -2.913  0.00  0.00     0.167 HD
ENDBRANCH  26  28
ENDBRANCH  11  26
BRANCH   5  30
HETATM   30  N   UNK N   1      26.832  22.346  -9.276  0.00  0.00    -0.275 NA
HETATM   31  C   UNK N   1      27.458  22.315 -10.553  0.00  0.00     0.128 A 
HETATM   32  C   UNK N   1      26.432  21.239 -10.988  0.00  0.00     0.145 A 
HETATM   33  C   UNK N   1      25.837  21.371  -9.575  0.00  0.00     0.128 A 
BRANCH  32  34
HETATM   34  O   UNK N   1      25.532  21.774 -11.908  0.00  0.00    -0.393 OA
HETATM   35  H   UNK N   1      25.454  21.418 -12.807  0.00  0.00     0.210 HD
ENDBRANCH  32  34
ENDBRANCH   5  30
TORSDOF 6
ENDMDL
MODEL 5
REMARK VINA RESULT:      -7.6      4.263      6.429
REMARK  6 active torsions:
REMARK  status: ('A' for Active; 'I' for Inactive)
REMARK    1  A    between atoms: C_5  and  N_8 
REMARK    2  A    between atoms: C_10  and  O_12 
REMARK    3  A    between atoms: N_14  and  C_22 
REMARK    4  A    between atoms: C_16  and  C_19 
REMARK    5  A    between atoms: C_19  and  O_21 
REMARK    6  A    between atoms: C_26  and  N_29 
ROOT
HETATM    1  C   UNK N   1      20.699  13.761   7.497  0.00  0.00     0.062 C 
HETATM    2  C   UNK N   1      20.670  15.148   7.349  0.00  0.00     0.047 A 
HETATM    3  C   UNK N   1      21.286  15.774   6.224  0.00  0.00     0.078 A 
HETATM    4  C   UNK N   1      21.794  14.902   5.185  0.00  0.00     0.086 C 
HETATM    5  C   UNK N   1      21.870  13.501   5.407  0.00  0.00     0.074 C 
HETATM    6  C   UNK N   1      21.334  12.953   6.569  0.00  0.00     0.140 C 
HETATM    7  F   UNK N   1      21.405  11.617   6.788  0.00  0.00    -0.204 F 
HETATM    8 Cl   UNK N   1      22.147  15.457   3.531  0.00  0.00    -0.080 Cl
HETATM    9  N   UNK N   1      21.354  17.170   6.189  0.00  0.00    -0.302 N 
HETATM   10  C   UNK N   1      20.712  17.901   7.151  0.00  0.00     0.121 A 
HETATM   11  C   UNK N   1      20.021  17.319   8.209  0.00  0.00     0.104 A 
HETATM   12  C   UNK N   1      20.030  15.925   8.327  0.00  0.00     0.202 A 
HETATM   13  O   UNK N   1      19.478  15.382   9.272  0.00  0.00    -0.286 OA
ENDROOT
BRANCH   9  14
HETATM   14  C   UNK N   1      22.250  17.930   5.318  0.00  0.00     0.153 A 
HETATM   15  C   UNK N   1      21.779  18.716   4.238  0.00  0.00     0.164 A 
HETATM   16  C   UNK N   1      22.693  19.440   3.464  0.00  0.00     0.092 A 
HETATM   17  F   UNK N   1      20.463  18.774   3.916  0.00  0.00    -0.202 F 
HETATM   18  C   UNK N   1      24.053  19.402   3.765  0.00  0.00     0.162 A 
HETATM   19  C   UNK N   1      24.482  18.668   4.866  0.00  0.00     0.140 A 
HETATM   20  F   UNK N   1      24.943  20.077   2.997  0.00  0.00    -0.202 F 
HETATM   21  N   UNK N   1      23.581  17.989   5.616  0.00  0.00    -0.324 N 
ATOM     22  HN  UNK N   1      23.914  17.495   6.444  1.00  0.00     0.169 HD
BRANCH  19  23
HETATM   23  N   UNK N   1      25.853  18.605   5.194  0.00  0.00    -0.383 N 
HETATM   24  H   UNK N   1      26.241  18.337   6.058  0.00  0.00     0.157 HD
HETATM   25  H   UNK N   1      26.487  18.854   4.484  0.00  0.00     0.157 HD
ENDBRANCH  19  23
ENDBRANCH   9  14
BRANCH  11  26
HETATM   26  C   UNK N   1      19.351  18.206   9.199  0.00  0.00     0.181 C 
HETATM   27  O   UNK N   1      19.973  19.085   9.776  0.00  0.00    -0.646 OA
BRANCH  26  28
HETATM   28  O   UNK N   1      18.041  18.044   9.468  0.00  0.00    -0.772 OA
HETATM   29  H   UNK N   1      17.632  18.532  10.156  0.00  0.00     0.167 HD
ENDBRANCH  26  28
ENDBRANCH  11  26
BRANCH   5  30
HETATM   30  N   UNK N   1      22.541  12.623   4.500  0.00  0.00    -0.275 NA
HETATM   31  C   UNK N   1      23.501  11.680   4.960  0.00  0.00     0.128 A 
HETATM   32  C   UNK N   1      22.736  10.579   4.184  0.00  0.00     0.145 A 
HETATM   33  C   UNK N   1      21.770  11.693   3.745  0.00  0.00     0.128 A 
BRANCH  32  34
HETATM   34  O   UNK N   1      23.476  10.163   3.080  0.00  0.00    -0.393 OA
HETATM   35  H   UNK N   1      23.995  10.790   2.551  0.00  0.00     0.210 HD
ENDBRANCH  32  34
ENDBRANCH   5  30
TORSDOF 6
ENDMDL
MODEL 6
REMARK VINA RESULT:      -7.4      4.148      5.795
REMARK  6 active torsions:
REMARK  status: ('A' for Active; 'I' for Inactive)
REMARK    1  A    between atoms: C_5  and  N_8 
REMARK    2  A    between atoms: C_10  and  O_12 
REMARK    3  A    between atoms: N_14  and  C_22 
REMARK    4  A    between atoms: C_16  and  C_19 
REMARK    5  A    between atoms: C_19  and  O_21 
REMARK    6  A    between atoms: C_26  and  N_29 
ROOT
HETATM    1  C   UNK N   1      20.620  17.105   5.571  0.00  0.00     0.062 C 
HETATM    2  C   UNK N   1      21.616  17.754   4.840  0.00  0.00     0.047 A 
HETATM    3  C   UNK N   1      22.980  17.347   4.948  0.00  0.00     0.078 A 
HETATM    4  C   UNK N   1      23.251  16.151   5.718  0.00  0.00     0.086 C 
HETATM    5  C   UNK N   1      22.222  15.565   6.504  0.00  0.00     0.074 C 
HETATM    6  C   UNK N   1      20.924  16.062   6.430  0.00  0.00     0.140 C 
HETATM    7  F   UNK N   1      19.938  15.508   7.178  0.00  0.00    -0.204 F 
HETATM    8 Cl   UNK N   1      24.763  15.223   5.583  0.00  0.00    -0.080 Cl
HETATM    9  N   UNK N   1      23.959  18.113   4.308  0.00  0.00    -0.302 N 
HETATM   10  C   UNK N   1      23.581  19.140   3.484  0.00  0.00     0.121 A 
HETATM   11  C   UNK N   1      22.252  19.499   3.283  0.00  0.00     0.104 A 
HETATM   12  C   UNK N   1      21.260  18.818   3.997  0.00  0.00     0.202 A 
HETATM   13  O   UNK N   1      20.087  19.141   3.885  0.00  0.00    -0.286 OA
ENDROOT
BRANCH   9  14
HETATM   14  C   UNK N   1      25.387  18.051   4.615  0.00  0.00     0.153 A 
HETATM   15  C   UNK N   1      26.330  17.452   3.743  0.00  0.00     0.164 A 
HETATM   16  C   UNK N   1      27.685  17.453   4.090  0.00  0.00     0.092 A 
HETATM   17  F   UNK N   1      25.955  16.857   2.584  0.00  0.00    -0.202 F 
HETATM   18  C   UNK N   1      28.106  18.056   5.274  0.00  0.00     0.162 A 
HETATM   19  C   UNK N   1      27.168  18.686   6.084  0.00  0.00     0.140 A 
HETATM   20  F   UNK N   1      29.415  18.030   5.628  0.00  0.00    -0.202 F 
HETATM   21  N   UNK N   1      25.862  18.691   5.723  0.00  0.00    -0.324 N 
ATOM     22  HN  UNK N   1      25.199  19.199   6.310  1.00  0.00     0.169 HD
BRANCH  19  23
HETATM   23  N   UNK N   1      27.561  19.299   7.292  0.00  0.00    -0.383 N 
HETATM   24  H   UNK N   1      28.358  19.859   7.437  0.00  0.00     0.157 HD
HETATM   25  H   UNK N   1      26.978  19.152   8.071  0.00  0.00     0.157 HD
ENDBRANCH  19  23
ENDBRANCH   9  14
BRANCH  11  26
HETATM   26  C   UNK N   1      21.949  20.627   2.361  0.00  0.00     0.181 C 
HETATM   27  O   UNK N   1      22.260  20.574   1.181  0.00  0.00    -0.646 OA
BRANCH  26  28
HETATM   28  O   UNK N   1      21.324  21.726   2.828  0.00  0.00    -0.772 OA
HETATM   29  H   UNK N   1      20.429  21.683   3.105  0.00  0.00     0.167 HD
ENDBRANCH  26  28
ENDBRANCH  11  26
BRANCH   5  30
HETATM   30  N   UNK N   1      22.482  14.508   7.431  0.00  0.00    -0.275 NA
HETATM   31  C   UNK N   1      21.820  14.449   8.687  0.00  0.00     0.128 A 
HETATM   32  C   UNK N   1      21.433  12.982   8.372  0.00  0.00     0.145 A 
HETATM   33  C   UNK N   1      22.190  13.167   7.046  0.00  0.00     0.128 A 
BRANCH  32  34
HETATM   34  O   UNK N   1      22.153  12.108   9.184  0.00  0.00    -0.393 OA
HETATM   35  H   UNK N   1      22.989  12.372   9.600  0.00  0.00     0.210 HD
ENDBRANCH  32  34
ENDBRANCH   5  30
TORSDOF 6
ENDMDL
MODEL 7
REMARK VINA RESULT:      -7.4      5.010      5.989
REMARK  6 active torsions:
REMARK  status: ('A' for Active; 'I' for Inactive)
REMARK    1  A    between atoms: C_5  and  N_8 
REMARK    2  A    between atoms: C_10  and  O_12 
REMARK    3  A    between atoms: N_14  and  C_22 
REMARK    4  A    between atoms: C_16  and  C_19 
REMARK    5  A    between atoms: C_19  and  O_21 
REMARK    6  A    between atoms: C_26  and  N_29 
ROOT
HETATM    1  C   UNK N   1      25.668  19.859   3.583  0.00  0.00     0.062 C 
HETATM    2  C   UNK N   1      24.407  19.283   3.740  0.00  0.00     0.047 A 
HETATM    3  C   UNK N   1      24.267  17.978   4.300  0.00  0.00     0.078 A 
HETATM    4  C   UNK N   1      25.464  17.359   4.831  0.00  0.00     0.086 C 
HETATM    5  C   UNK N   1      26.735  17.945   4.585  0.00  0.00     0.074 C 
HETATM    6  C   UNK N   1      26.818  19.180   3.949  0.00  0.00     0.140 C 
HETATM    7  F   UNK N   1      28.028  19.744   3.710  0.00  0.00    -0.204 F 
HETATM    8 Cl   UNK N   1      25.434  15.993   5.972  0.00  0.00    -0.080 Cl
HETATM    9  N   UNK N   1      23.000  17.386   4.310  0.00  0.00    -0.302 N 
HETATM   10  C   UNK N   1      21.911  18.117   3.919  0.00  0.00     0.121 A 
HETATM   11  C   UNK N   1      22.004  19.427   3.458  0.00  0.00     0.104 A 
HETATM   12  C   UNK N   1      23.272  20.004   3.336  0.00  0.00     0.202 A 
HETATM   13  O   UNK N   1      23.396  21.134   2.886  0.00  0.00    -0.286 OA
ENDROOT
BRANCH   9  14
HETATM   14  C   UNK N   1      22.759  15.957   4.501  0.00  0.00     0.153 A 
HETATM   15  C   UNK N   1      22.158  15.434   5.673  0.00  0.00     0.164 A 
HETATM   16  C   UNK N   1      21.933  14.057   5.775  0.00  0.00     0.092 A 
HETATM   17  F   UNK N   1      21.810  16.230   6.714  0.00  0.00    -0.202 F 
HETATM   18  C   UNK N   1      22.279  13.209   4.724  0.00  0.00     0.162 A 
HETATM   19  C   UNK N   1      22.814  13.755   3.562  0.00  0.00     0.140 A 
HETATM   20  F   UNK N   1      22.091  11.871   4.834  0.00  0.00    -0.202 F 
HETATM   21  N   UNK N   1      23.009  15.093   3.474  0.00  0.00    -0.324 N 
ATOM     22  HN  UNK N   1      23.360  15.475   2.595  1.00  0.00     0.169 HD
BRANCH  19  23
HETATM   23  N   UNK N   1      23.181  12.923   2.484  0.00  0.00    -0.383 N 
HETATM   24  H   UNK N   1      23.450  11.978   2.533  0.00  0.00     0.157 HD
HETATM   25  H   UNK N   1      23.166  13.331   1.588  0.00  0.00     0.157 HD
ENDBRANCH  19  23
ENDBRANCH   9  14
BRANCH  11  26
HETATM   26  C   UNK N   1      20.756  20.135   3.062  0.00  0.00     0.181 C 
HETATM   27  O   UNK N   1      19.756  19.512   2.739  0.00  0.00    -0.646 OA
BRANCH  26  28
HETATM   28  O   UNK N   1      20.721  21.482   3.058  0.00  0.00    -0.772 OA
HETATM   29  H   UNK N   1      20.157  21.941   2.467  0.00  0.00     0.167 HD
ENDBRANCH  26  28
ENDBRANCH  11  26
BRANCH   5  30
HETATM   30  N   UNK N   1      27.956  17.277   4.913  0.00  0.00    -0.275 NA
HETATM   31  C   UNK N   1      28.923  16.977   3.915  0.00  0.00     0.128 A 
HETATM   32  C   UNK N   1      29.998  17.646   4.808  0.00  0.00     0.145 A 
HETATM   33  C   UNK N   1      28.863  17.905   5.814  0.00  0.00     0.128 A 
BRANCH  32  34
HETATM   34  O   UNK N   1      30.856  16.683   5.334  0.00  0.00    -0.393 OA
HETATM   35  H   UNK N   1      31.591  16.923   5.919  0.00  0.00     0.210 HD
ENDBRANCH  32  34
ENDBRANCH   5  30
TORSDOF 6
ENDMDL
MODEL 8
REMARK VINA RESULT:      -7.3     14.255     16.434
REMARK  6 active torsions:
REMARK  status: ('A' for Active; 'I' for Inactive)
REMARK    1  A    between atoms: C_5  and  N_8 
REMARK    2  A    between atoms: C_10  and  O_12 
REMARK    3  A    between atoms: N_14  and  C_22 
REMARK    4  A    between atoms: C_16  and  C_19 
REMARK    5  A    between atoms: C_19  and  O_21 
REMARK    6  A    between atoms: C_26  and  N_29 
ROOT
HETATM    1  C   UNK N   1      28.271  22.651  -7.285  0.00  0.00     0.062 C 
HETATM    2  C   UNK N   1      27.740  23.904  -7.595  0.00  0.00     0.047 A 
HETATM    3  C   UNK N   1      27.994  25.030  -6.756  0.00  0.00     0.078 A 
HETATM    4  C   UNK N   1      28.940  24.845  -5.676  0.00  0.00     0.086 C 
HETATM    5  C   UNK N   1      29.400  23.540  -5.350  0.00  0.00     0.074 C 
HETATM    6  C   UNK N   1      29.044  22.459  -6.152  0.00  0.00     0.140 C 
HETATM    7  F   UNK N   1      29.477  21.211  -5.846  0.00  0.00    -0.204 F 
HETATM    8 Cl   UNK N   1      29.746  26.194  -4.840  0.00  0.00    -0.080 Cl
HETATM    9  N   UNK N   1      27.330  26.230  -7.029  0.00  0.00    -0.302 N 
HETATM   10  C   UNK N   1      26.570  26.339  -8.163  0.00  0.00     0.121 A 
HETATM   11  C   UNK N   1      26.381  25.285  -9.051  0.00  0.00     0.104 A 
HETATM   12  C   UNK N   1      26.947  24.043  -8.745  0.00  0.00     0.202 A 
HETATM   13  O   UNK N   1      26.759  23.081  -9.476  0.00  0.00    -0.286 OA
ENDROOT
BRANCH   9  14
HETATM   14  C   UNK N   1      27.198  27.333  -6.079  0.00  0.00     0.153 A 
HETATM   15  C   UNK N   1      27.643  28.647  -6.368  0.00  0.00     0.164 A 
HETATM   16  C   UNK N   1      27.459  29.661  -5.421  0.00  0.00     0.092 A 
HETATM   17  F   UNK N   1      28.263  28.951  -7.535  0.00  0.00    -0.202 F 
HETATM   18  C   UNK N   1      26.826  29.383  -4.211  0.00  0.00     0.162 A 
HETATM   19  C   UNK N   1      26.348  28.098  -3.975  0.00  0.00     0.140 A 
HETATM   20  F   UNK N   1      26.675  30.356  -3.279  0.00  0.00    -0.202 F 
HETATM   21  N   UNK N   1      26.519  27.134  -4.912  0.00  0.00    -0.324 N 
ATOM     22  HN  UNK N   1      26.120  26.212  -4.735  1.00  0.00     0.169 HD
BRANCH  19  23
HETATM   23  N   UNK N   1      25.709  27.784  -2.758  0.00  0.00    -0.383 N 
HETATM   24  H   UNK N   1      25.853  26.982  -2.206  0.00  0.00     0.157 HD
HETATM   25  H   UNK N   1      25.052  28.436  -2.424  0.00  0.00     0.157 HD
ENDBRANCH  19  23
ENDBRANCH   9  14
BRANCH  11  26
HETATM   26  C   UNK N   1      25.541  25.511 -10.258  0.00  0.00     0.181 C 
HETATM   27  O   UNK N   1      25.794  26.416 -11.039  0.00  0.00    -0.646 OA
BRANCH  26  28
HETATM   28  O   UNK N   1      24.484  24.711 -10.500  0.00  0.00    -0.772 OA
HETATM   29  H   UNK N   1      24.511  23.803 -10.267  0.00  0.00     0.167 HD
ENDBRANCH  26  28
ENDBRANCH  11  26
BRANCH   5  30
HETATM   30  N   UNK N   1      30.174  23.277  -4.177  0.00  0.00    -0.275 NA
HETATM   31  C   UNK N   1      29.762  22.307  -3.223  0.00  0.00     0.128 A 
HETATM   32  C   UNK N   1      31.174  21.677  -3.310  0.00  0.00     0.145 A 
HETATM   33  C   UNK N   1      31.503  22.785  -4.325  0.00  0.00     0.128 A 
BRANCH  32  34
HETATM   34  O   UNK N   1      31.883  21.918  -2.135  0.00  0.00    -0.393 OA
HETATM   35  H   UNK N   1      31.682  22.679  -1.567  0.00  0.00     0.210 HD
ENDBRANCH  32  34
ENDBRANCH   5  30
TORSDOF 6
ENDMDL
MODEL 9
REMARK VINA RESULT:      -7.3     14.804     15.710
REMARK  6 active torsions:
REMARK  status: ('A' for Active; 'I' for Inactive)
REMARK    1  A    between atoms: C_5  and  N_8 
REMARK    2  A    between atoms: C_10  and  O_12 
REMARK    3  A    between atoms: N_14  and  C_22 
REMARK    4  A    between atoms: C_16  and  C_19 
REMARK    5  A    between atoms: C_19  and  O_21 
REMARK    6  A    between atoms: C_26  and  N_29 
ROOT
HETATM    1  C   UNK N   1      25.498  25.449  -6.780  0.00  0.00     0.062 C 
HETATM    2  C   UNK N   1      26.254  24.301  -7.020  0.00  0.00     0.047 A 
HETATM    3  C   UNK N   1      27.392  23.997  -6.214  0.00  0.00     0.078 A 
HETATM    4  C   UNK N   1      27.624  24.840  -5.059  0.00  0.00     0.086 C 
HETATM    5  C   UNK N   1      26.877  26.037  -4.893  0.00  0.00     0.074 C 
HETATM    6  C   UNK N   1      25.834  26.331  -5.767  0.00  0.00     0.140 C 
HETATM    7  F   UNK N   1      25.118  27.473  -5.615  0.00  0.00    -0.204 F 
HETATM    8 Cl   UNK N   1      28.660  24.363  -3.694  0.00  0.00    -0.080 Cl
HETATM    9  N   UNK N   1      28.199  22.915  -6.577  0.00  0.00    -0.302 N 
HETATM   10  C   UNK N   1      27.808  22.094  -7.601  0.00  0.00     0.121 A 
HETATM   11  C   UNK N   1      26.652  22.310  -8.344  0.00  0.00     0.104 A 
HETATM   12  C   UNK N   1      25.884  23.447  -8.071  0.00  0.00     0.202 A 
HETATM   13  O   UNK N   1      24.890  23.697  -8.738  0.00  0.00    -0.286 OA
ENDROOT
BRANCH   9  14
HETATM   14  C   UNK N   1      29.562  22.703  -6.092  0.00  0.00     0.153 A 
HETATM   15  C   UNK N   1      30.642  23.543  -6.457  0.00  0.00     0.164 A 
HETATM   16  C   UNK N   1      31.915  23.297  -5.931  0.00  0.00     0.092 A 
HETATM   17  F   UNK N   1      30.484  24.576  -7.322  0.00  0.00    -0.202 F 
HETATM   18  C   UNK N   1      32.114  22.243  -5.040  0.00  0.00     0.162 A 
HETATM   19  C   UNK N   1      31.025  21.469  -4.653  0.00  0.00     0.140 A 
HETATM   20  F   UNK N   1      33.352  21.983  -4.554  0.00  0.00    -0.202 F 
HETATM   21  N   UNK N   1      29.796  21.734  -5.159  0.00  0.00    -0.324 N 
ATOM     22  HN  UNK N   1      29.006  21.181  -4.826  1.00  0.00     0.169 HD
BRANCH  19  23
HETATM   23  N   UNK N   1      31.195  20.392  -3.758  0.00  0.00    -0.383 N 
HETATM   24  H   UNK N   1      31.604  19.519  -3.957  0.00  0.00     0.157 HD
HETATM   25  H   UNK N   1      30.871  20.528  -2.839  0.00  0.00     0.157 HD
ENDBRANCH  19  23
ENDBRANCH   9  14
BRANCH  11  26
HETATM   26  C   UNK N   1      26.313  21.353  -9.432  0.00  0.00     0.181 C 
HETATM   27  O   UNK N   1      27.172  20.941 -10.196  0.00  0.00    -0.646 OA
BRANCH  26  28
HETATM   28  O   UNK N   1      25.042  20.931  -9.584  0.00  0.00    -0.772 OA
HETATM   29  H   UNK N   1      24.441  21.413 -10.117  0.00  0.00     0.167 HD
ENDBRANCH  26  28
ENDBRANCH  11  26
BRANCH   5  30
HETATM   30  N   UNK N   1      27.198  27.000  -3.886  0.00  0.00    -0.275 NA
HETATM   31  C   UNK N   1      27.720  28.278  -4.227  0.00  0.00     0.128 A 
HETATM   32  C   UNK N   1      26.623  28.920  -3.342  0.00  0.00     0.145 A 
HETATM   33  C   UNK N   1      26.158  27.485  -3.041  0.00  0.00     0.128 A 
BRANCH  32  34
HETATM   34  O   UNK N   1      27.188  29.462  -2.189  0.00  0.00    -0.393 OA
HETATM   35  H   UNK N   1      26.652  29.942  -1.538  0.00  0.00     0.210 HD
ENDBRANCH  32  34
ENDBRANCH   5  30
TORSDOF 6
ENDMDL
