MODEL 1
REMARK VINA RESULT:      -7.2      0.000      0.000
REMARK  7 active torsions:
REMARK  status: ('A' for Active; 'I' for Inactive)
REMARK    1  A    between atoms: C_10  and  C_9 
REMARK    2  A    between atoms: O_31  and  C_9 
REMARK    3  A    between atoms: O_34  and  C_10 
REMARK    4  A    between atoms: C_18  and  C_14 
REMARK    5  A    between atoms: C_15  and  N_30 
REMARK    6  A    between atoms: C_16  and  O_34 
REMARK    7  A    between atoms: O_33  and  C_19 
REMARK       I    between atoms: N_23  and  C_22 
ROOT
HETATM    1  C   UNK N   1      28.924  18.399   9.660  0.00  0.00     0.070 C 
HETATM    2  C   UNK N   1      28.529  18.125   6.781  0.00  0.00     0.035 A 
HETATM    3  C   UNK N   1      29.816  17.576   8.789  0.00  0.00     0.036 A 
HETATM    4  C   UNK N   1      29.591  17.463   7.406  0.00  0.00     0.033 A 
HETATM    5  C   UNK N   1      28.338  18.015   5.401  0.00  0.00     0.045 A 
HETATM    6  C   UNK N   1      30.491  16.689   6.634  0.00  0.00     0.138 A 
HETATM    7  C   UNK N   1      29.250  17.233   4.659  0.00  0.00     0.260 A 
HETATM    8  C   UNK N   1      31.730  16.198   8.601  0.00  0.00     0.677 A 
HETATM    9  N   UNK N   1      32.723  15.615   9.155  0.00  0.00    -0.234 N 
ATOM     10  HN  UNK N   1      32.879  15.717  10.158  1.00  0.00     0.174 HD
HETATM   11  N   UNK N   1      30.878  16.942   9.352  0.00  0.00    -0.195 N 
HETATM   12  N   UNK N   1      31.535  16.081   7.261  0.00  0.00    -0.176 N 
ATOM     13  HN  UNK N   1      32.189  15.523   6.712  1.00  0.00     0.186 HD
HETATM   14  N   UNK N   1      30.318  16.590   5.268  0.00  0.00    -0.293 N 
HETATM   15  O   UNK N   1      29.126  17.162   3.447  0.00  0.00    -0.267 OA
HETATM   16  H   UNK N   1      33.338  15.067   8.615  0.00  0.00     0.174 HD
HETATM   17  H   UNK N   1      31.030  17.023  10.321  0.00  0.00     0.184 HD
ENDROOT
BRANCH  14  18
HETATM   18  C   UNK N   1      31.265  15.921   4.330  0.00  0.00     0.095 C 
HETATM   19  C   UNK N   1      31.184  14.393   4.428  0.00  0.00     0.028 C 
HETATM   20  C   UNK N   1      31.730  13.807   3.130  0.00  0.00     0.034 C 
HETATM   21  C   UNK N   1      33.195  14.194   2.929  0.00  0.00     0.121 C 
HETATM   22  C   UNK N   1      33.383  15.732   3.087  0.00  0.00     0.034 C 
HETATM   23  C   UNK N   1      32.741  16.299   4.361  0.00  0.00     0.028 C 
BRANCH  21  24
HETATM   24  O   UNK N   1      33.977  13.405   3.810  0.00  0.00    -0.384 OA
BRANCH  24  25
HETATM   25  C   UNK N   1      35.312  13.855   3.861  0.00  0.00     0.194 C 
BRANCH  25  26
HETATM   26  C   UNK N   1      35.856  13.902   5.280  0.00  0.00     0.190 C 
BRANCH  26  27
HETATM   27  O   UNK N   1      35.906  15.232   5.696  0.00  0.00    -0.399 OA
HETATM   28  H   UNK N   1      36.438  15.982   6.007  0.00  0.00     0.209 HD
ENDBRANCH  26  27
ENDBRANCH  25  26
ENDBRANCH  24  25
ENDBRANCH  21  24
ENDBRANCH  14  18
BRANCH   5  29
HETATM   29  C   UNK N   1      27.265  18.802   4.703  0.00  0.00    -0.005 A 
HETATM   30  C   UNK N   1      27.527  20.055   4.132  0.00  0.00     0.018 A 
HETATM   31  C   UNK N   1      26.556  20.675   3.333  0.00  0.00     0.057 A 
HETATM   32  C   UNK N   1      25.328  20.033   3.113  0.00  0.00     0.141 A 
HETATM   33  N   UNK N   1      25.073  18.846   3.716  0.00  0.00    -0.346 N 
HETATM   34  C   UNK N   1      25.999  18.235   4.488  0.00  0.00     0.102 A 
ATOM     35  HN  UNK N   1      24.163  18.404   3.585  1.00  0.00     0.167 HD
BRANCH  32  36
HETATM   36  O   UNK N   1      24.419  20.582   2.279  0.00  0.00    -0.341 OA
HETATM   37  C   UNK N   1      23.079  20.631   2.596  0.00  0.00     0.211 C 
ENDBRANCH  32  36
ENDBRANCH   5  29
TORSDOF 7
ENDMDL
MODEL 2
REMARK VINA RESULT:      -7.0      2.648      4.308
REMARK  7 active torsions:
REMARK  status: ('A' for Active; 'I' for Inactive)
REMARK    1  A    between atoms: C_10  and  C_9 
REMARK    2  A    between atoms: O_31  and  C_9 
REMARK    3  A    between atoms: O_34  and  C_10 
REMARK    4  A    between atoms: C_18  and  C_14 
REMARK    5  A    between atoms: C_15  and  N_30 
REMARK    6  A    between atoms: C_16  and  O_34 
REMARK    7  A    between atoms: O_33  and  C_19 
REMARK       I    between atoms: N_23  and  C_22 
ROOT
HETATM    1  C   UNK N   1      26.625  13.529   2.409  0.00  0.00     0.070 C 
HETATM    2  C   UNK N   1      27.055  16.225   3.440  0.00  0.00     0.035 A 
HETATM    3  C   UNK N   1      27.843  13.922   3.179  0.00  0.00     0.036 A 
HETATM    4  C   UNK N   1      28.018  15.233   3.656  0.00  0.00     0.033 A 
HETATM    5  C   UNK N   1      27.242  17.515   3.942  0.00  0.00     0.045 A 
HETATM    6  C   UNK N   1      29.183  15.532   4.404  0.00  0.00     0.138 A 
HETATM    7  C   UNK N   1      28.414  17.784   4.680  0.00  0.00     0.260 A 
HETATM    8  C   UNK N   1      29.903  13.282   4.151  0.00  0.00     0.677 A 
HETATM    9  N   UNK N   1      30.774  12.377   4.383  0.00  0.00    -0.234 N 
ATOM     10  HN  UNK N   1      30.626  11.428   4.040  1.00  0.00     0.174 HD
HETATM   11  N   UNK N   1      28.788  12.980   3.438  0.00  0.00    -0.195 N 
HETATM   12  N   UNK N   1      30.089  14.541   4.627  0.00  0.00    -0.176 N 
ATOM     13  HN  UNK N   1      30.930  14.748   5.166  1.00  0.00     0.186 HD
HETATM   14  N   UNK N   1      29.365  16.801   4.917  0.00  0.00    -0.293 N 
HETATM   15  O   UNK N   1      28.573  18.892   5.165  0.00  0.00    -0.267 OA
HETATM   16  H   UNK N   1      31.588  12.594   4.892  0.00  0.00     0.174 HD
HETATM   17  H   UNK N   1      28.661  12.064   3.101  0.00  0.00     0.184 HD
ENDROOT
BRANCH  14  18
HETATM   18  C   UNK N   1      30.474  17.206   5.828  0.00  0.00     0.095 C 
HETATM   19  C   UNK N   1      31.843  16.768   5.292  0.00  0.00     0.028 C 
HETATM   20  C   UNK N   1      32.907  17.649   5.939  0.00  0.00     0.034 C 
HETATM   21  C   UNK N   1      32.912  17.474   7.457  0.00  0.00     0.121 C 
HETATM   22  C   UNK N   1      31.475  17.646   8.034  0.00  0.00     0.034 C 
HETATM   23  C   UNK N   1      30.417  16.812   7.298  0.00  0.00     0.028 C 
BRANCH  21  24
HETATM   24  O   UNK N   1      33.525  16.230   7.749  0.00  0.00    -0.384 OA
BRANCH  24  25
HETATM   25  C   UNK N   1      33.825  16.109   9.122  0.00  0.00     0.194 C 
BRANCH  25  26
HETATM   26  C   UNK N   1      33.173  14.890   9.753  0.00  0.00     0.190 C 
BRANCH  26  27
HETATM   27  O   UNK N   1      33.303  14.982  11.139  0.00  0.00    -0.399 OA
HETATM   28  H   UNK N   1      33.783  14.727  11.943  0.00  0.00     0.209 HD
ENDBRANCH  26  27
ENDBRANCH  25  26
ENDBRANCH  24  25
ENDBRANCH  21  24
ENDBRANCH  14  18
BRANCH   5  29
HETATM   29  C   UNK N   1      26.171  18.560   3.807  0.00  0.00    -0.005 A 
HETATM   30  C   UNK N   1      26.390  19.752   3.102  0.00  0.00     0.018 A 
HETATM   31  C   UNK N   1      25.318  20.616   2.841  0.00  0.00     0.057 A 
HETATM   32  C   UNK N   1      24.033  20.280   3.288  0.00  0.00     0.141 A 
HETATM   33  N   UNK N   1      23.848  19.149   4.014  0.00  0.00    -0.346 N 
HETATM   34  C   UNK N   1      24.871  18.304   4.273  0.00  0.00     0.102 A 
ATOM     35  HN  UNK N   1      22.919  18.931   4.372  1.00  0.00     0.167 HD
BRANCH  32  36
HETATM   36  O   UNK N   1      22.979  21.063   2.971  0.00  0.00    -0.341 OA
HETATM   37  C   UNK N   1      21.811  20.539   2.464  0.00  0.00     0.211 C 
ENDBRANCH  32  36
ENDBRANCH   5  29
TORSDOF 7
ENDMDL
MODEL 3
REMARK VINA RESULT:      -6.9      5.481     10.629
REMARK  7 active torsions:
REMARK  status: ('A' for Active; 'I' for Inactive)
REMARK    1  A    between atoms: C_10  and  C_9 
REMARK    2  A    between atoms: O_31  and  C_9 
REMARK    3  A    between atoms: O_34  and  C_10 
REMARK    4  A    between atoms: C_18  and  C_14 
REMARK    5  A    between atoms: C_15  and  N_30 
REMARK    6  A    between atoms: C_16  and  O_34 
REMARK    7  A    between atoms: O_33  and  C_19 
REMARK       I    between atoms: N_23  and  C_22 
ROOT
HETATM    1  C   UNK N   1      38.974  11.791   9.167  0.00  0.00     0.070 C 
HETATM    2  C   UNK N   1      36.790  12.908  10.750  0.00  0.00     0.035 A 
HETATM    3  C   UNK N   1      37.948  12.719   8.601  0.00  0.00     0.036 A 
HETATM    4  C   UNK N   1      36.907  13.233   9.394  0.00  0.00     0.033 A 
HETATM    5  C   UNK N   1      35.759  13.448  11.523  0.00  0.00     0.045 A 
HETATM    6  C   UNK N   1      35.984  14.129   8.802  0.00  0.00     0.138 A 
HETATM    7  C   UNK N   1      34.853  14.336  10.904  0.00  0.00     0.260 A 
HETATM    8  C   UNK N   1      37.148  13.940   6.740  0.00  0.00     0.677 A 
HETATM    9  N   UNK N   1      37.263  14.270   5.511  0.00  0.00    -0.234 N 
ATOM     10  HN  UNK N   1      38.031  13.897   4.953  1.00  0.00     0.174 HD
HETATM   11  N   UNK N   1      38.043  13.084   7.296  0.00  0.00    -0.195 N 
HETATM   12  N   UNK N   1      36.138  14.454   7.489  0.00  0.00    -0.176 N 
ATOM     13  HN  UNK N   1      35.478  15.101   7.056  1.00  0.00     0.186 HD
HETATM   14  N   UNK N   1      34.973  14.680   9.564  0.00  0.00    -0.293 N 
HETATM   15  O   UNK N   1      33.974  14.853  11.572  0.00  0.00    -0.267 OA
HETATM   16  H   UNK N   1      36.611  14.883   5.101  0.00  0.00     0.174 HD
HETATM   17  H   UNK N   1      38.773  12.720   6.745  0.00  0.00     0.184 HD
ENDROOT
BRANCH  14  18
HETATM   18  C   UNK N   1      34.024  15.732   9.099  0.00  0.00     0.095 C 
HETATM   19  C   UNK N   1      32.838  15.134   8.332  0.00  0.00     0.028 C 
HETATM   20  C   UNK N   1      31.693  16.141   8.373  0.00  0.00     0.034 C 
HETATM   21  C   UNK N   1      32.091  17.449   7.691  0.00  0.00     0.121 C 
HETATM   22  C   UNK N   1      33.447  17.971   8.251  0.00  0.00     0.034 C 
HETATM   23  C   UNK N   1      34.549  16.903   8.277  0.00  0.00     0.028 C 
BRANCH  21  24
HETATM   24  O   UNK N   1      32.071  17.230   6.290  0.00  0.00    -0.384 OA
BRANCH  24  25
HETATM   25  C   UNK N   1      30.774  16.913   5.835  0.00  0.00     0.194 C 
BRANCH  25  26
HETATM   26  C   UNK N   1      30.559  17.297   4.379  0.00  0.00     0.190 C 
BRANCH  26  27
HETATM   27  O   UNK N   1      31.642  18.068   3.956  0.00  0.00    -0.399 OA
HETATM   28  H   UNK N   1      31.963  18.853   3.484  0.00  0.00     0.209 HD
ENDBRANCH  26  27
ENDBRANCH  25  26
ENDBRANCH  24  25
ENDBRANCH  21  24
ENDBRANCH  14  18
BRANCH   5  29
HETATM   29  C   UNK N   1      35.683  13.190  13.001  0.00  0.00    -0.005 A 
HETATM   30  C   UNK N   1      36.417  13.955  13.919  0.00  0.00     0.018 A 
HETATM   31  C   UNK N   1      36.182  13.809  15.293  0.00  0.00     0.057 A 
HETATM   32  C   UNK N   1      35.214  12.898  15.738  0.00  0.00     0.141 A 
HETATM   33  N   UNK N   1      34.551  12.129  14.838  0.00  0.00    -0.346 N 
HETATM   34  C   UNK N   1      34.765  12.258  13.510  0.00  0.00     0.102 A 
ATOM     35  HN  UNK N   1      33.878  11.439  15.170  1.00  0.00     0.167 HD
BRANCH  32  36
HETATM   36  O   UNK N   1      34.921  12.809  17.053  0.00  0.00    -0.341 OA
HETATM   37  C   UNK N   1      35.251  13.811  17.940  0.00  0.00     0.211 C 
ENDBRANCH  32  36
ENDBRANCH   5  29
TORSDOF 7
ENDMDL
MODEL 4
REMARK VINA RESULT:      -6.9      2.041      7.872
REMARK  7 active torsions:
REMARK  status: ('A' for Active; 'I' for Inactive)
REMARK    1  A    between atoms: C_10  and  C_9 
REMARK    2  A    between atoms: O_31  and  C_9 
REMARK    3  A    between atoms: O_34  and  C_10 
REMARK    4  A    between atoms: C_18  and  C_14 
REMARK    5  A    between atoms: C_15  and  N_30 
REMARK    6  A    between atoms: C_16  and  O_34 
REMARK    7  A    between atoms: O_33  and  C_19 
REMARK       I    between atoms: N_23  and  C_22 
ROOT
HETATM    1  C   UNK N   1      31.869  16.149   8.941  0.00  0.00     0.070 C 
HETATM    2  C   UNK N   1      31.496  16.088   6.047  0.00  0.00     0.035 A 
HETATM    3  C   UNK N   1      30.717  16.807   8.254  0.00  0.00     0.036 A 
HETATM    4  C   UNK N   1      30.573  16.761   6.855  0.00  0.00     0.033 A 
HETATM    5  C   UNK N   1      31.321  16.039   4.662  0.00  0.00     0.045 A 
HETATM    6  C   UNK N   1      29.443  17.382   6.269  0.00  0.00     0.138 A 
HETATM    7  C   UNK N   1      30.187  16.670   4.107  0.00  0.00     0.260 A 
HETATM    8  C   UNK N   1      28.706  18.040   8.430  0.00  0.00     0.677 A 
HETATM    9  N   UNK N   1      27.839  18.630   9.160  0.00  0.00    -0.234 N 
ATOM     10  HN  UNK N   1      27.952  18.643  10.174  1.00  0.00     0.174 HD
HETATM   11  N   UNK N   1      29.782  17.444   9.005  0.00  0.00    -0.195 N 
HETATM   12  N   UNK N   1      28.544  18.002   7.081  0.00  0.00    -0.176 N 
ATOM     13  HN  UNK N   1      27.726  18.450   6.667  1.00  0.00     0.186 HD
HETATM   14  N   UNK N   1      29.256  17.321   4.903  0.00  0.00    -0.293 N 
HETATM   15  O   UNK N   1      29.992  16.598   2.904  0.00  0.00    -0.267 OA
HETATM   16  H   UNK N   1      27.062  19.071   8.746  0.00  0.00     0.174 HD
HETATM   17  H   UNK N   1      29.887  17.475   9.983  0.00  0.00     0.184 HD
ENDROOT
BRANCH  14  18
HETATM   18  C   UNK N   1      28.048  17.815   4.181  0.00  0.00     0.095 C 
HETATM   19  C   UNK N   1      27.743  19.281   4.511  0.00  0.00     0.028 C 
HETATM   20  C   UNK N   1      26.890  19.851   3.382  0.00  0.00     0.034 C 
HETATM   21  C   UNK N   1      25.562  19.103   3.269  0.00  0.00     0.121 C 
HETATM   22  C   UNK N   1      25.802  17.566   3.200  0.00  0.00     0.034 C 
HETATM   23  C   UNK N   1      26.738  17.044   4.299  0.00  0.00     0.028 C 
BRANCH  21  24
HETATM   24  O   UNK N   1      24.732  19.529   4.337  0.00  0.00    -0.384 OA
BRANCH  24  25
HETATM   25  C   UNK N   1      23.370  19.285   4.063  0.00  0.00     0.194 C 
BRANCH  25  26
HETATM   26  C   UNK N   1      22.872  20.064   2.856  0.00  0.00     0.190 C 
BRANCH  26  27
HETATM   27  O   UNK N   1      23.086  21.423   3.083  0.00  0.00    -0.399 OA
HETATM   28  H   UNK N   1      22.730  22.280   3.369  0.00  0.00     0.209 HD
ENDBRANCH  26  27
ENDBRANCH  25  26
ENDBRANCH  24  25
ENDBRANCH  21  24
ENDBRANCH  14  18
BRANCH   5  29
HETATM   29  C   UNK N   1      32.246  15.234   3.793  0.00  0.00    -0.005 A 
HETATM   30  C   UNK N   1      32.077  13.852   3.622  0.00  0.00     0.018 A 
HETATM   31  C   UNK N   1      32.841  13.169   2.666  0.00  0.00     0.057 A 
HETATM   32  C   UNK N   1      33.769  13.876   1.887  0.00  0.00     0.141 A 
HETATM   33  N   UNK N   1      33.956  15.202   2.103  0.00  0.00    -0.346 N 
HETATM   34  C   UNK N   1      33.227  15.875   3.020  0.00  0.00     0.102 A 
ATOM     35  HN  UNK N   1      34.661  15.701   1.562  1.00  0.00     0.167 HD
BRANCH  32  36
HETATM   36  O   UNK N   1      34.450  13.244   0.907  0.00  0.00    -0.341 OA
HETATM   37  C   UNK N   1      33.806  12.561  -0.101  0.00  0.00     0.211 C 
ENDBRANCH  32  36
ENDBRANCH   5  29
TORSDOF 7
ENDMDL
MODEL 5
REMARK VINA RESULT:      -6.9      5.413     10.812
REMARK  7 active torsions:
REMARK  status: ('A' for Active; 'I' for Inactive)
REMARK    1  A    between atoms: C_10  and  C_9 
REMARK    2  A    between atoms: O_31  and  C_9 
REMARK    3  A    between atoms: O_34  and  C_10 
REMARK    4  A    between atoms: C_18  and  C_14 
REMARK    5  A    between atoms: C_15  and  N_30 
REMARK    6  A    between atoms: C_16  and  O_34 
REMARK    7  A    between atoms: O_33  and  C_19 
REMARK       I    between atoms: N_23  and  C_22 
ROOT
HETATM    1  C   UNK N   1      39.132  12.094   8.992  0.00  0.00     0.070 C 
HETATM    2  C   UNK N   1      36.783  13.126  10.384  0.00  0.00     0.035 A 
HETATM    3  C   UNK N   1      38.069  12.896   8.313  0.00  0.00     0.036 A 
HETATM    4  C   UNK N   1      36.949  13.373   9.017  0.00  0.00     0.033 A 
HETATM    5  C   UNK N   1      35.672  13.628  11.066  0.00  0.00     0.045 A 
HETATM    6  C   UNK N   1      35.992  14.151   8.320  0.00  0.00     0.138 A 
HETATM    7  C   UNK N   1      34.734  14.398  10.343  0.00  0.00     0.260 A 
HETATM    8  C   UNK N   1      37.280  13.927   6.336  0.00  0.00     0.677 A 
HETATM    9  N   UNK N   1      37.436  14.186   5.094  0.00  0.00    -0.234 N 
ATOM     10  HN  UNK N   1      38.261  13.843   4.603  1.00  0.00     0.174 HD
HETATM   11  N   UNK N   1      38.207  13.184   6.993  0.00  0.00    -0.195 N 
HETATM   12  N   UNK N   1      36.193  14.403   6.998  0.00  0.00    -0.176 N 
ATOM     13  HN  UNK N   1      35.510  14.965   6.489  1.00  0.00     0.186 HD
HETATM   14  N   UNK N   1      34.901  14.664   8.991  0.00  0.00    -0.293 N 
HETATM   15  O   UNK N   1      33.781  14.883  10.931  0.00  0.00    -0.267 OA
HETATM   16  H   UNK N   1      36.762  14.717   4.612  0.00  0.00     0.174 HD
HETATM   17  H   UNK N   1      38.993  12.847   6.505  0.00  0.00     0.184 HD
ENDROOT
BRANCH  14  18
HETATM   18  C   UNK N   1      33.900  15.603   8.409  0.00  0.00     0.095 C 
HETATM   19  C   UNK N   1      33.896  16.956   9.132  0.00  0.00     0.028 C 
HETATM   20  C   UNK N   1      33.293  17.993   8.190  0.00  0.00     0.034 C 
HETATM   21  C   UNK N   1      31.849  17.638   7.837  0.00  0.00     0.121 C 
HETATM   22  C   UNK N   1      31.751  16.164   7.343  0.00  0.00     0.034 C 
HETATM   23  C   UNK N   1      32.448  15.160   8.272  0.00  0.00     0.028 C 
BRANCH  21  24
HETATM   24  O   UNK N   1      31.041  17.944   8.961  0.00  0.00    -0.384 OA
BRANCH  24  25
HETATM   25  C   UNK N   1      29.704  18.191   8.586  0.00  0.00     0.194 C 
BRANCH  25  26
HETATM   26  C   UNK N   1      28.706  17.577   9.554  0.00  0.00     0.190 C 
BRANCH  26  27
HETATM   27  O   UNK N   1      27.474  18.210   9.386  0.00  0.00    -0.399 OA
HETATM   28  H   UNK N   1      26.911  18.794   8.854  0.00  0.00     0.209 HD
ENDBRANCH  26  27
ENDBRANCH  25  26
ENDBRANCH  24  25
ENDBRANCH  21  24
ENDBRANCH  14  18
BRANCH   5  29
HETATM   29  C   UNK N   1      35.535  13.459  12.552  0.00  0.00    -0.005 A 
HETATM   30  C   UNK N   1      34.830  12.382  13.108  0.00  0.00     0.018 A 
HETATM   31  C   UNK N   1      34.879  12.156  14.491  0.00  0.00     0.057 A 
HETATM   32  C   UNK N   1      35.633  13.012  15.307  0.00  0.00     0.141 A 
HETATM   33  N   UNK N   1      36.266  14.079  14.758  0.00  0.00    -0.346 N 
HETATM   34  C   UNK N   1      36.230  14.310  13.427  0.00  0.00     0.102 A 
ATOM     35  HN  UNK N   1      36.778  14.721  15.362  1.00  0.00     0.167 HD
BRANCH  32  36
HETATM   36  O   UNK N   1      35.754  12.755  16.627  0.00  0.00    -0.341 OA
HETATM   37  C   UNK N   1      35.152  13.548  17.579  0.00  0.00     0.211 C 
ENDBRANCH  32  36
ENDBRANCH   5  29
TORSDOF 7
ENDMDL
MODEL 6
REMARK VINA RESULT:      -6.8      3.571      8.039
REMARK  7 active torsions:
REMARK  status: ('A' for Active; 'I' for Inactive)
REMARK    1  A    between atoms: C_10  and  C_9 
REMARK    2  A    between atoms: O_31  and  C_9 
REMARK    3  A    between atoms: O_34  and  C_10 
REMARK    4  A    between atoms: C_18  and  C_14 
REMARK    5  A    between atoms: C_15  and  N_30 
REMARK    6  A    between atoms: C_16  and  O_34 
REMARK    7  A    between atoms: O_33  and  C_19 
REMARK       I    between atoms: N_23  and  C_22 
ROOT
HETATM    1  C   UNK N   1      26.991  21.189   5.405  0.00  0.00     0.070 C 
HETATM    2  C   UNK N   1      28.458  18.694   5.027  0.00  0.00     0.035 A 
HETATM    3  C   UNK N   1      26.359  19.944   4.874  0.00  0.00     0.036 A 
HETATM    4  C   UNK N   1      27.099  18.762   4.700  0.00  0.00     0.033 A 
HETATM    5  C   UNK N   1      29.168  17.502   4.865  0.00  0.00     0.045 A 
HETATM    6  C   UNK N   1      26.432  17.609   4.218  0.00  0.00     0.138 A 
HETATM    7  C   UNK N   1      28.476  16.371   4.380  0.00  0.00     0.260 A 
HETATM    8  C   UNK N   1      24.408  18.848   4.107  0.00  0.00     0.677 A 
HETATM    9  N   UNK N   1      23.160  18.888   3.836  0.00  0.00    -0.234 N 
ATOM     10  HN  UNK N   1      22.635  19.751   3.979  1.00  0.00     0.174 HD
HETATM   11  N   UNK N   1      25.034  19.959   4.574  0.00  0.00    -0.195 N 
HETATM   12  N   UNK N   1      25.103  17.693   3.938  0.00  0.00    -0.176 N 
ATOM     13  HN  UNK N   1      24.615  16.866   3.592  1.00  0.00     0.186 HD
HETATM   14  N   UNK N   1      27.124  16.423   4.072  0.00  0.00    -0.293 N 
HETATM   15  O   UNK N   1      29.068  15.309   4.275  0.00  0.00    -0.267 OA
HETATM   16  H   UNK N   1      22.704  18.087   3.488  0.00  0.00     0.174 HD
HETATM   17  H   UNK N   1      24.520  20.789   4.696  0.00  0.00     0.184 HD
ENDROOT
BRANCH  14  18
HETATM   18  C   UNK N   1      26.512  15.114   3.705  0.00  0.00     0.095 C 
HETATM   19  C   UNK N   1      25.842  15.162   2.326  0.00  0.00     0.028 C 
HETATM   20  C   UNK N   1      25.739  13.734   1.801  0.00  0.00     0.034 C 
HETATM   21  C   UNK N   1      24.874  12.874   2.721  0.00  0.00     0.121 C 
HETATM   22  C   UNK N   1      25.350  12.999   4.199  0.00  0.00     0.034 C 
HETATM   23  C   UNK N   1      25.529  14.451   4.662  0.00  0.00     0.028 C 
BRANCH  21  24
HETATM   24  O   UNK N   1      23.519  13.231   2.501  0.00  0.00    -0.384 OA
BRANCH  24  25
HETATM   25  C   UNK N   1      22.922  12.414   1.519  0.00  0.00     0.194 C 
BRANCH  25  26
HETATM   26  C   UNK N   1      22.179  13.221   0.465  0.00  0.00     0.190 C 
BRANCH  26  27
HETATM   27  O   UNK N   1      22.446  14.575   0.670  0.00  0.00    -0.399 OA
HETATM   28  H   UNK N   1      22.985  15.352   0.456  0.00  0.00     0.209 HD
ENDBRANCH  26  27
ENDBRANCH  25  26
ENDBRANCH  24  25
ENDBRANCH  21  24
ENDBRANCH  14  18
BRANCH   5  29
HETATM   29  C   UNK N   1      30.599  17.387   5.309  0.00  0.00    -0.005 A 
HETATM   30  C   UNK N   1      31.663  17.577   4.416  0.00  0.00     0.018 A 
HETATM   31  C   UNK N   1      32.977  17.643   4.901  0.00  0.00     0.057 A 
HETATM   32  C   UNK N   1      33.214  17.520   6.277  0.00  0.00     0.141 A 
HETATM   33  N   UNK N   1      32.178  17.285   7.120  0.00  0.00    -0.346 N 
HETATM   34  C   UNK N   1      30.906  17.219   6.669  0.00  0.00     0.102 A 
ATOM     35  HN  UNK N   1      32.362  17.155   8.114  1.00  0.00     0.167 HD
BRANCH  32  36
HETATM   36  O   UNK N   1      34.466  17.666   6.764  0.00  0.00    -0.341 OA
HETATM   37  C   UNK N   1      34.699  18.044   8.068  0.00  0.00     0.211 C 
ENDBRANCH  32  36
ENDBRANCH   5  29
TORSDOF 7
ENDMDL
MODEL 7
REMARK VINA RESULT:      -6.7      3.142      7.326
REMARK  7 active torsions:
REMARK  status: ('A' for Active; 'I' for Inactive)
REMARK    1  A    between atoms: C_10  and  C_9 
REMARK    2  A    between atoms: O_31  and  C_9 
REMARK    3  A    between atoms: O_34  and  C_10 
REMARK    4  A    between atoms: C_18  and  C_14 
REMARK    5  A    between atoms: C_15  and  N_30 
REMARK    6  A    between atoms: C_16  and  O_34 
REMARK    7  A    between atoms: O_33  and  C_19 
REMARK       I    between atoms: N_23  and  C_22 
ROOT
HETATM    1  C   UNK N   1      27.799  19.807   7.188  0.00  0.00     0.070 C 
HETATM    2  C   UNK N   1      29.875  17.793   6.799  0.00  0.00     0.035 A 
HETATM    3  C   UNK N   1      27.629  18.624   6.292  0.00  0.00     0.036 A 
HETATM    4  C   UNK N   1      28.655  17.676   6.125  0.00  0.00     0.033 A 
HETATM    5  C   UNK N   1      30.872  16.827   6.634  0.00  0.00     0.045 A 
HETATM    6  C   UNK N   1      28.418  16.563   5.282  0.00  0.00     0.138 A 
HETATM    7  C   UNK N   1      30.607  15.731   5.784  0.00  0.00     0.260 A 
HETATM    8  C   UNK N   1      26.235  17.388   4.834  0.00  0.00     0.677 A 
HETATM    9  N   UNK N   1      25.113  17.253   4.238  0.00  0.00    -0.234 N 
ATOM     10  HN  UNK N   1      24.375  17.943   4.380  1.00  0.00     0.174 HD
HETATM   11  N   UNK N   1      26.447  18.457   5.643  0.00  0.00    -0.195 N 
HETATM   12  N   UNK N   1      27.210  16.457   4.664  0.00  0.00    -0.176 N 
ATOM     13  HN  UNK N   1      27.031  15.656   4.056  1.00  0.00     0.186 HD
HETATM   14  N   UNK N   1      29.392  15.597   5.128  0.00  0.00    -0.293 N 
HETATM   15  O   UNK N   1      31.447  14.854   5.663  0.00  0.00    -0.267 OA
HETATM   16  H   UNK N   1      24.959  16.484   3.643  0.00  0.00     0.174 HD
HETATM   17  H   UNK N   1      25.733  19.124   5.762  0.00  0.00     0.184 HD
ENDROOT
BRANCH  14  18
HETATM   18  C   UNK N   1      29.219  14.317   4.381  0.00  0.00     0.095 C 
HETATM   19  C   UNK N   1      29.335  14.520   2.866  0.00  0.00     0.028 C 
HETATM   20  C   UNK N   1      29.691  13.177   2.236  0.00  0.00     0.034 C 
HETATM   21  C   UNK N   1      28.596  12.144   2.496  0.00  0.00     0.121 C 
HETATM   22  C   UNK N   1      28.244  12.086   4.012  0.00  0.00     0.034 C 
HETATM   23  C   UNK N   1      27.980  13.466   4.631  0.00  0.00     0.028 C 
BRANCH  21  24
HETATM   24  O   UNK N   1      27.505  12.444   1.642  0.00  0.00    -0.384 OA
BRANCH  24  25
HETATM   25  C   UNK N   1      26.447  11.527   1.812  0.00  0.00     0.194 C 
BRANCH  25  26
HETATM   26  C   UNK N   1      25.090  12.210   1.868  0.00  0.00     0.190 C 
BRANCH  26  27
HETATM   27  O   UNK N   1      25.286  13.581   2.027  0.00  0.00    -0.399 OA
HETATM   28  H   UNK N   1      25.042  14.486   1.774  0.00  0.00     0.209 HD
ENDBRANCH  26  27
ENDBRANCH  25  26
ENDBRANCH  24  25
ENDBRANCH  21  24
ENDBRANCH  14  18
BRANCH   5  29
HETATM   29  C   UNK N   1      32.144  16.885   7.429  0.00  0.00    -0.005 A 
HETATM   30  C   UNK N   1      33.215  17.705   7.046  0.00  0.00     0.018 A 
HETATM   31  C   UNK N   1      34.309  17.872   7.906  0.00  0.00     0.057 A 
HETATM   32  C   UNK N   1      34.322  17.217   9.146  0.00  0.00     0.141 A 
HETATM   33  N   UNK N   1      33.302  16.387   9.478  0.00  0.00    -0.346 N 
HETATM   34  C   UNK N   1      32.240  16.215   8.660  0.00  0.00     0.102 A 
ATOM     35  HN  UNK N   1      33.337  15.881  10.362  1.00  0.00     0.167 HD
BRANCH  32  36
HETATM   36  O   UNK N   1      35.330  17.437  10.017  0.00  0.00    -0.341 OA
HETATM   37  C   UNK N   1      35.707  16.491  10.945  0.00  0.00     0.211 C 
ENDBRANCH  32  36
ENDBRANCH   5  29
TORSDOF 7
ENDMDL
MODEL 8
REMARK VINA RESULT:      -6.5      7.881     12.740
REMARK  7 active torsions:
REMARK  status: ('A' for Active; 'I' for Inactive)
REMARK    1  A    between atoms: C_10  and  C_9 
REMARK    2  A    between atoms: O_31  and  C_9 
REMARK    3  A    between atoms: O_34  and  C_10 
REMARK    4  A    between atoms: C_18  and  C_14 
REMARK    5  A    between atoms: C_15  and  N_30 
REMARK    6  A    between atoms: C_16  and  O_34 
REMARK    7  A    between atoms: O_33  and  C_19 
REMARK       I    between atoms: N_23  and  C_22 
ROOT
HETATM    1  C   UNK N   1      38.660   8.586  12.209  0.00  0.00     0.070 C 
HETATM    2  C   UNK N   1      36.720  10.385  13.442  0.00  0.00     0.035 A 
HETATM    3  C   UNK N   1      38.088   9.774  11.505  0.00  0.00     0.036 A 
HETATM    4  C   UNK N   1      37.150  10.615  12.130  0.00  0.00     0.033 A 
HETATM    5  C   UNK N   1      35.803  11.246  14.049  0.00  0.00     0.045 A 
HETATM    6  C   UNK N   1      36.667  11.739  11.417  0.00  0.00     0.138 A 
HETATM    7  C   UNK N   1      35.338  12.357  13.311  0.00  0.00     0.260 A 
HETATM    8  C   UNK N   1      38.027  11.129   9.567  0.00  0.00     0.677 A 
HETATM    9  N   UNK N   1      38.437  11.368   8.381  0.00  0.00    -0.234 N 
ATOM     10  HN  UNK N   1      39.127  10.754   7.947  1.00  0.00     0.174 HD
HETATM   11  N   UNK N   1      38.502  10.050  10.242  0.00  0.00    -0.195 N 
HETATM   12  N   UNK N   1      37.126  11.958  10.155  0.00  0.00    -0.176 N 
ATOM     13  HN  UNK N   1      36.785  12.768   9.635  1.00  0.00     0.186 HD
HETATM   14  N   UNK N   1      35.775  12.604  12.018  0.00  0.00    -0.293 N 
HETATM   15  O   UNK N   1      34.573  13.146  13.840  0.00  0.00    -0.267 OA
HETATM   16  H   UNK N   1      38.089  12.144   7.885  0.00  0.00     0.174 HD
HETATM   17  H   UNK N   1      39.158   9.458   9.808  0.00  0.00     0.184 HD
ENDROOT
BRANCH  14  18
HETATM   18  C   UNK N   1      35.297  13.889  11.429  0.00  0.00     0.095 C 
HETATM   19  C   UNK N   1      34.467  13.662  10.160  0.00  0.00     0.028 C 
HETATM   20  C   UNK N   1      33.593  14.893   9.941  0.00  0.00     0.034 C 
HETATM   21  C   UNK N   1      34.449  16.141   9.733  0.00  0.00     0.121 C 
HETATM   22  C   UNK N   1      35.506  16.278  10.868  0.00  0.00     0.034 C 
HETATM   23  C   UNK N   1      36.304  14.990  11.119  0.00  0.00     0.028 C 
BRANCH  21  24
HETATM   24  O   UNK N   1      34.987  16.084   8.422  0.00  0.00    -0.384 OA
BRANCH  24  25
HETATM   25  C   UNK N   1      34.414  17.063   7.584  0.00  0.00     0.194 C 
BRANCH  25  26
HETATM   26  C   UNK N   1      34.098  18.351   8.327  0.00  0.00     0.190 C 
BRANCH  26  27
HETATM   27  O   UNK N   1      35.248  19.140   8.361  0.00  0.00    -0.399 OA
HETATM   28  H   UNK N   1      35.660  20.007   8.218  0.00  0.00     0.209 HD
ENDBRANCH  26  27
ENDBRANCH  25  26
ENDBRANCH  24  25
ENDBRANCH  21  24
ENDBRANCH  14  18
BRANCH   5  29
HETATM   29  C   UNK N   1      35.413  11.071  15.489  0.00  0.00    -0.005 A 
HETATM   30  C   UNK N   1      34.909   9.854  15.971  0.00  0.00     0.018 A 
HETATM   31  C   UNK N   1      34.730   9.671  17.349  0.00  0.00     0.057 A 
HETATM   32  C   UNK N   1      35.056  10.708  18.235  0.00  0.00     0.141 A 
HETATM   33  N   UNK N   1      35.493  11.896  17.746  0.00  0.00    -0.346 N 
HETATM   34  C   UNK N   1      35.672  12.089  16.421  0.00  0.00     0.102 A 
ATOM     35  HN  UNK N   1      35.689  12.660  18.392  1.00  0.00     0.167 HD
BRANCH  32  36
HETATM   36  O   UNK N   1      34.966  10.513  19.568  0.00  0.00    -0.341 OA
HETATM   37  C   UNK N   1      34.069   9.621  20.112  0.00  0.00     0.211 C 
ENDBRANCH  32  36
ENDBRANCH   5  29
TORSDOF 7
ENDMDL
MODEL 9
REMARK VINA RESULT:      -6.3      7.756     11.520
REMARK  7 active torsions:
REMARK  status: ('A' for Active; 'I' for Inactive)
REMARK    1  A    between atoms: C_10  and  C_9 
REMARK    2  A    between atoms: O_31  and  C_9 
REMARK    3  A    between atoms: O_34  and  C_10 
REMARK    4  A    between atoms: C_18  and  C_14 
REMARK    5  A    between atoms: C_15  and  N_30 
REMARK    6  A    between atoms: C_16  and  O_34 
REMARK    7  A    between atoms: O_33  and  C_19 
REMARK       I    between atoms: N_23  and  C_22 
ROOT
HETATM    1  C   UNK N   1      38.485  11.142   8.331  0.00  0.00     0.070 C 
HETATM    2  C   UNK N   1      36.642  12.829   9.840  0.00  0.00     0.035 A 
HETATM    3  C   UNK N   1      38.114  10.875   9.754  0.00  0.00     0.036 A 
HETATM    4  C   UNK N   1      37.226  11.714  10.450  0.00  0.00     0.033 A 
HETATM    5  C   UNK N   1      35.747  13.636  10.546  0.00  0.00     0.045 A 
HETATM    6  C   UNK N   1      36.895  11.388  11.788  0.00  0.00     0.138 A 
HETATM    7  C   UNK N   1      35.439  13.287  11.879  0.00  0.00     0.260 A 
HETATM    8  C   UNK N   1      38.313   9.486  11.659  0.00  0.00     0.677 A 
HETATM    9  N   UNK N   1      38.815   8.452  12.217  0.00  0.00    -0.234 N 
ATOM     10  HN  UNK N   1      39.448   7.847  11.693  1.00  0.00     0.174 HD
HETATM   11  N   UNK N   1      38.635   9.784  10.373  0.00  0.00    -0.195 N 
HETATM   12  N   UNK N   1      37.452  10.279  12.348  0.00  0.00    -0.176 N 
ATOM     13  HN  UNK N   1      37.217  10.037  13.311  1.00  0.00     0.186 HD
HETATM   14  N   UNK N   1      35.997  12.171  12.486  0.00  0.00    -0.293 N 
HETATM   15  O   UNK N   1      34.624  13.953  12.497  0.00  0.00    -0.267 OA
HETATM   16  H   UNK N   1      38.591   8.237  13.151  0.00  0.00     0.174 HD
HETATM   17  H   UNK N   1      39.257   9.200   9.882  0.00  0.00     0.184 HD
ENDROOT
BRANCH  14  18
HETATM   18  C   UNK N   1      35.466  11.863  13.844  0.00  0.00     0.095 C 
HETATM   19  C   UNK N   1      36.488  12.176  14.943  0.00  0.00     0.028 C 
HETATM   20  C   UNK N   1      35.730  12.362  16.254  0.00  0.00     0.034 C 
HETATM   21  C   UNK N   1      34.990  11.083  16.643  0.00  0.00     0.121 C 
HETATM   22  C   UNK N   1      34.130  10.562  15.454  0.00  0.00     0.034 C 
HETATM   23  C   UNK N   1      34.905  10.475  14.132  0.00  0.00     0.028 C 
BRANCH  21  24
HETATM   24  O   UNK N   1      35.949  10.160  17.134  0.00  0.00    -0.384 OA
BRANCH  24  25
HETATM   25  C   UNK N   1      36.274  10.419  18.482  0.00  0.00     0.194 C 
BRANCH  25  26
HETATM   26  C   UNK N   1      35.045  10.474  19.375  0.00  0.00     0.190 C 
BRANCH  26  27
HETATM   27  O   UNK N   1      35.221  11.490  20.314  0.00  0.00    -0.399 OA
HETATM   28  H   UNK N   1      34.872  12.287  20.746  0.00  0.00     0.209 HD
ENDBRANCH  26  27
ENDBRANCH  25  26
ENDBRANCH  24  25
ENDBRANCH  21  24
ENDBRANCH  14  18
BRANCH   5  29
HETATM   29  C   UNK N   1      35.034  14.774   9.873  0.00  0.00    -0.005 A 
HETATM   30  C   UNK N   1      34.014  14.552   8.936  0.00  0.00     0.018 A 
HETATM   31  C   UNK N   1      33.250  15.630   8.468  0.00  0.00     0.057 A 
HETATM   32  C   UNK N   1      33.513  16.923   8.942  0.00  0.00     0.141 A 
HETATM   33  N   UNK N   1      34.538  17.126   9.808  0.00  0.00    -0.346 N 
HETATM   34  C   UNK N   1      35.283  16.098  10.270  0.00  0.00     0.102 A 
ATOM     35  HN  UNK N   1      34.750  18.074  10.117  1.00  0.00     0.167 HD
BRANCH  32  36
HETATM   36  O   UNK N   1      32.731  17.956   8.561  0.00  0.00    -0.341 OA
HETATM   37  C   UNK N   1      31.357  17.855   8.537  0.00  0.00     0.211 C 
ENDBRANCH  32  36
ENDBRANCH   5  29
TORSDOF 7
ENDMDL
