MODEL 1
REMARK VINA RESULT:      -7.7      0.000      0.000
REMARK  5 active torsions:
REMARK  status: ('A' for Active; 'I' for Inactive)
REMARK    1  A    between atoms: C_3  and  O_27 
REMARK    2  A    between atoms: C_8  and  C_9 
REMARK    3  A    between atoms: C_9  and  S_10 
REMARK    4  A    between atoms: S_10  and  C_11 
REMARK    5  A    between atoms: C_16  and  N_21 
ROOT
HETATM    1  C   UNK N   1      36.135  14.112  12.053  0.00  0.00     0.176 A 
HETATM    2  N   UNK N   1      35.218  13.110  12.038  0.00  0.00    -0.333 N 
HETATM    3  C   UNK N   1      35.168  12.712  13.317  0.00  0.00     0.061 A 
HETATM    4  C   UNK N   1      34.349  11.741  13.888  0.00  0.00     0.034 A 
HETATM    5  C   UNK N   1      34.417  11.576  15.286  0.00  0.00     0.032 A 
HETATM    6  C   UNK N   1      35.294  12.376  16.071  0.00  0.00     0.040 A 
HETATM    7  C   UNK N   1      36.119  13.330  15.439  0.00  0.00     0.061 A 
HETATM    8  C   UNK N   1      36.020  13.461  14.064  0.00  0.00     0.063 A 
HETATM    9  N   UNK N   1      36.643  14.352  13.284  0.00  0.00    -0.333 N 
ATOM     10  HN  UNK N   1      37.336  15.049  13.554  1.00  0.00     0.168 HD
HETATM   11  H   UNK N   1      34.711  12.759  11.271  0.00  0.00     0.168 HD
ENDROOT
BRANCH   1  12
HETATM   12  S   UNK N   1      36.437  15.205  10.668  0.00  0.00     0.090 S 
HETATM   13  O   UNK N   1      37.722  14.849   9.579  0.00  0.00    -0.249 OA
BRANCH  12  14
HETATM   14  C   UNK N   1      34.953  16.060  10.031  0.00  0.00     0.175 C 
BRANCH  14  15
HETATM   15  C   UNK N   1      34.809  15.890   8.554  0.00  0.00     0.029 A 
HETATM   16  N   UNK N   1      35.017  14.659   8.021  0.00  0.00    -0.368 N 
HETATM   17  C   UNK N   1      34.869  14.418   6.696  0.00  0.00     0.091 A 
ATOM     18  HN  UNK N   1      35.293  13.893   8.635  1.00  0.00     0.165 HD
HETATM   19  C   UNK N   1      34.489  15.445   5.836  0.00  0.00     0.054 A 
HETATM   20  C   UNK N   1      34.259  16.731   6.328  0.00  0.00     0.077 A 
HETATM   21  C   UNK N   1      34.424  16.968   7.723  0.00  0.00    -0.005 A 
HETATM   22  C   UNK N   1      34.204  18.316   8.338  0.00  0.00     0.053 C 
BRANCH  20  23
HETATM   23  O   UNK N   1      33.885  17.676   5.422  0.00  0.00    -0.355 OA
HETATM   24  C   UNK N   1      32.879  17.569   4.491  0.00  0.00     0.210 C 
ENDBRANCH  20  23
ENDBRANCH  14  15
ENDBRANCH  12  14
ENDBRANCH   1  12
BRANCH   6  25
HETATM   25  N   UNK N   1      35.299  12.267  17.503  0.00  0.00    -0.333 N 
HETATM   26  C   UNK N   1      35.359  11.126  18.212  0.00  0.00     0.096 A 
HETATM   27  C   UNK N   1      35.296  11.427  19.559  0.00  0.00     0.019 A 
HETATM   28  C   UNK N   1      35.192  12.805  19.656  0.00  0.00     0.019 A 
HETATM   29  C   UNK N   1      35.195  13.294  18.366  0.00  0.00     0.096 A 
ENDBRANCH   6  25
TORSDOF 5
ENDMDL
MODEL 2
REMARK VINA RESULT:      -7.6      2.569      4.115
REMARK  5 active torsions:
REMARK  status: ('A' for Active; 'I' for Inactive)
REMARK    1  A    between atoms: C_3  and  O_27 
REMARK    2  A    between atoms: C_8  and  C_9 
REMARK    3  A    between atoms: C_9  and  S_10 
REMARK    4  A    between atoms: S_10  and  C_11 
REMARK    5  A    between atoms: C_16  and  N_21 
ROOT
HETATM    1  C   UNK N   1      34.911  16.548   9.355  0.00  0.00     0.176 A 
HETATM    2  N   UNK N   1      34.820  15.254   8.953  0.00  0.00    -0.333 N 
HETATM    3  C   UNK N   1      35.005  14.560  10.085  0.00  0.00     0.061 A 
HETATM    4  C   UNK N   1      34.961  13.180  10.269  0.00  0.00     0.034 A 
HETATM    5  C   UNK N   1      35.091  12.698  11.587  0.00  0.00     0.032 A 
HETATM    6  C   UNK N   1      35.263  13.597  12.677  0.00  0.00     0.040 A 
HETATM    7  C   UNK N   1      35.323  14.986  12.431  0.00  0.00     0.061 A 
HETATM    8  C   UNK N   1      35.190  15.417  11.123  0.00  0.00     0.063 A 
HETATM    9  N   UNK N   1      35.134  16.680  10.684  0.00  0.00    -0.333 N 
ATOM     10  HN  UNK N   1      35.236  17.539  11.223  1.00  0.00     0.168 HD
HETATM   11  H   UNK N   1      34.657  14.907   8.046  0.00  0.00     0.168 HD
ENDROOT
BRANCH   1  12
HETATM   12  S   UNK N   1      34.490  17.944   8.317  0.00  0.00     0.090 S 
HETATM   13  O   UNK N   1      35.312  19.439   8.544  0.00  0.00    -0.249 OA
BRANCH  12  14
HETATM   14  C   UNK N   1      33.907  17.504   6.642  0.00  0.00     0.175 C 
BRANCH  14  15
HETATM   15  C   UNK N   1      32.422  17.341   6.599  0.00  0.00     0.029 A 
HETATM   16  N   UNK N   1      31.748  17.238   7.773  0.00  0.00    -0.368 N 
HETATM   17  C   UNK N   1      30.399  17.126   7.816  0.00  0.00     0.091 A 
ATOM     18  HN  UNK N   1      32.272  17.245   8.648  1.00  0.00     0.165 HD
HETATM   19  C   UNK N   1      29.659  17.119   6.637  0.00  0.00     0.054 A 
HETATM   20  C   UNK N   1      30.297  17.223   5.400  0.00  0.00     0.077 A 
HETATM   21  C   UNK N   1      31.718  17.335   5.373  0.00  0.00    -0.005 A 
HETATM   22  C   UNK N   1      32.488  17.448   4.092  0.00  0.00     0.053 C 
BRANCH  20  23
HETATM   23  O   UNK N   1      29.501  17.214   4.296  0.00  0.00    -0.355 OA
HETATM   24  C   UNK N   1      28.239  17.749   4.189  0.00  0.00     0.210 C 
ENDBRANCH  20  23
ENDBRANCH  14  15
ENDBRANCH  12  14
ENDBRANCH   1  12
BRANCH   6  25
HETATM   25  N   UNK N   1      35.308  13.111  14.028  0.00  0.00    -0.333 N 
HETATM   26  C   UNK N   1      36.088  13.584  15.015  0.00  0.00     0.096 A 
HETATM   27  C   UNK N   1      35.882  12.831  16.155  0.00  0.00     0.019 A 
HETATM   28  C   UNK N   1      34.942  11.866  15.831  0.00  0.00     0.019 A 
HETATM   29  C   UNK N   1      34.610  12.066  14.507  0.00  0.00     0.096 A 
ENDBRANCH   6  25
TORSDOF 5
ENDMDL
MODEL 3
REMARK VINA RESULT:      -7.6      1.294      1.763
REMARK  5 active torsions:
REMARK  status: ('A' for Active; 'I' for Inactive)
REMARK    1  A    between atoms: C_3  and  O_27 
REMARK    2  A    between atoms: C_8  and  C_9 
REMARK    3  A    between atoms: C_9  and  S_10 
REMARK    4  A    between atoms: S_10  and  C_11 
REMARK    5  A    between atoms: C_16  and  N_21 
ROOT
HETATM    1  C   UNK N   1      35.193  13.864  12.469  0.00  0.00     0.176 A 
HETATM    2  N   UNK N   1      34.546  12.671  12.396  0.00  0.00    -0.333 N 
HETATM    3  C   UNK N   1      34.692  12.160  13.626  0.00  0.00     0.061 A 
HETATM    4  C   UNK N   1      34.179  10.968  14.132  0.00  0.00     0.034 A 
HETATM    5  C   UNK N   1      34.392  10.700  15.500  0.00  0.00     0.032 A 
HETATM    6  C   UNK N   1      35.108  11.617  16.318  0.00  0.00     0.040 A 
HETATM    7  C   UNK N   1      35.627  12.800  15.748  0.00  0.00     0.061 A 
HETATM    8  C   UNK N   1      35.394  13.026  14.403  0.00  0.00     0.063 A 
HETATM    9  N   UNK N   1      35.720  14.111  13.691  0.00  0.00    -0.333 N 
ATOM     10  HN  UNK N   1      36.243  14.930  13.997  1.00  0.00     0.168 HD
HETATM   11  H   UNK N   1      34.081  12.277  11.624  0.00  0.00     0.168 HD
ENDROOT
BRANCH   1  12
HETATM   12  S   UNK N   1      35.113  15.118  11.195  0.00  0.00     0.090 S 
HETATM   13  O   UNK N   1      36.576  15.743  10.538  0.00  0.00    -0.249 OA
BRANCH  12  14
HETATM   14  C   UNK N   1      33.633  15.031  10.127  0.00  0.00     0.175 C 
BRANCH  14  15
HETATM   15  C   UNK N   1      33.681  16.045   9.031  0.00  0.00     0.029 A 
HETATM   16  N   UNK N   1      34.267  17.244   9.284  0.00  0.00    -0.368 N 
HETATM   17  C   UNK N   1      34.382  18.200   8.331  0.00  0.00     0.091 A 
ATOM     18  HN  UNK N   1      34.629  17.431  10.219  1.00  0.00     0.165 HD
HETATM   19  C   UNK N   1      33.899  17.969   7.046  0.00  0.00     0.054 A 
HETATM   20  C   UNK N   1      33.290  16.754   6.727  0.00  0.00     0.077 A 
HETATM   21  C   UNK N   1      33.172  15.762   7.743  0.00  0.00    -0.005 A 
HETATM   22  C   UNK N   1      32.529  14.431   7.492  0.00  0.00     0.053 C 
BRANCH  20  23
HETATM   23  O   UNK N   1      32.850  16.606   5.446  0.00  0.00    -0.355 OA
HETATM   24  C   UNK N   1      32.811  17.577   4.474  0.00  0.00     0.210 C 
ENDBRANCH  20  23
ENDBRANCH  14  15
ENDBRANCH  12  14
ENDBRANCH   1  12
BRANCH   6  25
HETATM   25  N   UNK N   1      35.250  11.385  17.728  0.00  0.00    -0.333 N 
HETATM   26  C   UNK N   1      35.295  10.185  18.333  0.00  0.00     0.096 A 
HETATM   27  C   UNK N   1      35.392  10.371  19.699  0.00  0.00     0.019 A 
HETATM   28  C   UNK N   1      35.403  11.739  19.916  0.00  0.00     0.019 A 
HETATM   29  C   UNK N   1      35.312  12.337  18.676  0.00  0.00     0.096 A 
ENDBRANCH   6  25
TORSDOF 5
ENDMDL
MODEL 4
REMARK VINA RESULT:      -7.5      3.118      9.382
REMARK  5 active torsions:
REMARK  status: ('A' for Active; 'I' for Inactive)
REMARK    1  A    between atoms: C_3  and  O_27 
REMARK    2  A    between atoms: C_8  and  C_9 
REMARK    3  A    between atoms: C_9  and  S_10 
REMARK    4  A    between atoms: S_10  and  C_11 
REMARK    5  A    between atoms: C_16  and  N_21 
ROOT
HETATM    1  C   UNK N   1      34.904  14.283  10.078  0.00  0.00     0.176 A 
HETATM    2  N   UNK N   1      35.403  15.462   9.621  0.00  0.00    -0.333 N 
HETATM    3  C   UNK N   1      34.318  16.103   9.163  0.00  0.00     0.061 A 
HETATM    4  C   UNK N   1      34.237  17.386   8.627  0.00  0.00     0.034 A 
HETATM    5  C   UNK N   1      32.954  17.874   8.307  0.00  0.00     0.032 A 
HETATM    6  C   UNK N   1      31.796  17.075   8.526  0.00  0.00     0.040 A 
HETATM    7  C   UNK N   1      31.938  15.773   9.050  0.00  0.00     0.061 A 
HETATM    8  C   UNK N   1      33.215  15.333   9.352  0.00  0.00     0.063 A 
HETATM    9  N   UNK N   1      33.563  14.177   9.930  0.00  0.00    -0.333 N 
ATOM     10  HN  UNK N   1      32.960  13.400  10.196  1.00  0.00     0.168 HD
HETATM   11  H   UNK N   1      36.337  15.770   9.625  0.00  0.00     0.168 HD
ENDROOT
BRANCH   1  12
HETATM   12  S   UNK N   1      35.851  13.111  11.044  0.00  0.00     0.090 S 
HETATM   13  O   UNK N   1      37.551  13.331  11.205  0.00  0.00    -0.249 OA
BRANCH  12  14
HETATM   14  C   UNK N   1      34.929  12.329  12.415  0.00  0.00     0.175 C 
BRANCH  14  15
HETATM   15  C   UNK N   1      35.394  12.823  13.746  0.00  0.00     0.029 A 
HETATM   16  N   UNK N   1      36.307  13.828  13.780  0.00  0.00    -0.368 N 
HETATM   17  C   UNK N   1      36.748  14.354  14.948  0.00  0.00     0.091 A 
ATOM     18  HN  UNK N   1      36.671  14.197  12.902  1.00  0.00     0.165 HD
HETATM   19  C   UNK N   1      36.264  13.872  16.161  0.00  0.00     0.054 A 
HETATM   20  C   UNK N   1      35.323  12.841  16.187  0.00  0.00     0.077 A 
HETATM   21  C   UNK N   1      34.874  12.295  14.950  0.00  0.00    -0.005 A 
HETATM   22  C   UNK N   1      33.870  11.185  14.882  0.00  0.00     0.053 C 
BRANCH  20  23
HETATM   23  O   UNK N   1      34.897  12.431  17.414  0.00  0.00    -0.355 OA
HETATM   24  C   UNK N   1      35.190  13.017  18.623  0.00  0.00     0.210 C 
ENDBRANCH  20  23
ENDBRANCH  14  15
ENDBRANCH  12  14
ENDBRANCH   1  12
BRANCH   6  25
HETATM   25  N   UNK N   1      30.484  17.605   8.281  0.00  0.00    -0.333 N 
HETATM   26  C   UNK N   1      29.770  18.374   9.121  0.00  0.00     0.096 A 
HETATM   27  C   UNK N   1      28.540  18.645   8.552  0.00  0.00     0.019 A 
HETATM   28  C   UNK N   1      28.521  18.009   7.321  0.00  0.00     0.019 A 
HETATM   29  C   UNK N   1      29.738  17.373   7.186  0.00  0.00     0.096 A 
ENDBRANCH   6  25
TORSDOF 5
ENDMDL
MODEL 5
REMARK VINA RESULT:      -7.5      3.151     10.086
REMARK  5 active torsions:
REMARK  status: ('A' for Active; 'I' for Inactive)
REMARK    1  A    between atoms: C_3  and  O_27 
REMARK    2  A    between atoms: C_8  and  C_9 
REMARK    3  A    between atoms: C_9  and  S_10 
REMARK    4  A    between atoms: S_10  and  C_11 
REMARK    5  A    between atoms: C_16  and  N_21 
ROOT
HETATM    1  C   UNK N   1      35.802  14.232  12.877  0.00  0.00     0.176 A 
HETATM    2  N   UNK N   1      36.303  15.405  12.408  0.00  0.00    -0.333 N 
HETATM    3  C   UNK N   1      35.533  15.670  11.343  0.00  0.00     0.061 A 
HETATM    4  C   UNK N   1      35.569  16.784  10.508  0.00  0.00     0.034 A 
HETATM    5  C   UNK N   1      34.580  16.875   9.508  0.00  0.00     0.032 A 
HETATM    6  C   UNK N   1      33.593  15.860   9.366  0.00  0.00     0.040 A 
HETATM    7  C   UNK N   1      33.617  14.740  10.224  0.00  0.00     0.061 A 
HETATM    8  C   UNK N   1      34.603  14.690  11.194  0.00  0.00     0.063 A 
HETATM    9  N   UNK N   1      34.756  13.771  12.154  0.00  0.00    -0.333 N 
ATOM     10  HN  UNK N   1      34.211  12.922  12.305  1.00  0.00     0.168 HD
HETATM   11  H   UNK N   1      37.052  15.934  12.765  0.00  0.00     0.168 HD
ENDROOT
BRANCH   1  12
HETATM   12  S   UNK N   1      36.265  13.511  14.449  0.00  0.00     0.090 S 
HETATM   13  O   UNK N   1      37.336  14.371  15.487  0.00  0.00    -0.249 OA
BRANCH  12  14
HETATM   14  C   UNK N   1      34.999  12.423  15.193  0.00  0.00     0.175 C 
BRANCH  14  15
HETATM   15  C   UNK N   1      35.119  12.373  16.681  0.00  0.00     0.029 A 
HETATM   16  N   UNK N   1      35.151  13.545  17.367  0.00  0.00    -0.368 N 
HETATM   17  C   UNK N   1      35.221  13.581  18.720  0.00  0.00     0.091 A 
ATOM     18  HN  UNK N   1      35.122  14.423  16.850  1.00  0.00     0.165 HD
HETATM   19  C   UNK N   1      35.257  12.397  19.451  0.00  0.00     0.054 A 
HETATM   20  C   UNK N   1      35.226  11.162  18.800  0.00  0.00     0.077 A 
HETATM   21  C   UNK N   1      35.157  11.143  17.376  0.00  0.00    -0.005 A 
HETATM   22  C   UNK N   1      35.123   9.865  16.594  0.00  0.00     0.053 C 
BRANCH  20  23
HETATM   23  O   UNK N   1      35.259  10.052  19.588  0.00  0.00    -0.355 OA
HETATM   24  C   UNK N   1      36.053   9.853  20.693  0.00  0.00     0.210 C 
ENDBRANCH  20  23
ENDBRANCH  14  15
ENDBRANCH  12  14
ENDBRANCH   1  12
BRANCH   6  25
HETATM   25  N   UNK N   1      32.535  15.997   8.403  0.00  0.00    -0.333 N 
HETATM   26  C   UNK N   1      32.149  15.066   7.512  0.00  0.00     0.096 A 
HETATM   27  C   UNK N   1      31.134  15.583   6.730  0.00  0.00     0.019 A 
HETATM   28  C   UNK N   1      30.908  16.876   7.173  0.00  0.00     0.019 A 
HETATM   29  C   UNK N   1      31.793  17.101   8.207  0.00  0.00     0.096 A 
ENDBRANCH   6  25
TORSDOF 5
ENDMDL
MODEL 6
REMARK VINA RESULT:      -7.4     11.449     16.066
REMARK  5 active torsions:
REMARK  status: ('A' for Active; 'I' for Inactive)
REMARK    1  A    between atoms: C_3  and  O_27 
REMARK    2  A    between atoms: C_8  and  C_9 
REMARK    3  A    between atoms: C_9  and  S_10 
REMARK    4  A    between atoms: S_10  and  C_11 
REMARK    5  A    between atoms: C_16  and  N_21 
ROOT
HETATM    1  C   UNK N   1      22.950  20.133   2.958  0.00  0.00     0.176 A 
HETATM    2  N   UNK N   1      24.041  20.879   2.640  0.00  0.00    -0.333 N 
HETATM    3  C   UNK N   1      25.042  20.258   3.282  0.00  0.00     0.061 A 
HETATM    4  C   UNK N   1      26.399  20.567   3.265  0.00  0.00     0.034 A 
HETATM    5  C   UNK N   1      27.270  19.694   3.949  0.00  0.00     0.032 A 
HETATM    6  C   UNK N   1      26.767  18.550   4.628  0.00  0.00     0.040 A 
HETATM    7  C   UNK N   1      25.379  18.297   4.633  0.00  0.00     0.061 A 
HETATM    8  C   UNK N   1      24.559  19.177   3.948  0.00  0.00     0.063 A 
HETATM    9  N   UNK N   1      23.239  19.078   3.756  0.00  0.00    -0.333 N 
ATOM     10  HN  UNK N   1      22.600  18.375   4.125  1.00  0.00     0.168 HD
HETATM   11  H   UNK N   1      24.086  21.682   2.075  0.00  0.00     0.168 HD
ENDROOT
BRANCH   1  12
HETATM   12  S   UNK N   1      21.351  20.327   2.178  0.00  0.00     0.090 S 
HETATM   13  O   UNK N   1      21.273  20.759   0.514  0.00  0.00    -0.249 OA
BRANCH  12  14
HETATM   14  C   UNK N   1      20.026  19.284   2.882  0.00  0.00     0.175 C 
BRANCH  14  15
HETATM   15  C   UNK N   1      19.959  17.950   2.213  0.00  0.00     0.029 A 
HETATM   16  N   UNK N   1      19.851  17.909   0.860  0.00  0.00    -0.368 N 
HETATM   17  C   UNK N   1      19.822  16.738   0.179  0.00  0.00     0.091 A 
ATOM     18  HN  UNK N   1      19.791  18.785   0.341  1.00  0.00     0.165 HD
HETATM   19  C   UNK N   1      19.908  15.529   0.862  0.00  0.00     0.054 A 
HETATM   20  C   UNK N   1      20.021  15.509   2.253  0.00  0.00     0.077 A 
HETATM   21  C   UNK N   1      20.045  16.749   2.955  0.00  0.00    -0.005 A 
HETATM   22  C   UNK N   1      20.160  16.824   4.447  0.00  0.00     0.053 C 
BRANCH  20  23
HETATM   23  O   UNK N   1      20.106  14.285   2.844  0.00  0.00    -0.355 OA
HETATM   24  C   UNK N   1      19.361  13.171   2.536  0.00  0.00     0.210 C 
ENDBRANCH  20  23
ENDBRANCH  14  15
ENDBRANCH  12  14
ENDBRANCH   1  12
BRANCH   6  25
HETATM   25  N   UNK N   1      27.663  17.615   5.251  0.00  0.00    -0.333 N 
HETATM   26  C   UNK N   1      27.778  16.309   4.955  0.00  0.00     0.096 A 
HETATM   27  C   UNK N   1      28.710  15.734   5.798  0.00  0.00     0.019 A 
HETATM   28  C   UNK N   1      29.167  16.741   6.633  0.00  0.00     0.019 A 
HETATM   29  C   UNK N   1      28.498  17.891   6.269  0.00  0.00     0.096 A 
ENDBRANCH   6  25
TORSDOF 5
ENDMDL
MODEL 7
REMARK VINA RESULT:      -7.4      3.217      4.701
REMARK  5 active torsions:
REMARK  status: ('A' for Active; 'I' for Inactive)
REMARK    1  A    between atoms: C_3  and  O_27 
REMARK    2  A    between atoms: C_8  and  C_9 
REMARK    3  A    between atoms: C_9  and  S_10 
REMARK    4  A    between atoms: S_10  and  C_11 
REMARK    5  A    between atoms: C_16  and  N_21 
ROOT
HETATM    1  C   UNK N   1      34.617  16.756   8.953  0.00  0.00     0.176 A 
HETATM    2  N   UNK N   1      34.986  15.497   8.599  0.00  0.00    -0.333 N 
HETATM    3  C   UNK N   1      35.384  14.950   9.757  0.00  0.00     0.061 A 
HETATM    4  C   UNK N   1      35.818  13.648   9.992  0.00  0.00     0.034 A 
HETATM    5  C   UNK N   1      36.088  13.287  11.328  0.00  0.00     0.032 A 
HETATM    6  C   UNK N   1      35.922  14.227  12.383  0.00  0.00     0.040 A 
HETATM    7  C   UNK N   1      35.501  15.541  12.086  0.00  0.00     0.061 A 
HETATM    8  C   UNK N   1      35.245  15.853  10.762  0.00  0.00     0.063 A 
HETATM    9  N   UNK N   1      34.762  17.002  10.276  0.00  0.00    -0.333 N 
ATOM     10  HN  UNK N   1      34.552  17.862  10.783  1.00  0.00     0.168 HD
HETATM   11  H   UNK N   1      34.966  15.085   7.706  0.00  0.00     0.168 HD
ENDROOT
BRANCH   1  12
HETATM   12  S   UNK N   1      33.753  17.883   7.863  0.00  0.00     0.090 S 
HETATM   13  O   UNK N   1      34.208  17.964   6.205  0.00  0.00    -0.249 OA
BRANCH  12  14
HETATM   14  C   UNK N   1      32.012  18.201   8.317  0.00  0.00     0.175 C 
BRANCH  14  15
HETATM   15  C   UNK N   1      31.067  17.413   7.470  0.00  0.00     0.029 A 
HETATM   16  N   UNK N   1      31.582  16.513   6.592  0.00  0.00    -0.368 N 
HETATM   17  C   UNK N   1      30.789  15.735   5.817  0.00  0.00     0.091 A 
ATOM     18  HN  UNK N   1      32.595  16.420   6.515  1.00  0.00     0.165 HD
HETATM   19  C   UNK N   1      29.404  15.839   5.906  0.00  0.00     0.054 A 
HETATM   20  C   UNK N   1      28.818  16.745   6.792  0.00  0.00     0.077 A 
HETATM   21  C   UNK N   1      29.667  17.559   7.596  0.00  0.00    -0.005 A 
HETATM   22  C   UNK N   1      29.126  18.562   8.570  0.00  0.00     0.053 C 
BRANCH  20  23
HETATM   23  O   UNK N   1      27.457  16.780   6.822  0.00  0.00    -0.355 OA
HETATM   24  C   UNK N   1      26.598  15.882   6.234  0.00  0.00     0.210 C 
ENDBRANCH  20  23
ENDBRANCH  14  15
ENDBRANCH  12  14
ENDBRANCH   1  12
BRANCH   6  25
HETATM   25  N   UNK N   1      36.114  13.833  13.751  0.00  0.00    -0.333 N 
HETATM   26  C   UNK N   1      35.674  12.696  14.318  0.00  0.00     0.096 A 
HETATM   27  C   UNK N   1      36.014  12.698  15.658  0.00  0.00     0.019 A 
HETATM   28  C   UNK N   1      36.682  13.887  15.898  0.00  0.00     0.019 A 
HETATM   29  C   UNK N   1      36.725  14.567  14.698  0.00  0.00     0.096 A 
ENDBRANCH   6  25
TORSDOF 5
ENDMDL
MODEL 8
REMARK VINA RESULT:      -7.4      7.964     13.913
REMARK  5 active torsions:
REMARK  status: ('A' for Active; 'I' for Inactive)
REMARK    1  A    between atoms: C_3  and  O_27 
REMARK    2  A    between atoms: C_8  and  C_9 
REMARK    3  A    between atoms: C_9  and  S_10 
REMARK    4  A    between atoms: S_10  and  C_11 
REMARK    5  A    between atoms: C_16  and  N_21 
ROOT
HETATM    1  C   UNK N   1      27.334  18.319   5.656  0.00  0.00     0.176 A 
HETATM    2  N   UNK N   1      27.589  19.282   4.733  0.00  0.00    -0.333 N 
HETATM    3  C   UNK N   1      26.392  19.497   4.167  0.00  0.00     0.061 A 
HETATM    4  C   UNK N   1      26.056  20.426   3.186  0.00  0.00     0.034 A 
HETATM    5  C   UNK N   1      24.697  20.525   2.825  0.00  0.00     0.032 A 
HETATM    6  C   UNK N   1      23.719  19.699   3.445  0.00  0.00     0.040 A 
HETATM    7  C   UNK N   1      24.117  18.757   4.418  0.00  0.00     0.061 A 
HETATM    8  C   UNK N   1      25.460  18.694   4.744  0.00  0.00     0.063 A 
HETATM    9  N   UNK N   1      26.034  17.940   5.689  0.00  0.00    -0.333 N 
ATOM     10  HN  UNK N   1      25.596  17.245   6.292  1.00  0.00     0.168 HD
HETATM   11  H   UNK N   1      28.446  19.718   4.528  0.00  0.00     0.168 HD
ENDROOT
BRANCH   1  12
HETATM   12  S   UNK N   1      28.507  17.804   6.907  0.00  0.00     0.090 S 
HETATM   13  O   UNK N   1      28.135  18.066   8.567  0.00  0.00    -0.249 OA
BRANCH  12  14
HETATM   14  C   UNK N   1      29.529  16.360   6.449  0.00  0.00     0.175 C 
BRANCH  14  15
HETATM   15  C   UNK N   1      30.915  16.763   6.068  0.00  0.00     0.029 A 
HETATM   16  N   UNK N   1      31.159  17.101   4.775  0.00  0.00    -0.368 N 
HETATM   17  C   UNK N   1      32.382  17.512   4.361  0.00  0.00     0.091 A 
ATOM     18  HN  UNK N   1      30.400  17.043   4.096  1.00  0.00     0.165 HD
HETATM   19  C   UNK N   1      33.434  17.604   5.267  0.00  0.00     0.054 A 
HETATM   20  C   UNK N   1      33.242  17.272   6.609  0.00  0.00     0.077 A 
HETATM   21  C   UNK N   1      31.951  16.836   7.027  0.00  0.00    -0.005 A 
HETATM   22  C   UNK N   1      31.655  16.455   8.446  0.00  0.00     0.053 C 
BRANCH  20  23
HETATM   23  O   UNK N   1      34.321  17.394   7.432  0.00  0.00    -0.355 OA
HETATM   24  C   UNK N   1      34.645  18.484   8.205  0.00  0.00     0.210 C 
ENDBRANCH  20  23
ENDBRANCH  14  15
ENDBRANCH  12  14
ENDBRANCH   1  12
BRANCH   6  25
HETATM   25  N   UNK N   1      22.324  19.861   3.140  0.00  0.00    -0.333 N 
HETATM   26  C   UNK N   1      21.295  19.342   3.833  0.00  0.00     0.096 A 
HETATM   27  C   UNK N   1      20.112  19.678   3.205  0.00  0.00     0.019 A 
HETATM   28  C   UNK N   1      20.450  20.427   2.090  0.00  0.00     0.019 A 
HETATM   29  C   UNK N   1      21.827  20.519   2.078  0.00  0.00     0.096 A 
ENDBRANCH   6  25
TORSDOF 5
ENDMDL
MODEL 9
REMARK VINA RESULT:      -7.2      8.331     13.909
REMARK  5 active torsions:
REMARK  status: ('A' for Active; 'I' for Inactive)
REMARK    1  A    between atoms: C_3  and  O_27 
REMARK    2  A    between atoms: C_8  and  C_9 
REMARK    3  A    between atoms: C_9  and  S_10 
REMARK    4  A    between atoms: S_10  and  C_11 
REMARK    5  A    between atoms: C_16  and  N_21 
ROOT
HETATM    1  C   UNK N   1      27.423  18.671   5.817  0.00  0.00     0.176 A 
HETATM    2  N   UNK N   1      27.657  19.569   4.825  0.00  0.00    -0.333 N 
HETATM    3  C   UNK N   1      26.466  19.685   4.220  0.00  0.00     0.061 A 
HETATM    4  C   UNK N   1      26.113  20.518   3.161  0.00  0.00     0.034 A 
HETATM    5  C   UNK N   1      24.759  20.526   2.767  0.00  0.00     0.032 A 
HETATM    6  C   UNK N   1      23.803  19.709   3.432  0.00  0.00     0.040 A 
HETATM    7  C   UNK N   1      24.219  18.866   4.485  0.00  0.00     0.061 A 
HETATM    8  C   UNK N   1      25.556  18.889   4.841  0.00  0.00     0.063 A 
HETATM    9  N   UNK N   1      26.140  18.239   5.854  0.00  0.00    -0.333 N 
ATOM     10  HN  UNK N   1      25.719  17.574   6.502  1.00  0.00     0.168 HD
HETATM   11  H   UNK N   1      28.499  20.026   4.602  0.00  0.00     0.168 HD
ENDROOT
BRANCH   1  12
HETATM   12  S   UNK N   1      28.587  18.311   7.127  0.00  0.00     0.090 S 
HETATM   13  O   UNK N   1      28.254  18.859   8.724  0.00  0.00    -0.249 OA
BRANCH  12  14
HETATM   14  C   UNK N   1      29.531  16.761   6.906  0.00  0.00     0.175 C 
BRANCH  14  15
HETATM   15  C   UNK N   1      30.909  17.022   6.393  0.00  0.00     0.029 A 
HETATM   16  N   UNK N   1      31.879  17.358   7.284  0.00  0.00    -0.368 N 
HETATM   17  C   UNK N   1      33.160  17.573   6.900  0.00  0.00     0.091 A 
ATOM     18  HN  UNK N   1      31.634  17.451   8.270  1.00  0.00     0.165 HD
HETATM   19  C   UNK N   1      33.520  17.448   5.562  0.00  0.00     0.054 A 
HETATM   20  C   UNK N   1      32.567  17.104   4.601  0.00  0.00     0.077 A 
HETATM   21  C   UNK N   1      31.223  16.886   5.021  0.00  0.00    -0.005 A 
HETATM   22  C   UNK N   1      30.134  16.518   4.060  0.00  0.00     0.053 C 
BRANCH  20  23
HETATM   23  O   UNK N   1      33.003  16.997   3.315  0.00  0.00    -0.355 OA
HETATM   24  C   UNK N   1      33.513  15.872   2.712  0.00  0.00     0.210 C 
ENDBRANCH  20  23
ENDBRANCH  14  15
ENDBRANCH  12  14
ENDBRANCH   1  12
BRANCH   6  25
HETATM   25  N   UNK N   1      22.410  19.783   3.088  0.00  0.00    -0.333 N 
HETATM   26  C   UNK N   1      21.870  20.560   2.133  0.00  0.00     0.096 A 
HETATM   27  C   UNK N   1      20.499  20.388   2.132  0.00  0.00     0.019 A 
HETATM   28  C   UNK N   1      20.211  19.472   3.130  0.00  0.00     0.019 A 
HETATM   29  C   UNK N   1      21.416  19.119   3.703  0.00  0.00     0.096 A 
ENDBRANCH   6  25
TORSDOF 5
ENDMDL
