MODEL 1
REMARK VINA RESULT:      -9.2      0.000      0.000
REMARK  8 active torsions:
REMARK  status: ('A' for Active; 'I' for Inactive)
REMARK       I    between atoms: C_2  and  N_4 
REMARK    1  A    between atoms: N_7  and  C_10 
REMARK    2  A    between atoms: C_13  and  N_18 
REMARK    3  A    between atoms: C_14  and  O_16 
REMARK       I    between atoms: N_18  and  C_19 
REMARK    4  A    between atoms: C_23  and  C_39 
REMARK    5  A    between atoms: C_24  and  N_27 
REMARK    6  A    between atoms: N_27  and  C_28 
REMARK    7  A    between atoms: C_32  and  N_34 
REMARK       I    between atoms: N_34  and  C_35 
REMARK    8  A    between atoms: C_35  and  C_37 
ROOT
HETATM    1  N   UNK N   1      27.308  19.324   3.803  0.00  0.00    -0.189 N 
HETATM    2  C   UNK N   1      27.995  19.315   5.026  0.00  0.00     0.684 A 
HETATM    3  N   UNK N   1      27.502  20.020   6.083  0.00  0.00    -0.201 N 
ATOM      4  HN  UNK N   1      26.863  20.795   5.916  1.00  0.00     0.183 HD
HETATM    5  C   UNK N   1      27.852  19.700   7.355  0.00  0.00     0.126 A 
HETATM    6  C   UNK N   1      28.681  18.597   7.606  0.00  0.00     0.108 A 
HETATM    7  C   UNK N   1      29.193  17.900   6.493  0.00  0.00     0.138 A 
HETATM    8  N   UNK N   1      28.836  18.291   5.253  0.00  0.00    -0.176 N 
ATOM      9  HN  UNK N   1      29.220  17.789   4.453  1.00  0.00     0.186 HD
HETATM   10  H   UNK N   1      27.718  19.733   3.007  0.00  0.00     0.184 HD
ENDROOT
BRANCH   1  11
HETATM   11  C   UNK N   1      26.007  18.738   3.722  0.00  0.00     0.082 A 
HETATM   12  C   UNK N   1      24.894  19.580   3.759  0.00  0.00     0.035 A 
HETATM   13  C   UNK N   1      23.606  19.048   3.836  0.00  0.00     0.032 A 
HETATM   14  C   UNK N   1      23.416  17.659   3.881  0.00  0.00     0.033 A 
HETATM   15  C   UNK N   1      24.515  16.819   3.751  0.00  0.00     0.068 A 
HETATM   16  C   UNK N   1      25.806  17.321   3.656  0.00  0.00     0.097 A 
BRANCH  14  17
HETATM   17  N   UNK N   1      22.157  17.101   4.250  0.00  0.00    -0.378 N 
HETATM   18  C   UNK N   1      21.099  17.980   4.693  0.00  0.00     0.143 C 
HETATM   19  C   UNK N   1      21.280  18.196   6.199  0.00  0.00     0.145 C 
HETATM   20  N   UNK N   1      21.450  16.911   6.862  0.00  0.00    -0.349 N 
HETATM   21  C   UNK N   1      20.679  16.580   7.932  0.00  0.00     0.215 C 
HETATM   22  C   UNK N   1      22.427  15.973   6.337  0.00  0.00     0.145 C 
HETATM   23  C   UNK N   1      20.853  15.266   8.630  0.00  0.00     0.117 C 
HETATM   24  O   UNK N   1      19.831  17.357   8.345  0.00  0.00    -0.274 OA
HETATM   25  C   UNK N   1      22.158  15.779   4.842  0.00  0.00     0.143 C 
ENDBRANCH  14  17
BRANCH  16  26
HETATM   26  O   UNK N   1      26.844  16.456   3.542  0.00  0.00    -0.354 OA
HETATM   27  C   UNK N   1      27.003  15.330   4.322  0.00  0.00     0.210 C 
ENDBRANCH  16  26
ENDBRANCH   1  11
BRANCH   7  28
HETATM   28  N   UNK N   1      30.024  16.753   6.630  0.00  0.00    -0.341 N 
HETATM   29  H   UNK N   1      29.619  15.857   6.691  0.00  0.00     0.167 HD
BRANCH  28  30
HETATM   30  C   UNK N   1      31.443  16.899   6.680  0.00  0.00     0.035 A 
HETATM   31  C   UNK N   1      32.182  17.200   5.519  0.00  0.00     0.029 A 
HETATM   32  C   UNK N   1      33.542  17.487   5.594  0.00  0.00     0.004 A 
HETATM   33  C   UNK N   1      34.173  17.500   6.835  0.00  0.00     0.029 A 
HETATM   34  C   UNK N   1      33.454  17.189   8.001  0.00  0.00     0.037 A 
HETATM   35  C   UNK N   1      32.092  16.875   7.913  0.00  0.00     0.059 A 
BRANCH  34  36
HETATM   36  N   UNK N   1      34.058  17.233   9.287  0.00  0.00    -0.324 N 
HETATM   37  C   UNK N   1      34.789  16.232   9.846  0.00  0.00     0.244 C 
HETATM   38  O   UNK N   1      35.037  15.207   9.223  0.00  0.00    -0.268 OA
HETATM   39  H   UNK N   1      33.937  18.054   9.816  0.00  0.00     0.169 HD
BRANCH  37  40
HETATM   40  C   UNK N   1      35.330  16.424  11.200  0.00  0.00     0.064 C 
HETATM   41  C   UNK N   1      35.917  15.431  11.866  0.00  0.00     0.017 C 
ENDBRANCH  37  40
ENDBRANCH  34  36
ENDBRANCH  28  30
ENDBRANCH   7  28
BRANCH   6  42
HETATM   42  C   UNK N   1      28.934  18.147   9.017  0.00  0.00     0.422 C 
HETATM   43  F   UNK N   1      29.197  16.792   9.046  0.00  0.00    -0.166 F 
HETATM   44  F   UNK N   1      27.815  18.417   9.785  0.00  0.00    -0.166 F 
HETATM   45  F   UNK N   1      30.010  18.828   9.566  0.00  0.00    -0.166 F 
ENDBRANCH   6  42
TORSDOF 8
ENDMDL
MODEL 2
REMARK VINA RESULT:      -8.6      3.096      4.579
REMARK  8 active torsions:
REMARK  status: ('A' for Active; 'I' for Inactive)
REMARK       I    between atoms: C_2  and  N_4 
REMARK    1  A    between atoms: N_7  and  C_10 
REMARK    2  A    between atoms: C_13  and  N_18 
REMARK    3  A    between atoms: C_14  and  O_16 
REMARK       I    between atoms: N_18  and  C_19 
REMARK    4  A    between atoms: C_23  and  C_39 
REMARK    5  A    between atoms: C_24  and  N_27 
REMARK    6  A    between atoms: N_27  and  C_28 
REMARK    7  A    between atoms: C_32  and  N_34 
REMARK       I    between atoms: N_34  and  C_35 
REMARK    8  A    between atoms: C_35  and  C_37 
ROOT
HETATM    1  N   UNK N   1      24.282  16.176   3.530  0.00  0.00    -0.189 N 
HETATM    2  C   UNK N   1      24.980  17.378   3.721  0.00  0.00     0.684 A 
HETATM    3  N   UNK N   1      24.431  18.363   4.487  0.00  0.00    -0.201 N 
ATOM      4  HN  UNK N   1      23.422  18.383   4.632  1.00  0.00     0.183 HD
HETATM    5  C   UNK N   1      25.210  19.316   5.057  0.00  0.00     0.126 A 
HETATM    6  C   UNK N   1      26.605  19.267   4.920  0.00  0.00     0.108 A 
HETATM    7  C   UNK N   1      27.144  18.250   4.105  0.00  0.00     0.138 A 
HETATM    8  N   UNK N   1      26.311  17.356   3.536  0.00  0.00    -0.176 N 
ATOM      9  HN  UNK N   1      26.708  16.630   2.939  1.00  0.00     0.186 HD
HETATM   10  H   UNK N   1      23.962  15.927   2.633  0.00  0.00     0.184 HD
ENDROOT
BRANCH   1  11
HETATM   11  C   UNK N   1      24.039  15.318   4.646  0.00  0.00     0.082 A 
HETATM   12  C   UNK N   1      24.981  14.331   4.943  0.00  0.00     0.035 A 
HETATM   13  C   UNK N   1      24.718  13.375   5.926  0.00  0.00     0.032 A 
HETATM   14  C   UNK N   1      23.500  13.393   6.623  0.00  0.00     0.033 A 
HETATM   15  C   UNK N   1      22.602  14.428   6.394  0.00  0.00     0.068 A 
HETATM   16  C   UNK N   1      22.846  15.402   5.434  0.00  0.00     0.097 A 
BRANCH  14  17
HETATM   17  N   UNK N   1      23.086  12.277   7.408  0.00  0.00    -0.378 N 
HETATM   18  C   UNK N   1      21.686  12.124   7.731  0.00  0.00     0.143 C 
HETATM   19  C   UNK N   1      21.417  12.932   9.004  0.00  0.00     0.145 C 
HETATM   20  N   UNK N   1      22.413  12.603  10.014  0.00  0.00    -0.349 N 
HETATM   21  C   UNK N   1      22.029  12.237  11.267  0.00  0.00     0.215 C 
HETATM   22  C   UNK N   1      23.818  12.634   9.652  0.00  0.00     0.145 C 
HETATM   23  C   UNK N   1      23.044  11.909  12.317  0.00  0.00     0.117 C 
HETATM   24  O   UNK N   1      20.843  12.175  11.555  0.00  0.00    -0.274 OA
HETATM   25  C   UNK N   1      24.014  11.775   8.400  0.00  0.00     0.143 C 
ENDBRANCH  14  17
BRANCH  16  26
HETATM   26  O   UNK N   1      21.930  16.384   5.244  0.00  0.00    -0.354 OA
HETATM   27  C   UNK N   1      21.451  17.201   6.245  0.00  0.00     0.210 C 
ENDBRANCH  16  26
ENDBRANCH   1  11
BRANCH   7  28
HETATM   28  N   UNK N   1      28.545  18.091   3.913  0.00  0.00    -0.341 N 
HETATM   29  H   UNK N   1      29.012  18.625   3.230  0.00  0.00     0.167 HD
BRANCH  28  30
HETATM   30  C   UNK N   1      29.274  17.159   4.711  0.00  0.00     0.035 A 
HETATM   31  C   UNK N   1      29.185  15.773   4.471  0.00  0.00     0.029 A 
HETATM   32  C   UNK N   1      30.005  14.877   5.149  0.00  0.00     0.004 A 
HETATM   33  C   UNK N   1      30.944  15.359   6.058  0.00  0.00     0.029 A 
HETATM   34  C   UNK N   1      31.037  16.737   6.319  0.00  0.00     0.037 A 
HETATM   35  C   UNK N   1      30.188  17.629   5.652  0.00  0.00     0.059 A 
BRANCH  34  36
HETATM   36  N   UNK N   1      32.010  17.265   7.210  0.00  0.00    -0.324 N 
HETATM   37  C   UNK N   1      33.255  17.680   6.858  0.00  0.00     0.244 C 
HETATM   38  O   UNK N   1      33.612  17.685   5.686  0.00  0.00    -0.268 OA
HETATM   39  H   UNK N   1      31.762  17.336   8.160  0.00  0.00     0.169 HD
BRANCH  37  40
HETATM   40  C   UNK N   1      34.156  18.183   7.906  0.00  0.00     0.064 C 
HETATM   41  C   UNK N   1      34.555  17.412   8.915  0.00  0.00     0.017 C 
ENDBRANCH  37  40
ENDBRANCH  34  36
ENDBRANCH  28  30
ENDBRANCH   7  28
BRANCH   6  42
HETATM   42  C   UNK N   1      27.475  20.224   5.684  0.00  0.00     0.422 C 
HETATM   43  F   UNK N   1      27.946  19.625   6.835  0.00  0.00    -0.166 F 
HETATM   44  F   UNK N   1      26.731  21.343   6.017  0.00  0.00    -0.166 F 
HETATM   45  F   UNK N   1      28.552  20.634   4.914  0.00  0.00    -0.166 F 
ENDBRANCH   6  42
TORSDOF 8
ENDMDL
MODEL 3
REMARK VINA RESULT:      -8.6      1.993      3.042
REMARK  8 active torsions:
REMARK  status: ('A' for Active; 'I' for Inactive)
REMARK       I    between atoms: C_2  and  N_4 
REMARK    1  A    between atoms: N_7  and  C_10 
REMARK    2  A    between atoms: C_13  and  N_18 
REMARK    3  A    between atoms: C_14  and  O_16 
REMARK       I    between atoms: N_18  and  C_19 
REMARK    4  A    between atoms: C_23  and  C_39 
REMARK    5  A    between atoms: C_24  and  N_27 
REMARK    6  A    between atoms: N_27  and  C_28 
REMARK    7  A    between atoms: C_32  and  N_34 
REMARK       I    between atoms: N_34  and  C_35 
REMARK    8  A    between atoms: C_35  and  C_37 
ROOT
HETATM    1  N   UNK N   1      27.376  19.138   3.926  0.00  0.00    -0.189 N 
HETATM    2  C   UNK N   1      28.066  19.122   5.147  0.00  0.00     0.684 A 
HETATM    3  N   UNK N   1      27.574  19.823   6.208  0.00  0.00    -0.201 N 
ATOM      4  HN  UNK N   1      26.936  20.601   6.045  1.00  0.00     0.183 HD
HETATM    5  C   UNK N   1      27.925  19.498   7.478  0.00  0.00     0.126 A 
HETATM    6  C   UNK N   1      28.753  18.392   7.724  0.00  0.00     0.108 A 
HETATM    7  C   UNK N   1      29.263  17.700   6.607  0.00  0.00     0.138 A 
HETATM    8  N   UNK N   1      28.905  18.097   5.370  0.00  0.00    -0.176 N 
ATOM      9  HN  UNK N   1      29.288  17.597   4.567  1.00  0.00     0.186 HD
HETATM   10  H   UNK N   1      27.787  19.550   3.131  0.00  0.00     0.184 HD
ENDROOT
BRANCH   1  11
HETATM   11  C   UNK N   1      26.075  18.553   3.844  0.00  0.00     0.082 A 
HETATM   12  C   UNK N   1      24.963  19.395   3.911  0.00  0.00     0.035 A 
HETATM   13  C   UNK N   1      23.675  18.861   3.988  0.00  0.00     0.032 A 
HETATM   14  C   UNK N   1      23.485  17.471   4.002  0.00  0.00     0.033 A 
HETATM   15  C   UNK N   1      24.583  16.634   3.842  0.00  0.00     0.068 A 
HETATM   16  C   UNK N   1      25.873  17.139   3.746  0.00  0.00     0.097 A 
BRANCH  14  17
HETATM   17  N   UNK N   1      22.230  16.904   4.371  0.00  0.00    -0.378 N 
HETATM   18  C   UNK N   1      21.148  17.781   4.756  0.00  0.00     0.143 C 
HETATM   19  C   UNK N   1      21.295  18.062   6.255  0.00  0.00     0.145 C 
HETATM   20  N   UNK N   1      21.475  16.809   6.974  0.00  0.00    -0.349 N 
HETATM   21  C   UNK N   1      20.689  16.508   8.043  0.00  0.00     0.215 C 
HETATM   22  C   UNK N   1      22.480  15.870   6.508  0.00  0.00     0.145 C 
HETATM   23  C   UNK N   1      20.875  15.228   8.798  0.00  0.00     0.117 C 
HETATM   24  O   UNK N   1      19.819  17.285   8.406  0.00  0.00    -0.274 OA
HETATM   25  C   UNK N   1      22.244  15.609   5.018  0.00  0.00     0.143 C 
ENDBRANCH  14  17
BRANCH  16  26
HETATM   26  O   UNK N   1      26.909  16.276   3.601  0.00  0.00    -0.354 OA
HETATM   27  C   UNK N   1      27.120  15.176   4.405  0.00  0.00     0.210 C 
ENDBRANCH  16  26
ENDBRANCH   1  11
BRANCH   7  28
HETATM   28  N   UNK N   1      30.092  16.551   6.739  0.00  0.00    -0.341 N 
HETATM   29  H   UNK N   1      29.717  15.712   7.091  0.00  0.00     0.167 HD
BRANCH  28  30
HETATM   30  C   UNK N   1      31.467  16.614   6.360  0.00  0.00     0.035 A 
HETATM   31  C   UNK N   1      32.373  17.441   7.054  0.00  0.00     0.029 A 
HETATM   32  C   UNK N   1      33.737  17.392   6.781  0.00  0.00     0.004 A 
HETATM   33  C   UNK N   1      34.214  16.495   5.828  0.00  0.00     0.029 A 
HETATM   34  C   UNK N   1      33.323  15.673   5.117  0.00  0.00     0.037 A 
HETATM   35  C   UNK N   1      31.949  15.749   5.380  0.00  0.00     0.059 A 
BRANCH  34  36
HETATM   36  N   UNK N   1      33.780  14.720   4.167  0.00  0.00    -0.324 N 
HETATM   37  C   UNK N   1      33.826  14.911   2.823  0.00  0.00     0.244 C 
HETATM   38  O   UNK N   1      33.522  15.989   2.327  0.00  0.00    -0.268 OA
HETATM   39  H   UNK N   1      34.088  13.851   4.511  0.00  0.00     0.169 HD
BRANCH  37  40
HETATM   40  C   UNK N   1      34.306  13.815   1.968  0.00  0.00     0.064 C 
HETATM   41  C   UNK N   1      35.440  13.912   1.276  0.00  0.00     0.017 C 
ENDBRANCH  37  40
ENDBRANCH  34  36
ENDBRANCH  28  30
ENDBRANCH   7  28
BRANCH   6  42
HETATM   42  C   UNK N   1      29.007  17.937   9.132  0.00  0.00     0.422 C 
HETATM   43  F   UNK N   1      29.881  16.868   9.138  0.00  0.00    -0.166 F 
HETATM   44  F   UNK N   1      27.808  17.554   9.708  0.00  0.00    -0.166 F 
HETATM   45  F   UNK N   1      29.544  18.963   9.894  0.00  0.00    -0.166 F 
ENDBRANCH   6  42
TORSDOF 8
ENDMDL
MODEL 4
REMARK VINA RESULT:      -8.3      3.180      5.510
REMARK  8 active torsions:
REMARK  status: ('A' for Active; 'I' for Inactive)
REMARK       I    between atoms: C_2  and  N_4 
REMARK    1  A    between atoms: N_7  and  C_10 
REMARK    2  A    between atoms: C_13  and  N_18 
REMARK    3  A    between atoms: C_14  and  O_16 
REMARK       I    between atoms: N_18  and  C_19 
REMARK    4  A    between atoms: C_23  and  C_39 
REMARK    5  A    between atoms: C_24  and  N_27 
REMARK    6  A    between atoms: N_27  and  C_28 
REMARK    7  A    between atoms: C_32  and  N_34 
REMARK       I    between atoms: N_34  and  C_35 
REMARK    8  A    between atoms: C_35  and  C_37 
ROOT
HETATM    1  N   UNK N   1      28.213  13.435   4.765  0.00  0.00    -0.189 N 
HETATM    2  C   UNK N   1      29.488  13.986   4.575  0.00  0.00     0.684 A 
HETATM    3  N   UNK N   1      29.933  14.239   3.311  0.00  0.00    -0.201 N 
ATOM      4  HN  UNK N   1      29.520  13.740   2.524  1.00  0.00     0.183 HD
HETATM    5  C   UNK N   1      30.917  15.147   3.089  0.00  0.00     0.126 A 
HETATM    6  C   UNK N   1      31.451  15.887   4.154  0.00  0.00     0.108 A 
HETATM    7  C   UNK N   1      30.988  15.590   5.452  0.00  0.00     0.138 A 
HETATM    8  N   UNK N   1      30.034  14.650   5.608  0.00  0.00    -0.176 N 
ATOM      9  HN  UNK N   1      29.713  14.433   6.552  1.00  0.00     0.186 HD
HETATM   10  H   UNK N   1      28.115  12.533   5.150  0.00  0.00     0.184 HD
ENDROOT
BRANCH   1  11
HETATM   11  C   UNK N   1      27.057  14.190   4.397  0.00  0.00     0.082 A 
HETATM   12  C   UNK N   1      26.726  15.313   5.157  0.00  0.00     0.035 A 
HETATM   13  C   UNK N   1      25.527  15.993   4.932  0.00  0.00     0.032 A 
HETATM   14  C   UNK N   1      24.639  15.550   3.939  0.00  0.00     0.033 A 
HETATM   15  C   UNK N   1      25.009  14.491   3.121  0.00  0.00     0.068 A 
HETATM   16  C   UNK N   1      26.203  13.807   3.312  0.00  0.00     0.097 A 
BRANCH  14  17
HETATM   17  N   UNK N   1      23.300  16.034   3.884  0.00  0.00    -0.378 N 
HETATM   18  C   UNK N   1      23.064  17.460   3.909  0.00  0.00     0.143 C 
HETATM   19  C   UNK N   1      23.002  17.889   5.379  0.00  0.00     0.145 C 
HETATM   20  N   UNK N   1      22.098  17.013   6.109  0.00  0.00    -0.349 N 
HETATM   21  C   UNK N   1      21.097  17.534   6.869  0.00  0.00     0.215 C 
HETATM   22  C   UNK N   1      22.256  15.575   5.982  0.00  0.00     0.145 C 
HETATM   23  C   UNK N   1      20.168  16.643   7.634  0.00  0.00     0.117 C 
HETATM   24  O   UNK N   1      20.944  18.745   6.941  0.00  0.00    -0.274 OA
HETATM   25  C   UNK N   1      22.268  15.220   4.492  0.00  0.00     0.143 C 
ENDBRANCH  14  17
BRANCH  16  26
HETATM   26  O   UNK N   1      26.510  12.772   2.491  0.00  0.00    -0.354 OA
HETATM   27  C   UNK N   1      25.593  12.114   1.698  0.00  0.00     0.210 C 
ENDBRANCH  16  26
ENDBRANCH   1  11
BRANCH   7  28
HETATM   28  N   UNK N   1      31.443  16.294   6.602  0.00  0.00    -0.341 N 
HETATM   29  H   UNK N   1      32.384  16.223   6.881  0.00  0.00     0.167 HD
BRANCH  28  30
HETATM   30  C   UNK N   1      30.536  17.103   7.350  0.00  0.00     0.035 A 
HETATM   31  C   UNK N   1      30.900  17.630   8.605  0.00  0.00     0.029 A 
HETATM   32  C   UNK N   1      30.075  18.536   9.265  0.00  0.00     0.004 A 
HETATM   33  C   UNK N   1      28.887  18.945   8.665  0.00  0.00     0.029 A 
HETATM   34  C   UNK N   1      28.502  18.419   7.419  0.00  0.00     0.037 A 
HETATM   35  C   UNK N   1      29.326  17.488   6.775  0.00  0.00     0.059 A 
BRANCH  34  36
HETATM   36  N   UNK N   1      27.316  18.845   6.761  0.00  0.00    -0.324 N 
HETATM   37  C   UNK N   1      27.191  19.983   6.028  0.00  0.00     0.244 C 
HETATM   38  O   UNK N   1      28.152  20.714   5.826  0.00  0.00    -0.268 OA
HETATM   39  H   UNK N   1      26.523  18.270   6.844  0.00  0.00     0.169 HD
BRANCH  37  40
HETATM   40  C   UNK N   1      25.885  20.295   5.427  0.00  0.00     0.064 C 
HETATM   41  C   UNK N   1      25.679  20.203   4.114  0.00  0.00     0.017 C 
ENDBRANCH  37  40
ENDBRANCH  34  36
ENDBRANCH  28  30
ENDBRANCH   7  28
BRANCH   6  42
HETATM   42  C   UNK N   1      32.420  17.003   3.887  0.00  0.00     0.422 C 
HETATM   43  F   UNK N   1      31.822  18.224   4.129  0.00  0.00    -0.166 F 
HETATM   44  F   UNK N   1      32.826  16.943   2.565  0.00  0.00    -0.166 F 
HETATM   45  F   UNK N   1      33.544  16.884   4.690  0.00  0.00    -0.166 F 
ENDBRANCH   6  42
TORSDOF 8
ENDMDL
MODEL 5
REMARK VINA RESULT:      -8.3      3.375      9.288
REMARK  8 active torsions:
REMARK  status: ('A' for Active; 'I' for Inactive)
REMARK       I    between atoms: C_2  and  N_4 
REMARK    1  A    between atoms: N_7  and  C_10 
REMARK    2  A    between atoms: C_13  and  N_18 
REMARK    3  A    between atoms: C_14  and  O_16 
REMARK       I    between atoms: N_18  and  C_19 
REMARK    4  A    between atoms: C_23  and  C_39 
REMARK    5  A    between atoms: C_24  and  N_27 
REMARK    6  A    between atoms: N_27  and  C_28 
REMARK    7  A    between atoms: C_32  and  N_34 
REMARK       I    between atoms: N_34  and  C_35 
REMARK    8  A    between atoms: C_35  and  C_37 
ROOT
HETATM    1  N   UNK N   1      24.193  14.027   4.785  0.00  0.00    -0.189 N 
HETATM    2  C   UNK N   1      23.022  14.408   5.458  0.00  0.00     0.684 A 
HETATM    3  N   UNK N   1      22.991  14.389   6.821  0.00  0.00    -0.201 N 
ATOM      4  HN  UNK N   1      23.650  13.802   7.331  1.00  0.00     0.183 HD
HETATM    5  C   UNK N   1      22.093  15.142   7.506  0.00  0.00     0.126 A 
HETATM    6  C   UNK N   1      21.222  16.002   6.822  0.00  0.00     0.108 A 
HETATM    7  C   UNK N   1      21.261  15.985   5.413  0.00  0.00     0.138 A 
HETATM    8  N   UNK N   1      22.153  15.186   4.792  0.00  0.00    -0.176 N 
ATOM      9  HN  UNK N   1      22.167  15.172   3.772  1.00  0.00     0.186 HD
HETATM   10  H   UNK N   1      24.198  13.221   4.219  0.00  0.00     0.184 HD
ENDROOT
BRANCH   1  11
HETATM   11  C   UNK N   1      25.376  14.815   4.928  0.00  0.00     0.082 A 
HETATM   12  C   UNK N   1      26.074  14.753   6.136  0.00  0.00     0.035 A 
HETATM   13  C   UNK N   1      27.146  15.615   6.379  0.00  0.00     0.032 A 
HETATM   14  C   UNK N   1      27.529  16.557   5.413  0.00  0.00     0.033 A 
HETATM   15  C   UNK N   1      26.896  16.558   4.176  0.00  0.00     0.068 A 
HETATM   16  C   UNK N   1      25.839  15.700   3.901  0.00  0.00     0.097 A 
BRANCH  14  17
HETATM   17  N   UNK N   1      28.410  17.628   5.741  0.00  0.00    -0.378 N 
HETATM   18  C   UNK N   1      29.448  17.998   4.805  0.00  0.00     0.143 C 
HETATM   19  C   UNK N   1      30.662  17.107   5.089  0.00  0.00     0.145 C 
HETATM   20  N   UNK N   1      30.960  17.124   6.514  0.00  0.00    -0.349 N 
HETATM   21  C   UNK N   1      32.218  17.403   6.952  0.00  0.00     0.215 C 
HETATM   22  C   UNK N   1      29.887  16.877   7.460  0.00  0.00     0.145 C 
HETATM   23  C   UNK N   1      32.539  17.410   8.414  0.00  0.00     0.117 C 
HETATM   24  O   UNK N   1      33.109  17.649   6.152  0.00  0.00    -0.274 OA
HETATM   25  C   UNK N   1      28.730  17.828   7.139  0.00  0.00     0.143 C 
ENDBRANCH  14  17
BRANCH  16  26
HETATM   26  O   UNK N   1      25.249  15.750   2.681  0.00  0.00    -0.354 OA
HETATM   27  C   UNK N   1      25.853  15.345   1.511  0.00  0.00     0.210 C 
ENDBRANCH  16  26
ENDBRANCH   1  11
BRANCH   7  28
HETATM   28  N   UNK N   1      20.439  16.832   4.619  0.00  0.00    -0.341 N 
HETATM   29  H   UNK N   1      19.474  16.652   4.544  0.00  0.00     0.167 HD
BRANCH  28  30
HETATM   30  C   UNK N   1      21.013  17.943   3.930  0.00  0.00     0.035 A 
HETATM   31  C   UNK N   1      20.207  18.835   3.195  0.00  0.00     0.029 A 
HETATM   32  C   UNK N   1      20.744  19.996   2.647  0.00  0.00     0.004 A 
HETATM   33  C   UNK N   1      22.089  20.292   2.850  0.00  0.00     0.029 A 
HETATM   34  C   UNK N   1      22.911  19.406   3.569  0.00  0.00     0.037 A 
HETATM   35  C   UNK N   1      22.367  18.227   4.093  0.00  0.00     0.059 A 
BRANCH  34  36
HETATM   36  N   UNK N   1      24.278  19.697   3.829  0.00  0.00    -0.324 N 
HETATM   37  C   UNK N   1      25.137  20.279   2.951  0.00  0.00     0.244 C 
HETATM   38  O   UNK N   1      24.755  20.665   1.853  0.00  0.00    -0.268 OA
HETATM   39  H   UNK N   1      24.630  19.458   4.716  0.00  0.00     0.169 HD
BRANCH  37  40
HETATM   40  C   UNK N   1      26.532  20.493   3.365  0.00  0.00     0.064 C 
HETATM   41  C   UNK N   1      26.865  20.664   4.643  0.00  0.00     0.017 C 
ENDBRANCH  37  40
ENDBRANCH  34  36
ENDBRANCH  28  30
ENDBRANCH   7  28
BRANCH   6  42
HETATM   42  C   UNK N   1      20.344  16.952   7.586  0.00  0.00     0.422 C 
HETATM   43  F   UNK N   1      19.016  16.714   7.294  0.00  0.00    -0.166 F 
HETATM   44  F   UNK N   1      20.668  18.251   7.232  0.00  0.00    -0.166 F 
HETATM   45  F   UNK N   1      20.538  16.815   8.951  0.00  0.00    -0.166 F 
ENDBRANCH   6  42
TORSDOF 8
ENDMDL
MODEL 6
REMARK VINA RESULT:      -8.3      4.808     10.330
REMARK  8 active torsions:
REMARK  status: ('A' for Active; 'I' for Inactive)
REMARK       I    between atoms: C_2  and  N_4 
REMARK    1  A    between atoms: N_7  and  C_10 
REMARK    2  A    between atoms: C_13  and  N_18 
REMARK    3  A    between atoms: C_14  and  O_16 
REMARK       I    between atoms: N_18  and  C_19 
REMARK    4  A    between atoms: C_23  and  C_39 
REMARK    5  A    between atoms: C_24  and  N_27 
REMARK    6  A    between atoms: N_27  and  C_28 
REMARK    7  A    between atoms: C_32  and  N_34 
REMARK       I    between atoms: N_34  and  C_35 
REMARK    8  A    between atoms: C_35  and  C_37 
ROOT
HETATM    1  N   UNK N   1      20.293  19.091   3.314  0.00  0.00    -0.189 N 
HETATM    2  C   UNK N   1      19.801  17.853   2.873  0.00  0.00     0.684 A 
HETATM    3  N   UNK N   1      20.004  17.468   1.581  0.00  0.00    -0.201 N 
ATOM      4  HN  UNK N   1      20.193  18.173   0.869  1.00  0.00     0.183 HD
HETATM    5  C   UNK N   1      19.957  16.157   1.231  0.00  0.00     0.126 A 
HETATM    6  C   UNK N   1      19.761  15.170   2.208  0.00  0.00     0.108 A 
HETATM    7  C   UNK N   1      19.532  15.599   3.531  0.00  0.00     0.138 A 
HETATM    8  N   UNK N   1      19.555  16.919   3.806  0.00  0.00    -0.176 N 
ATOM      9  HN  UNK N   1      19.377  17.221   4.764  1.00  0.00     0.186 HD
HETATM   10  H   UNK N   1      19.670  19.802   3.589  0.00  0.00     0.184 HD
ENDROOT
BRANCH   1  11
HETATM   11  C   UNK N   1      21.704  19.311   3.359  0.00  0.00     0.082 A 
HETATM   12  C   UNK N   1      22.483  18.470   4.156  0.00  0.00     0.035 A 
HETATM   13  C   UNK N   1      23.839  18.738   4.353  0.00  0.00     0.032 A 
HETATM   14  C   UNK N   1      24.433  19.859   3.753  0.00  0.00     0.033 A 
HETATM   15  C   UNK N   1      23.682  20.643   2.886  0.00  0.00     0.068 A 
HETATM   16  C   UNK N   1      22.336  20.390   2.660  0.00  0.00     0.097 A 
BRANCH  14  17
HETATM   17  N   UNK N   1      25.719  20.316   4.164  0.00  0.00    -0.378 N 
HETATM   18  C   UNK N   1      26.871  20.008   3.348  0.00  0.00     0.143 C 
HETATM   19  C   UNK N   1      27.385  18.631   3.780  0.00  0.00     0.145 C 
HETATM   20  N   UNK N   1      27.518  18.589   5.228  0.00  0.00    -0.349 N 
HETATM   21  C   UNK N   1      28.684  18.186   5.802  0.00  0.00     0.215 C 
HETATM   22  C   UNK N   1      26.402  19.021   6.050  0.00  0.00     0.145 C 
HETATM   23  C   UNK N   1      28.829  18.127   7.291  0.00  0.00     0.117 C 
HETATM   24  O   UNK N   1      29.634  17.861   5.105  0.00  0.00    -0.274 OA
HETATM   25  C   UNK N   1      25.971  20.416   5.586  0.00  0.00     0.143 C 
ENDBRANCH  14  17
BRANCH  16  26
HETATM   26  O   UNK N   1      21.647  21.194   1.812  0.00  0.00    -0.354 OA
HETATM   27  C   UNK N   1      21.112  20.777   0.611  0.00  0.00     0.210 C 
ENDBRANCH  16  26
ENDBRANCH   1  11
BRANCH   7  28
HETATM   28  N   UNK N   1      19.344  14.684   4.605  0.00  0.00    -0.341 N 
HETATM   29  H   UNK N   1      18.742  13.913   4.495  0.00  0.00     0.167 HD
BRANCH  28  30
HETATM   30  C   UNK N   1      20.027  14.884   5.842  0.00  0.00     0.035 A 
HETATM   31  C   UNK N   1      21.339  14.404   6.032  0.00  0.00     0.029 A 
HETATM   32  C   UNK N   1      22.057  14.725   7.180  0.00  0.00     0.004 A 
HETATM   33  C   UNK N   1      21.481  15.553   8.141  0.00  0.00     0.029 A 
HETATM   34  C   UNK N   1      20.169  16.029   7.973  0.00  0.00     0.037 A 
HETATM   35  C   UNK N   1      19.444  15.678   6.828  0.00  0.00     0.059 A 
BRANCH  34  36
HETATM   36  N   UNK N   1      19.566  16.907   8.915  0.00  0.00    -0.324 N 
HETATM   37  C   UNK N   1      19.768  18.249   8.979  0.00  0.00     0.244 C 
HETATM   38  O   UNK N   1      20.466  18.823   8.153  0.00  0.00    -0.268 OA
HETATM   39  H   UNK N   1      18.952  16.510   9.574  0.00  0.00     0.169 HD
BRANCH  37  40
HETATM   40  C   UNK N   1      19.085  19.017  10.031  0.00  0.00     0.064 C 
HETATM   41  C   UNK N   1      17.950  18.592  10.583  0.00  0.00     0.017 C 
ENDBRANCH  37  40
ENDBRANCH  34  36
ENDBRANCH  28  30
ENDBRANCH   7  28
BRANCH   6  42
HETATM   42  C   UNK N   1      19.873  13.716   1.846  0.00  0.00     0.422 C 
HETATM   43  F   UNK N   1      20.984  13.159   2.446  0.00  0.00    -0.166 F 
HETATM   44  F   UNK N   1      19.982  13.600   0.471  0.00  0.00    -0.166 F 
HETATM   45  F   UNK N   1      18.745  13.019   2.250  0.00  0.00    -0.166 F 
ENDBRANCH   6  42
TORSDOF 8
ENDMDL
MODEL 7
REMARK VINA RESULT:      -8.2      2.327      3.291
REMARK  8 active torsions:
REMARK  status: ('A' for Active; 'I' for Inactive)
REMARK       I    between atoms: C_2  and  N_4 
REMARK    1  A    between atoms: N_7  and  C_10 
REMARK    2  A    between atoms: C_13  and  N_18 
REMARK    3  A    between atoms: C_14  and  O_16 
REMARK       I    between atoms: N_18  and  C_19 
REMARK    4  A    between atoms: C_23  and  C_39 
REMARK    5  A    between atoms: C_24  and  N_27 
REMARK    6  A    between atoms: N_27  and  C_28 
REMARK    7  A    between atoms: C_32  and  N_34 
REMARK       I    between atoms: N_34  and  C_35 
REMARK    8  A    between atoms: C_35  and  C_37 
ROOT
HETATM    1  N   UNK N   1      26.668  18.214   3.646  0.00  0.00    -0.189 N 
HETATM    2  C   UNK N   1      27.582  18.457   4.682  0.00  0.00     0.684 A 
HETATM    3  N   UNK N   1      27.289  19.386   5.637  0.00  0.00    -0.201 N 
ATOM      4  HN  UNK N   1      26.611  20.119   5.434  1.00  0.00     0.183 HD
HETATM    5  C   UNK N   1      27.888  19.344   6.854  0.00  0.00     0.126 A 
HETATM    6  C   UNK N   1      28.775  18.305   7.172  0.00  0.00     0.108 A 
HETATM    7  C   UNK N   1      29.076  17.372   6.158  0.00  0.00     0.138 A 
HETATM    8  N   UNK N   1      28.474  17.491   4.958  0.00  0.00    -0.176 N 
ATOM      9  HN  UNK N   1      28.706  16.818   4.227  1.00  0.00     0.186 HD
HETATM   10  H   UNK N   1      26.905  18.431   2.715  0.00  0.00     0.184 HD
ENDROOT
BRANCH   1  11
HETATM   11  C   UNK N   1      25.391  17.651   3.951  0.00  0.00     0.082 A 
HETATM   12  C   UNK N   1      25.283  16.262   4.047  0.00  0.00     0.035 A 
HETATM   13  C   UNK N   1      24.032  15.658   4.193  0.00  0.00     0.032 A 
HETATM   14  C   UNK N   1      22.869  16.442   4.240  0.00  0.00     0.033 A 
HETATM   15  C   UNK N   1      22.983  17.826   4.238  0.00  0.00     0.068 A 
HETATM   16  C   UNK N   1      24.215  18.453   4.111  0.00  0.00     0.097 A 
BRANCH  14  17
HETATM   17  N   UNK N   1      21.580  15.852   4.093  0.00  0.00    -0.378 N 
HETATM   18  C   UNK N   1      21.479  14.441   3.799  0.00  0.00     0.143 C 
HETATM   19  C   UNK N   1      21.564  14.280   2.278  0.00  0.00     0.145 C 
HETATM   20  N   UNK N   1      20.637  15.200   1.635  0.00  0.00    -0.349 N 
HETATM   21  C   UNK N   1      19.747  14.748   0.711  0.00  0.00     0.215 C 
HETATM   22  C   UNK N   1      20.652  16.599   2.024  0.00  0.00     0.145 C 
HETATM   23  C   UNK N   1      18.797  15.687   0.034  0.00  0.00     0.117 C 
HETATM   24  O   UNK N   1      19.713  13.562   0.417  0.00  0.00    -0.274 OA
HETATM   25  C   UNK N   1      20.524  16.679   3.548  0.00  0.00     0.143 C 
ENDBRANCH  14  17
BRANCH  16  26
HETATM   26  O   UNK N   1      24.268  19.809   4.104  0.00  0.00    -0.354 OA
HETATM   27  C   UNK N   1      23.977  20.590   3.006  0.00  0.00     0.210 C 
ENDBRANCH  16  26
ENDBRANCH   1  11
BRANCH   7  28
HETATM   28  N   UNK N   1      29.943  16.265   6.377  0.00  0.00    -0.341 N 
HETATM   29  H   UNK N   1      29.571  15.394   6.644  0.00  0.00     0.167 HD
BRANCH  28  30
HETATM   30  C   UNK N   1      31.353  16.417   6.209  0.00  0.00     0.035 A 
HETATM   31  C   UNK N   1      31.877  17.231   5.185  0.00  0.00     0.029 A 
HETATM   32  C   UNK N   1      33.242  17.495   5.112  0.00  0.00     0.004 A 
HETATM   33  C   UNK N   1      34.095  16.970   6.080  0.00  0.00     0.029 A 
HETATM   34  C   UNK N   1      33.590  16.146   7.100  0.00  0.00     0.037 A 
HETATM   35  C   UNK N   1      32.219  15.863   7.149  0.00  0.00     0.059 A 
BRANCH  34  36
HETATM   36  N   UNK N   1      34.427  15.627   8.125  0.00  0.00    -0.324 N 
HETATM   37  C   UNK N   1      34.799  16.294   9.249  0.00  0.00     0.244 C 
HETATM   38  O   UNK N   1      34.366  17.414   9.492  0.00  0.00    -0.268 OA
HETATM   39  H   UNK N   1      34.763  14.709   8.011  0.00  0.00     0.169 HD
BRANCH  37  40
HETATM   40  C   UNK N   1      35.690  15.623  10.207  0.00  0.00     0.064 C 
HETATM   41  C   UNK N   1      35.726  15.972  11.492  0.00  0.00     0.017 C 
ENDBRANCH  37  40
ENDBRANCH  34  36
ENDBRANCH  28  30
ENDBRANCH   7  28
BRANCH   6  42
HETATM   42  C   UNK N   1      29.310  18.168   8.569  0.00  0.00     0.422 C 
HETATM   43  F   UNK N   1      29.165  16.869   9.011  0.00  0.00    -0.166 F 
HETATM   44  F   UNK N   1      28.611  19.021   9.406  0.00  0.00    -0.166 F 
HETATM   45  F   UNK N   1      30.651  18.516   8.620  0.00  0.00    -0.166 F 
ENDBRANCH   6  42
TORSDOF 8
ENDMDL
MODEL 8
REMARK VINA RESULT:      -8.0      6.696     10.828
REMARK  8 active torsions:
REMARK  status: ('A' for Active; 'I' for Inactive)
REMARK       I    between atoms: C_2  and  N_4 
REMARK    1  A    between atoms: N_7  and  C_10 
REMARK    2  A    between atoms: C_13  and  N_18 
REMARK    3  A    between atoms: C_14  and  O_16 
REMARK       I    between atoms: N_18  and  C_19 
REMARK    4  A    between atoms: C_23  and  C_39 
REMARK    5  A    between atoms: C_24  and  N_27 
REMARK    6  A    between atoms: N_27  and  C_28 
REMARK    7  A    between atoms: C_32  and  N_34 
REMARK       I    between atoms: N_34  and  C_35 
REMARK    8  A    between atoms: C_35  and  C_37 
ROOT
HETATM    1  N   UNK N   1      37.423  13.947  11.182  0.00  0.00    -0.189 N 
HETATM    2  C   UNK N   1      36.951  13.056  12.157  0.00  0.00     0.684 A 
HETATM    3  N   UNK N   1      36.337  13.540  13.273  0.00  0.00    -0.201 N 
ATOM      4  HN  UNK N   1      36.511  14.501  13.567  1.00  0.00     0.183 HD
HETATM    5  C   UNK N   1      35.495  12.760  13.997  0.00  0.00     0.126 A 
HETATM    6  C   UNK N   1      35.195  11.457  13.572  0.00  0.00     0.108 A 
HETATM    7  C   UNK N   1      35.862  10.975  12.427  0.00  0.00     0.138 A 
HETATM    8  N   UNK N   1      36.714  11.790  11.774  0.00  0.00    -0.176 N 
ATOM      9  HN  UNK N   1      37.201  11.430  10.953  1.00  0.00     0.186 HD
HETATM   10  H   UNK N   1      38.388  14.021  11.004  0.00  0.00     0.184 HD
ENDROOT
BRANCH   1  11
HETATM   11  C   UNK N   1      36.492  14.747  10.450  0.00  0.00     0.082 A 
HETATM   12  C   UNK N   1      36.236  16.045  10.895  0.00  0.00     0.035 A 
HETATM   13  C   UNK N   1      35.227  16.810  10.307  0.00  0.00     0.032 A 
HETATM   14  C   UNK N   1      34.455  16.278   9.262  0.00  0.00     0.033 A 
HETATM   15  C   UNK N   1      34.769  15.023   8.757  0.00  0.00     0.068 A 
HETATM   16  C   UNK N   1      35.778  14.248   9.312  0.00  0.00     0.097 A 
BRANCH  14  17
HETATM   17  N   UNK N   1      33.247  16.910   8.847  0.00  0.00    -0.378 N 
HETATM   18  C   UNK N   1      32.038  16.124   8.749  0.00  0.00     0.143 C 
HETATM   19  C   UNK N   1      32.014  15.492   7.353  0.00  0.00     0.145 C 
HETATM   20  N   UNK N   1      32.274  16.511   6.347  0.00  0.00    -0.349 N 
HETATM   21  C   UNK N   1      31.435  16.664   5.288  0.00  0.00     0.215 C 
HETATM   22  C   UNK N   1      33.420  17.387   6.514  0.00  0.00     0.145 C 
HETATM   23  C   UNK N   1      31.699  17.701   4.240  0.00  0.00     0.117 C 
HETATM   24  O   UNK N   1      30.450  15.950   5.173  0.00  0.00    -0.274 OA
HETATM   25  C   UNK N   1      33.354  18.010   7.911  0.00  0.00     0.143 C 
ENDBRANCH  14  17
BRANCH  16  26
HETATM   26  O   UNK N   1      36.036  13.025   8.786  0.00  0.00    -0.354 OA
HETATM   27  C   UNK N   1      37.052  12.764   7.892  0.00  0.00     0.210 C 
ENDBRANCH  16  26
ENDBRANCH   1  11
BRANCH   7  28
HETATM   28  N   UNK N   1      35.617   9.679  11.894  0.00  0.00    -0.341 N 
HETATM   29  H   UNK N   1      36.146   8.910  12.207  0.00  0.00     0.167 HD
BRANCH  28  30
HETATM   30  C   UNK N   1      34.606   9.493  10.904  0.00  0.00     0.035 A 
HETATM   31  C   UNK N   1      33.689   8.426  10.996  0.00  0.00     0.029 A 
HETATM   32  C   UNK N   1      32.616   8.330  10.115  0.00  0.00     0.004 A 
HETATM   33  C   UNK N   1      32.432   9.314   9.147  0.00  0.00     0.029 A 
HETATM   34  C   UNK N   1      33.345  10.378   9.033  0.00  0.00     0.037 A 
HETATM   35  C   UNK N   1      34.437  10.451   9.907  0.00  0.00     0.059 A 
BRANCH  34  36
HETATM   36  N   UNK N   1      33.165  11.420   8.083  0.00  0.00    -0.324 N 
HETATM   37  C   UNK N   1      33.645  11.415   6.812  0.00  0.00     0.244 C 
HETATM   38  O   UNK N   1      34.237  10.441   6.363  0.00  0.00    -0.268 OA
HETATM   39  H   UNK N   1      32.650  12.208   8.369  0.00  0.00     0.169 HD
BRANCH  37  40
HETATM   40  C   UNK N   1      33.391  12.583   5.956  0.00  0.00     0.064 C 
HETATM   41  C   UNK N   1      34.386  13.286   5.417  0.00  0.00     0.017 C 
ENDBRANCH  37  40
ENDBRANCH  34  36
ENDBRANCH  28  30
ENDBRANCH   7  28
BRANCH   6  42
HETATM   42  C   UNK N   1      34.142  10.654  14.281  0.00  0.00     0.422 C 
HETATM   43  F   UNK N   1      33.081  10.403  13.433  0.00  0.00    -0.166 F 
HETATM   44  F   UNK N   1      33.694  11.367  15.380  0.00  0.00    -0.166 F 
HETATM   45  F   UNK N   1      34.658   9.448  14.728  0.00  0.00    -0.166 F 
ENDBRANCH   6  42
TORSDOF 8
ENDMDL
MODEL 9
REMARK VINA RESULT:      -8.0      7.302     12.804
REMARK  8 active torsions:
REMARK  status: ('A' for Active; 'I' for Inactive)
REMARK       I    between atoms: C_2  and  N_4 
REMARK    1  A    between atoms: N_7  and  C_10 
REMARK    2  A    between atoms: C_13  and  N_18 
REMARK    3  A    between atoms: C_14  and  O_16 
REMARK       I    between atoms: N_18  and  C_19 
REMARK    4  A    between atoms: C_23  and  C_39 
REMARK    5  A    between atoms: C_24  and  N_27 
REMARK    6  A    between atoms: N_27  and  C_28 
REMARK    7  A    between atoms: C_32  and  N_34 
REMARK       I    between atoms: N_34  and  C_35 
REMARK    8  A    between atoms: C_35  and  C_37 
ROOT
HETATM    1  N   UNK N   1      37.168  12.431  11.918  0.00  0.00    -0.189 N 
HETATM    2  C   UNK N   1      37.034  12.516  13.312  0.00  0.00     0.684 A 
HETATM    3  N   UNK N   1      37.319  13.689  13.947  0.00  0.00    -0.201 N 
ATOM      4  HN  UNK N   1      37.929  14.369  13.496  1.00  0.00     0.183 HD
HETATM    5  C   UNK N   1      36.799  13.960  15.171  0.00  0.00     0.126 A 
HETATM    6  C   UNK N   1      35.908  13.062  15.777  0.00  0.00     0.108 A 
HETATM    7  C   UNK N   1      35.650  11.849  15.108  0.00  0.00     0.138 A 
HETATM    8  N   UNK N   1      36.227  11.625  13.911  0.00  0.00    -0.176 N 
ATOM      9  HN  UNK N   1      36.043  10.739  13.439  1.00  0.00     0.186 HD
HETATM   10  H   UNK N   1      37.845  11.836  11.521  0.00  0.00     0.184 HD
ENDROOT
BRANCH   1  11
HETATM   11  C   UNK N   1      36.315  13.213  11.080  0.00  0.00     0.082 A 
HETATM   12  C   UNK N   1      36.794  14.433  10.599  0.00  0.00     0.035 A 
HETATM   13  C   UNK N   1      35.948  15.301   9.904  0.00  0.00     0.032 A 
HETATM   14  C   UNK N   1      34.605  14.957   9.686  0.00  0.00     0.033 A 
HETATM   15  C   UNK N   1      34.153  13.704  10.083  0.00  0.00     0.068 A 
HETATM   16  C   UNK N   1      34.976  12.815  10.760  0.00  0.00     0.097 A 
BRANCH  14  17
HETATM   17  N   UNK N   1      33.659  15.929   9.249  0.00  0.00    -0.378 N 
HETATM   18  C   UNK N   1      32.307  15.514   8.954  0.00  0.00     0.143 C 
HETATM   19  C   UNK N   1      32.278  15.043   7.496  0.00  0.00     0.145 C 
HETATM   20  N   UNK N   1      32.908  16.042   6.645  0.00  0.00    -0.349 N 
HETATM   21  C   UNK N   1      32.264  16.515   5.544  0.00  0.00     0.215 C 
HETATM   22  C   UNK N   1      34.216  16.554   7.012  0.00  0.00     0.145 C 
HETATM   23  C   UNK N   1      32.908  17.533   4.655  0.00  0.00     0.117 C 
HETATM   24  O   UNK N   1      31.147  16.109   5.262  0.00  0.00    -0.274 OA
HETATM   25  C   UNK N   1      34.156  17.040   8.464  0.00  0.00     0.143 C 
ENDBRANCH  14  17
BRANCH  16  26
HETATM   26  O   UNK N   1      34.480  11.610  11.135  0.00  0.00    -0.354 OA
HETATM   27  C   UNK N   1      34.117  10.614  10.253  0.00  0.00     0.210 C 
ENDBRANCH  16  26
ENDBRANCH   1  11
BRANCH   7  28
HETATM   28  N   UNK N   1      34.745  10.876  15.620  0.00  0.00    -0.341 N 
HETATM   29  H   UNK N   1      33.836  10.808  15.249  0.00  0.00     0.167 HD
BRANCH  28  30
HETATM   30  C   UNK N   1      35.155  10.001  16.670  0.00  0.00     0.035 A 
HETATM   31  C   UNK N   1      36.491   9.564  16.769  0.00  0.00     0.029 A 
HETATM   32  C   UNK N   1      36.922   8.832  17.872  0.00  0.00     0.004 A 
HETATM   33  C   UNK N   1      36.027   8.550  18.901  0.00  0.00     0.029 A 
HETATM   34  C   UNK N   1      34.687   8.967  18.811  0.00  0.00     0.037 A 
HETATM   35  C   UNK N   1      34.256   9.680  17.685  0.00  0.00     0.059 A 
BRANCH  34  36
HETATM   36  N   UNK N   1      33.758   8.731  19.861  0.00  0.00    -0.324 N 
HETATM   37  C   UNK N   1      33.590   9.522  20.953  0.00  0.00     0.244 C 
HETATM   38  O   UNK N   1      34.213  10.569  21.078  0.00  0.00    -0.268 OA
HETATM   39  H   UNK N   1      33.191   7.930  19.790  0.00  0.00     0.169 HD
BRANCH  37  40
HETATM   40  C   UNK N   1      32.599   9.127  21.965  0.00  0.00     0.064 C 
HETATM   41  C   UNK N   1      32.444   9.811  23.098  0.00  0.00     0.017 C 
ENDBRANCH  37  40
ENDBRANCH  34  36
ENDBRANCH  28  30
ENDBRANCH   7  28
BRANCH   6  42
HETATM   42  C   UNK N   1      35.209  13.437  17.053  0.00  0.00     0.422 C 
HETATM   43  F   UNK N   1      33.843  13.472  16.857  0.00  0.00    -0.166 F 
HETATM   44  F   UNK N   1      35.649  14.686  17.460  0.00  0.00    -0.166 F 
HETATM   45  F   UNK N   1      35.498  12.529  18.059  0.00  0.00    -0.166 F 
ENDBRANCH   6  42
TORSDOF 8
ENDMDL
