REMARK  5 active torsions:
REMARK  status: ('A' for Active; 'I' for Inactive)
REMARK    1  A    between atoms: C_3  and  O_27 
REMARK    2  A    between atoms: C_8  and  C_9 
REMARK    3  A    between atoms: C_9  and  S_10 
REMARK    4  A    between atoms: S_10  and  C_11 
REMARK    5  A    between atoms: C_16  and  N_21 
ROOT
HETATM    1  C   UNK N   1       0.878   0.453   0.186  0.00  0.00     0.176 A 
HETATM    2  N   UNK N   1       1.878   1.357   0.016  0.00  0.00    -0.333 N 
HETATM    3  C   UNK N   1       2.990   0.612   0.095  0.00  0.00     0.061 A 
HETATM    4  C   UNK N   1       4.313   1.017  -0.062  0.00  0.00     0.034 A 
HETATM    5  C   UNK N   1       5.305   0.016  -0.031  0.00  0.00     0.032 A 
HETATM    6  C   UNK N   1       4.954  -1.350   0.157  0.00  0.00     0.040 A 
HETATM    7  C   UNK N   1       3.599  -1.703   0.334  0.00  0.00     0.061 A 
HETATM    8  C   UNK N   1       2.657  -0.690   0.295  0.00  0.00     0.063 A 
HETATM    9  N   UNK N   1       1.326  -0.813   0.356  0.00  0.00    -0.333 N 
ATOM     10  HN  UNK N   1       0.778  -1.661   0.497  1.00  0.00     0.168 HD
HETATM   11  H   UNK N   1       1.804   2.327  -0.130  0.00  0.00     0.168 HD
ENDROOT
BRANCH   1  12
HETATM   12  S   UNK N   1      -0.853   0.823  -0.079  0.00  0.00     0.090 S 
HETATM   13  O   UNK N   1      -1.393   2.453   0.042  0.00  0.00    -0.249 OA
BRANCH  12  14
HETATM   14  C   UNK N   1      -1.708  -0.306  -1.234  0.00  0.00     0.175 C 
BRANCH  14  15
HETATM   15  C   UNK N   1      -2.893  -0.955  -0.597  0.00  0.00     0.029 A 
HETATM   16  N   UNK N   1      -3.967  -0.182  -0.290  0.00  0.00    -0.368 N 
HETATM   17  C   UNK N   1      -5.092  -0.704   0.255  0.00  0.00     0.091 A 
ATOM     18  HN  UNK N   1      -3.925   0.820  -0.475  1.00  0.00     0.165 HD
HETATM   19  C   UNK N   1      -5.177  -2.069   0.513  0.00  0.00     0.054 A 
HETATM   20  C   UNK N   1      -4.105  -2.913   0.217  0.00  0.00     0.077 A 
HETATM   21  C   UNK N   1      -2.927  -2.347  -0.351  0.00  0.00    -0.005 A 
HETATM   22  C   UNK N   1      -1.727  -3.175  -0.697  0.00  0.00     0.053 C 
BRANCH  20  23
HETATM   23  O   UNK N   1      -4.271  -4.236   0.495  0.00  0.00    -0.355 OA
HETATM   24  C   UNK N   1      -3.368  -5.245   0.257  0.00  0.00     0.210 C 
ENDBRANCH  20  23
ENDBRANCH  14  15
ENDBRANCH  12  14
ENDBRANCH   1  12
BRANCH   6  25
HETATM   25  N   UNK N   1       5.956  -2.378   0.102  0.00  0.00    -0.333 N 
HETATM   26  C   UNK N   1       7.268  -2.195  -0.128  0.00  0.00     0.096 A 
HETATM   27  C   UNK N   1       7.899  -3.424  -0.150  0.00  0.00     0.019 A 
HETATM   28  C   UNK N   1       6.921  -4.379   0.074  0.00  0.00     0.019 A 
HETATM   29  C   UNK N   1       5.730  -3.698   0.224  0.00  0.00     0.096 A 
ENDBRANCH   6  25
TORSDOF 5
