MODEL 1
REMARK VINA RESULT:      -8.0      0.000      0.000
REMARK  5 active torsions:
REMARK  status: ('A' for Active; 'I' for Inactive)
REMARK    1  A    between atoms: C_8  and  C_7 
REMARK       I    between atoms: N_13  and  C_14 
REMARK       I    between atoms: C_14  and  N_16 
REMARK    2  A    between atoms: N_16  and  C_18 
REMARK    3  A    between atoms: C_18  and  C_20 
REMARK    4  A    between atoms: C_22  and  C_30 
REMARK    5  A    between atoms: C_24  and  C_26 
ROOT
HETATM    1  C   UNK N   1      29.547  16.849   5.899  0.00  0.00     0.140 C 
HETATM    2  C   UNK N   1      30.953  17.076   6.458  0.00  0.00     0.144 C 
HETATM    3  N   UNK N   1      31.816  15.977   6.018  0.00  0.00    -0.417 N 
HETATM    4  C   UNK N   1      32.023  16.010   4.558  0.00  0.00     0.133 C 
HETATM    5  C   UNK N   1      30.822  16.568   3.775  0.00  0.00     0.147 C 
HETATM    6  N   UNK N   1      29.601  16.355   4.523  0.00  0.00    -0.322 N 
HETATM    7  C   UNK N   1      28.456  15.950   3.882  0.00  0.00     0.321 C 
HETATM    8  O   UNK N   1      28.430  15.983   2.653  0.00  0.00    -0.247 OA
HETATM    9  N   UNK N   1      27.324  15.554   4.567  0.00  0.00    -0.330 N 
HETATM   10  C   UNK N   1      27.373  15.148   5.956  0.00  0.00     0.155 C 
HETATM   11  H   UNK N   1      32.220  15.278   6.641  0.00  0.00     0.153 HD
ENDROOT
BRANCH   9  12
HETATM   12  C   UNK N   1      26.027  15.454   3.931  0.00  0.00     0.117 C 
HETATM   13  C   UNK N   1      25.402  14.089   4.204  0.00  0.00     0.037 C 
BRANCH  12  14
HETATM   14  C   UNK N   1      25.096  16.586   4.222  0.00  0.00    -0.034 A 
HETATM   15  C   UNK N   1      25.272  17.849   3.649  0.00  0.00     0.025 A 
HETATM   16  C   UNK N   1      24.363  18.877   3.901  0.00  0.00     0.049 A 
HETATM   17  C   UNK N   1      23.268  18.637   4.751  0.00  0.00     0.032 A 
HETATM   18  C   UNK N   1      23.072  17.360   5.306  0.00  0.00     0.049 A 
HETATM   19  C   UNK N   1      23.983  16.343   5.021  0.00  0.00     0.025 A 
BRANCH  16  20
HETATM   20  C   UNK N   1      24.539  20.186   3.191  0.00  0.00     0.417 C 
HETATM   21  F   UNK N   1      24.825  21.165   4.128  0.00  0.00    -0.166 F 
HETATM   22  F   UNK N   1      25.580  20.127   2.282  0.00  0.00    -0.166 F 
HETATM   23  F   UNK N   1      23.375  20.527   2.527  0.00  0.00    -0.166 F 
ENDBRANCH  16  20
BRANCH  18  24
HETATM   24  C   UNK N   1      21.866  17.056   6.144  0.00  0.00     0.417 C 
HETATM   25  F   UNK N   1      22.187  16.127   7.115  0.00  0.00    -0.166 F 
HETATM   26  F   UNK N   1      21.417  18.217   6.747  0.00  0.00    -0.166 F 
HETATM   27  F   UNK N   1      20.843  16.549   5.359  0.00  0.00    -0.166 F 
ENDBRANCH  18  24
ENDBRANCH  12  14
ENDBRANCH   9  12
BRANCH   1  28
HETATM   28  C   UNK N   1      28.666  18.094   5.889  0.00  0.00    -0.028 A 
HETATM   29  C   UNK N   1      28.603  18.848   4.708  0.00  0.00     0.013 A 
HETATM   30  C   UNK N   1      28.032  20.119   4.696  0.00  0.00     0.043 A 
HETATM   31  C   UNK N   1      27.499  20.651   5.866  0.00  0.00     0.117 A 
HETATM   32  C   UNK N   1      27.495  19.894   7.038  0.00  0.00     0.049 A 
HETATM   33  F   UNK N   1      27.006  21.913   5.871  0.00  0.00    -0.206 F 
HETATM   34  C   UNK N   1      28.071  18.620   7.063  0.00  0.00    -0.051 A 
HETATM   35  C   UNK N   1      28.084  17.882   8.358  0.00  0.00     0.049 C 
ENDBRANCH   1  28
TORSDOF 5
ENDMDL
MODEL 2
REMARK VINA RESULT:      -7.8      0.505      3.032
REMARK  5 active torsions:
REMARK  status: ('A' for Active; 'I' for Inactive)
REMARK    1  A    between atoms: C_8  and  C_7 
REMARK       I    between atoms: N_13  and  C_14 
REMARK       I    between atoms: C_14  and  N_16 
REMARK    2  A    between atoms: N_16  and  C_18 
REMARK    3  A    between atoms: C_18  and  C_20 
REMARK    4  A    between atoms: C_22  and  C_30 
REMARK    5  A    between atoms: C_24  and  C_26 
ROOT
HETATM    1  C   UNK N   1      29.732  16.836   6.013  0.00  0.00     0.140 C 
HETATM    2  C   UNK N   1      31.039  17.047   6.780  0.00  0.00     0.144 C 
HETATM    3  N   UNK N   1      32.000  16.026   6.357  0.00  0.00    -0.417 N 
HETATM    4  C   UNK N   1      32.400  16.216   4.950  0.00  0.00     0.133 C 
HETATM    5  C   UNK N   1      31.291  16.815   4.068  0.00  0.00     0.147 C 
HETATM    6  N   UNK N   1      29.991  16.489   4.616  0.00  0.00    -0.322 N 
HETATM    7  C   UNK N   1      28.961  16.118   3.787  0.00  0.00     0.321 C 
HETATM    8  O   UNK N   1      29.099  16.276   2.575  0.00  0.00    -0.247 OA
HETATM    9  N   UNK N   1      27.767  15.619   4.268  0.00  0.00    -0.330 N 
HETATM   10  C   UNK N   1      27.647  15.073   5.603  0.00  0.00     0.155 C 
HETATM   11  H   UNK N   1      32.349  15.279   6.959  0.00  0.00     0.153 HD
ENDROOT
BRANCH   9  12
HETATM   12  C   UNK N   1      26.572  15.546   3.452  0.00  0.00     0.117 C 
HETATM   13  C   UNK N   1      26.062  14.109   3.381  0.00  0.00     0.037 C 
BRANCH  12  14
HETATM   14  C   UNK N   1      25.502  16.523   3.817  0.00  0.00    -0.034 A 
HETATM   15  C   UNK N   1      24.434  16.169   4.646  0.00  0.00     0.025 A 
HETATM   16  C   UNK N   1      23.473  17.113   5.008  0.00  0.00     0.049 A 
HETATM   17  C   UNK N   1      23.578  18.428   4.521  0.00  0.00     0.032 A 
HETATM   18  C   UNK N   1      24.666  18.795   3.710  0.00  0.00     0.049 A 
HETATM   19  C   UNK N   1      25.627  17.838   3.380  0.00  0.00     0.025 A 
BRANCH  16  20
HETATM   20  C   UNK N   1      22.397  16.713   5.975  0.00  0.00     0.417 C 
HETATM   21  F   UNK N   1      21.927  17.849   6.611  0.00  0.00    -0.166 F 
HETATM   22  F   UNK N   1      21.341  16.101   5.325  0.00  0.00    -0.166 F 
HETATM   23  F   UNK N   1      22.909  15.847   6.923  0.00  0.00    -0.166 F 
ENDBRANCH  16  20
BRANCH  18  24
HETATM   24  C   UNK N   1      24.847  20.211   3.249  0.00  0.00     0.417 C 
HETATM   25  F   UNK N   1      26.020  20.327   2.529  0.00  0.00    -0.166 F 
HETATM   26  F   UNK N   1      23.779  20.578   2.453  0.00  0.00    -0.166 F 
HETATM   27  F   UNK N   1      24.900  21.072   4.333  0.00  0.00    -0.166 F 
ENDBRANCH  18  24
ENDBRANCH  12  14
ENDBRANCH   9  12
BRANCH   1  28
HETATM   28  C   UNK N   1      28.806  18.048   6.004  0.00  0.00    -0.028 A 
HETATM   29  C   UNK N   1      28.819  18.880   4.875  0.00  0.00     0.013 A 
HETATM   30  C   UNK N   1      28.200  20.128   4.893  0.00  0.00     0.043 A 
HETATM   31  C   UNK N   1      27.544  20.560   6.042  0.00  0.00     0.117 A 
HETATM   32  C   UNK N   1      27.466  19.724   7.156  0.00  0.00     0.049 A 
HETATM   33  F   UNK N   1      27.003  21.801   6.084  0.00  0.00    -0.206 F 
HETATM   34  C   UNK N   1      28.088  18.471   7.151  0.00  0.00    -0.051 A 
HETATM   35  C   UNK N   1      28.015  17.647   8.390  0.00  0.00     0.049 C 
ENDBRANCH   1  28
TORSDOF 5
ENDMDL
MODEL 3
REMARK VINA RESULT:      -7.7     11.546     14.275
REMARK  5 active torsions:
REMARK  status: ('A' for Active; 'I' for Inactive)
REMARK    1  A    between atoms: C_8  and  C_7 
REMARK       I    between atoms: N_13  and  C_14 
REMARK       I    between atoms: C_14  and  N_16 
REMARK    2  A    between atoms: N_16  and  C_18 
REMARK    3  A    between atoms: C_18  and  C_20 
REMARK    4  A    between atoms: C_22  and  C_30 
REMARK    5  A    between atoms: C_24  and  C_26 
ROOT
HETATM    1  C   UNK N   1      28.229  27.854  -4.424  0.00  0.00     0.140 C 
HETATM    2  C   UNK N   1      28.611  28.755  -3.248  0.00  0.00     0.144 C 
HETATM    3  N   UNK N   1      27.966  30.059  -3.428  0.00  0.00    -0.417 N 
HETATM    4  C   UNK N   1      26.500  29.951  -3.309  0.00  0.00     0.133 C 
HETATM    5  C   UNK N   1      25.937  28.605  -3.794  0.00  0.00     0.147 C 
HETATM    6  N   UNK N   1      26.821  28.025  -4.783  0.00  0.00    -0.322 N 
HETATM    7  C   UNK N   1      26.309  27.417  -5.903  0.00  0.00     0.321 C 
HETATM    8  O   UNK N   1      25.101  27.185  -5.941  0.00  0.00    -0.247 OA
HETATM    9  N   UNK N   1      27.103  27.019  -6.959  0.00  0.00    -0.330 N 
HETATM   10  C   UNK N   1      28.433  27.555  -7.162  0.00  0.00     0.155 C 
HETATM   11  H   UNK N   1      28.467  30.928  -3.611  0.00  0.00     0.153 HD
ENDROOT
BRANCH   9  12
HETATM   12  C   UNK N   1      26.642  26.092  -7.971  0.00  0.00     0.117 C 
HETATM   13  C   UNK N   1      27.225  26.455  -9.334  0.00  0.00     0.037 C 
BRANCH  12  14
HETATM   14  C   UNK N   1      26.823  24.648  -7.630  0.00  0.00    -0.034 A 
HETATM   15  C   UNK N   1      25.759  23.743  -7.672  0.00  0.00     0.025 A 
HETATM   16  C   UNK N   1      25.963  22.392  -7.393  0.00  0.00     0.049 A 
HETATM   17  C   UNK N   1      27.253  21.944  -7.055  0.00  0.00     0.032 A 
HETATM   18  C   UNK N   1      28.331  22.846  -7.040  0.00  0.00     0.049 A 
HETATM   19  C   UNK N   1      28.105  24.188  -7.344  0.00  0.00     0.025 A 
BRANCH  16  20
HETATM   20  C   UNK N   1      24.812  21.442  -7.541  0.00  0.00     0.417 C 
HETATM   21  F   UNK N   1      25.224  20.358  -8.297  0.00  0.00    -0.166 F 
HETATM   22  F   UNK N   1      24.378  20.983  -6.311  0.00  0.00    -0.166 F 
HETATM   23  F   UNK N   1      23.762  22.066  -8.189  0.00  0.00    -0.166 F 
ENDBRANCH  16  20
BRANCH  18  24
HETATM   24  C   UNK N   1      29.730  22.378  -6.767  0.00  0.00     0.417 C 
HETATM   25  F   UNK N   1      30.577  23.462  -6.651  0.00  0.00    -0.166 F 
HETATM   26  F   UNK N   1      29.753  21.647  -5.594  0.00  0.00    -0.166 F 
HETATM   27  F   UNK N   1      30.180  21.566  -7.796  0.00  0.00    -0.166 F 
ENDBRANCH  18  24
ENDBRANCH  12  14
ENDBRANCH   9  12
BRANCH   1  28
HETATM   28  C   UNK N   1      28.445  26.366  -4.171  0.00  0.00    -0.028 A 
HETATM   29  C   UNK N   1      27.349  25.604  -3.740  0.00  0.00     0.013 A 
HETATM   30  C   UNK N   1      27.520  24.312  -3.250  0.00  0.00     0.043 A 
HETATM   31  C   UNK N   1      28.794  23.752  -3.197  0.00  0.00     0.117 A 
HETATM   32  C   UNK N   1      29.890  24.468  -3.679  0.00  0.00     0.049 A 
HETATM   33  F   UNK N   1      28.969  22.523  -2.657  0.00  0.00    -0.206 F 
HETATM   34  C   UNK N   1      29.731  25.769  -4.167  0.00  0.00    -0.051 A 
HETATM   35  C   UNK N   1      30.948  26.502  -4.617  0.00  0.00     0.049 C 
ENDBRANCH   1  28
TORSDOF 5
ENDMDL
MODEL 4
REMARK VINA RESULT:      -7.6      3.449      6.159
REMARK  5 active torsions:
REMARK  status: ('A' for Active; 'I' for Inactive)
REMARK    1  A    between atoms: C_8  and  C_7 
REMARK       I    between atoms: N_13  and  C_14 
REMARK       I    between atoms: C_14  and  N_16 
REMARK    2  A    between atoms: N_16  and  C_18 
REMARK    3  A    between atoms: C_18  and  C_20 
REMARK    4  A    between atoms: C_22  and  C_30 
REMARK    5  A    between atoms: C_24  and  C_26 
ROOT
HETATM    1  C   UNK N   1      33.486  15.951   7.323  0.00  0.00     0.140 C 
HETATM    2  C   UNK N   1      34.900  15.409   7.102  0.00  0.00     0.144 C 
HETATM    3  N   UNK N   1      35.613  15.423   8.383  0.00  0.00    -0.417 N 
HETATM    4  C   UNK N   1      35.027  14.460   9.333  0.00  0.00     0.133 C 
HETATM    5  C   UNK N   1      33.511  14.266   9.161  0.00  0.00     0.147 C 
HETATM    6  N   UNK N   1      32.922  15.453   8.578  0.00  0.00    -0.322 N 
HETATM    7  C   UNK N   1      31.719  15.929   9.038  0.00  0.00     0.321 C 
HETATM    8  O   UNK N   1      31.057  15.217   9.792  0.00  0.00    -0.247 OA
HETATM    9  N   UNK N   1      31.209  17.152   8.650  0.00  0.00    -0.330 N 
HETATM   10  C   UNK N   1      32.048  18.184   8.076  0.00  0.00     0.155 C 
HETATM   11  H   UNK N   1      36.412  16.023   8.589  0.00  0.00     0.153 HD
ENDROOT
BRANCH   9  12
HETATM   12  C   UNK N   1      29.821  17.513   8.849  0.00  0.00     0.117 C 
HETATM   13  C   UNK N   1      29.704  18.636   9.876  0.00  0.00     0.037 C 
BRANCH  12  14
HETATM   14  C   UNK N   1      29.059  17.793   7.595  0.00  0.00    -0.034 A 
HETATM   15  C   UNK N   1      28.773  16.786   6.668  0.00  0.00     0.025 A 
HETATM   16  C   UNK N   1      28.020  17.063   5.527  0.00  0.00     0.049 A 
HETATM   17  C   UNK N   1      27.558  18.373   5.307  0.00  0.00     0.032 A 
HETATM   18  C   UNK N   1      27.819  19.382   6.251  0.00  0.00     0.049 A 
HETATM   19  C   UNK N   1      28.554  19.074   7.395  0.00  0.00     0.025 A 
BRANCH  16  20
HETATM   20  C   UNK N   1      27.658  15.933   4.609  0.00  0.00     0.417 C 
HETATM   21  F   UNK N   1      26.290  15.952   4.399  0.00  0.00    -0.166 F 
HETATM   22  F   UNK N   1      28.295  16.056   3.388  0.00  0.00    -0.166 F 
HETATM   23  F   UNK N   1      28.007  14.725   5.183  0.00  0.00    -0.166 F 
ENDBRANCH  16  20
BRANCH  18  24
HETATM   24  C   UNK N   1      27.263  20.764   6.081  0.00  0.00     0.417 C 
HETATM   25  F   UNK N   1      26.988  21.002   4.748  0.00  0.00    -0.166 F 
HETATM   26  F   UNK N   1      26.103  20.892   6.821  0.00  0.00    -0.166 F 
HETATM   27  F   UNK N   1      28.171  21.712   6.526  0.00  0.00    -0.166 F 
ENDBRANCH  18  24
ENDBRANCH  12  14
ENDBRANCH   9  12
BRANCH   1  28
HETATM   28  C   UNK N   1      32.497  15.594   6.219  0.00  0.00    -0.028 A 
HETATM   29  C   UNK N   1      31.826  14.366   6.306  0.00  0.00     0.013 A 
HETATM   30  C   UNK N   1      31.108  13.860   5.225  0.00  0.00     0.043 A 
HETATM   31  C   UNK N   1      31.038  14.585   4.038  0.00  0.00     0.117 A 
HETATM   32  C   UNK N   1      31.647  15.837   3.950  0.00  0.00     0.049 A 
HETATM   33  F   UNK N   1      30.399  14.063   2.965  0.00  0.00    -0.206 F 
HETATM   34  C   UNK N   1      32.375  16.352   5.027  0.00  0.00    -0.051 A 
HETATM   35  C   UNK N   1      33.047  17.671   4.853  0.00  0.00     0.049 C 
ENDBRANCH   1  28
TORSDOF 5
ENDMDL
MODEL 5
REMARK VINA RESULT:      -7.6     11.591     14.136
REMARK  5 active torsions:
REMARK  status: ('A' for Active; 'I' for Inactive)
REMARK    1  A    between atoms: C_8  and  C_7 
REMARK       I    between atoms: N_13  and  C_14 
REMARK       I    between atoms: C_14  and  N_16 
REMARK    2  A    between atoms: N_16  and  C_18 
REMARK    3  A    between atoms: C_18  and  C_20 
REMARK    4  A    between atoms: C_22  and  C_30 
REMARK    5  A    between atoms: C_24  and  C_26 
ROOT
HETATM    1  C   UNK N   1      28.174  27.820  -4.527  0.00  0.00     0.140 C 
HETATM    2  C   UNK N   1      28.445  28.730  -3.326  0.00  0.00     0.144 C 
HETATM    3  N   UNK N   1      27.779  30.015  -3.552  0.00  0.00    -0.417 N 
HETATM    4  C   UNK N   1      26.312  29.868  -3.540  0.00  0.00     0.133 C 
HETATM    5  C   UNK N   1      25.823  28.507  -4.065  0.00  0.00     0.147 C 
HETATM    6  N   UNK N   1      26.792  27.954  -4.987  0.00  0.00    -0.322 N 
HETATM    7  C   UNK N   1      26.379  27.334  -6.141  0.00  0.00     0.321 C 
HETATM    8  O   UNK N   1      25.184  27.069  -6.267  0.00  0.00    -0.247 OA
HETATM    9  N   UNK N   1      27.258  26.960  -7.137  0.00  0.00    -0.330 N 
HETATM   10  C   UNK N   1      28.584  27.533  -7.242  0.00  0.00     0.155 C 
HETATM   11  H   UNK N   1      28.268  30.898  -3.699  0.00  0.00     0.153 HD
ENDROOT
BRANCH   9  12
HETATM   12  C   UNK N   1      26.897  26.022  -8.180  0.00  0.00     0.117 C 
HETATM   13  C   UNK N   1      27.560  26.409  -9.498  0.00  0.00     0.037 C 
BRANCH  12  14
HETATM   14  C   UNK N   1      27.100  24.584  -7.829  0.00  0.00    -0.034 A 
HETATM   15  C   UNK N   1      28.355  24.085  -7.468  0.00  0.00     0.025 A 
HETATM   16  C   UNK N   1      28.509  22.748  -7.100  0.00  0.00     0.049 A 
HETATM   17  C   UNK N   1      27.390  21.896  -7.109  0.00  0.00     0.032 A 
HETATM   18  C   UNK N   1      26.121  22.401  -7.444  0.00  0.00     0.049 A 
HETATM   19  C   UNK N   1      25.989  23.747  -7.786  0.00  0.00     0.025 A 
BRANCH  16  20
HETATM   20  C   UNK N   1      29.854  22.280  -6.630  0.00  0.00     0.417 C 
HETATM   21  F   UNK N   1      29.691  21.570  -5.452  0.00  0.00    -0.166 F 
HETATM   22  F   UNK N   1      30.453  21.453  -7.564  0.00  0.00    -0.166 F 
HETATM   23  F   UNK N   1      30.677  23.364  -6.389  0.00  0.00    -0.166 F 
ENDBRANCH  16  20
BRANCH  18  24
HETATM   24  C   UNK N   1      24.899  21.534  -7.377  0.00  0.00     0.417 C 
HETATM   25  F   UNK N   1      24.440  21.466  -6.076  0.00  0.00    -0.166 F 
HETATM   26  F   UNK N   1      23.912  22.062  -8.187  0.00  0.00    -0.166 F 
HETATM   27  F   UNK N   1      25.187  20.252  -7.817  0.00  0.00    -0.166 F 
ENDBRANCH  18  24
ENDBRANCH  12  14
ENDBRANCH   9  12
BRANCH   1  28
HETATM   28  C   UNK N   1      28.412  26.338  -4.259  0.00  0.00    -0.028 A 
HETATM   29  C   UNK N   1      27.307  25.544  -3.918  0.00  0.00     0.013 A 
HETATM   30  C   UNK N   1      27.475  24.255  -3.417  0.00  0.00     0.043 A 
HETATM   31  C   UNK N   1      28.756  23.732  -3.262  0.00  0.00     0.117 A 
HETATM   32  C   UNK N   1      29.867  24.481  -3.653  0.00  0.00     0.049 A 
HETATM   33  F   UNK N   1      28.923  22.507  -2.711  0.00  0.00    -0.206 F 
HETATM   34  C   UNK N   1      29.710  25.779  -4.152  0.00  0.00    -0.051 A 
HETATM   35  C   UNK N   1      30.938  26.548  -4.501  0.00  0.00     0.049 C 
ENDBRANCH   1  28
TORSDOF 5
ENDMDL
MODEL 6
REMARK VINA RESULT:      -7.6     11.271     13.911
REMARK  5 active torsions:
REMARK  status: ('A' for Active; 'I' for Inactive)
REMARK    1  A    between atoms: C_8  and  C_7 
REMARK       I    between atoms: N_13  and  C_14 
REMARK       I    between atoms: C_14  and  N_16 
REMARK    2  A    between atoms: N_16  and  C_18 
REMARK    3  A    between atoms: C_18  and  C_20 
REMARK    4  A    between atoms: C_22  and  C_30 
REMARK    5  A    between atoms: C_24  and  C_26 
ROOT
HETATM    1  C   UNK N   1      27.773  25.657  -5.750  0.00  0.00     0.140 C 
HETATM    2  C   UNK N   1      27.716  27.127  -5.329  0.00  0.00     0.144 C 
HETATM    3  N   UNK N   1      26.716  27.811  -6.154  0.00  0.00    -0.417 N 
HETATM    4  C   UNK N   1      25.356  27.323  -5.861  0.00  0.00     0.133 C 
HETATM    5  C   UNK N   1      25.306  25.843  -5.447  0.00  0.00     0.147 C 
HETATM    6  N   UNK N   1      26.433  25.132  -6.011  0.00  0.00    -0.322 N 
HETATM    7  C   UNK N   1      26.268  23.874  -6.538  0.00  0.00     0.321 C 
HETATM    8  O   UNK N   1      25.208  23.286  -6.328  0.00  0.00    -0.247 OA
HETATM    9  N   UNK N   1      27.262  23.234  -7.253  0.00  0.00    -0.330 N 
HETATM   10  C   UNK N   1      28.367  23.958  -7.844  0.00  0.00     0.155 C 
HETATM   11  H   UNK N   1      26.934  28.533  -6.841  0.00  0.00     0.153 HD
ENDROOT
BRANCH   9  12
HETATM   12  C   UNK N   1      27.234  21.811  -7.517  0.00  0.00     0.117 C 
HETATM   13  C   UNK N   1      26.558  21.529  -8.856  0.00  0.00     0.037 C 
BRANCH  12  14
HETATM   14  C   UNK N   1      28.551  21.120  -7.375  0.00  0.00    -0.034 A 
HETATM   15  C   UNK N   1      29.328  21.247  -6.220  0.00  0.00     0.025 A 
HETATM   16  C   UNK N   1      30.533  20.555  -6.094  0.00  0.00     0.049 A 
HETATM   17  C   UNK N   1      30.971  19.734  -7.148  0.00  0.00     0.032 A 
HETATM   18  C   UNK N   1      30.178  19.581  -8.300  0.00  0.00     0.049 A 
HETATM   19  C   UNK N   1      28.966  20.266  -8.392  0.00  0.00     0.025 A 
BRANCH  16  20
HETATM   20  C   UNK N   1      31.286  20.648  -4.801  0.00  0.00     0.417 C 
HETATM   21  F   UNK N   1      32.085  19.525  -4.670  0.00  0.00    -0.166 F 
HETATM   22  F   UNK N   1      32.095  21.770  -4.770  0.00  0.00    -0.166 F 
HETATM   23  F   UNK N   1      30.403  20.696  -3.738  0.00  0.00    -0.166 F 
ENDBRANCH  16  20
BRANCH  18  24
HETATM   24  C   UNK N   1      30.581  18.644  -9.399  0.00  0.00     0.417 C 
HETATM   25  F   UNK N   1      29.714  18.769 -10.468  0.00  0.00    -0.166 F 
HETATM   26  F   UNK N   1      31.867  18.940  -9.812  0.00  0.00    -0.166 F 
HETATM   27  F   UNK N   1      30.556  17.332  -8.954  0.00  0.00    -0.166 F 
ENDBRANCH  18  24
ENDBRANCH  12  14
ENDBRANCH   9  12
BRANCH   1  28
HETATM   28  C   UNK N   1      28.418  24.734  -4.721  0.00  0.00    -0.028 A 
HETATM   29  C   UNK N   1      27.590  24.135  -3.761  0.00  0.00     0.013 A 
HETATM   30  C   UNK N   1      28.128  23.491  -2.648  0.00  0.00     0.043 A 
HETATM   31  C   UNK N   1      29.509  23.424  -2.486  0.00  0.00     0.117 A 
HETATM   32  C   UNK N   1      30.352  23.958  -3.460  0.00  0.00     0.049 A 
HETATM   33  F   UNK N   1      30.030  22.859  -1.371  0.00  0.00    -0.206 F 
HETATM   34  C   UNK N   1      29.823  24.612  -4.578  0.00  0.00    -0.051 A 
HETATM   35  C   UNK N   1      30.777  25.209  -5.556  0.00  0.00     0.049 C 
ENDBRANCH   1  28
TORSDOF 5
ENDMDL
MODEL 7
REMARK VINA RESULT:      -7.5      4.724      7.160
REMARK  5 active torsions:
REMARK  status: ('A' for Active; 'I' for Inactive)
REMARK    1  A    between atoms: C_8  and  C_7 
REMARK       I    between atoms: N_13  and  C_14 
REMARK       I    between atoms: C_14  and  N_16 
REMARK    2  A    between atoms: N_16  and  C_18 
REMARK    3  A    between atoms: C_18  and  C_20 
REMARK    4  A    between atoms: C_22  and  C_30 
REMARK    5  A    between atoms: C_24  and  C_26 
ROOT
HETATM    1  C   UNK N   1      23.659  14.617   3.303  0.00  0.00     0.140 C 
HETATM    2  C   UNK N   1      24.512  15.276   2.216  0.00  0.00     0.144 C 
HETATM    3  N   UNK N   1      24.828  14.272   1.196  0.00  0.00    -0.417 N 
HETATM    4  C   UNK N   1      23.618  13.850   0.467  0.00  0.00     0.133 C 
HETATM    5  C   UNK N   1      22.339  13.878   1.321  0.00  0.00     0.147 C 
HETATM    6  N   UNK N   1      22.673  13.707   2.719  0.00  0.00    -0.322 N 
HETATM    7  C   UNK N   1      21.902  12.906   3.525  0.00  0.00     0.321 C 
HETATM    8  O   UNK N   1      20.816  12.517   3.096  0.00  0.00    -0.247 OA
HETATM    9  N   UNK N   1      22.280  12.561   4.807  0.00  0.00    -0.330 N 
HETATM   10  C   UNK N   1      23.654  12.663   5.253  0.00  0.00     0.155 C 
HETATM   11  H   UNK N   1      25.765  13.912   1.014  0.00  0.00     0.153 HD
ENDROOT
BRANCH   9  12
HETATM   12  C   UNK N   1      21.348  12.014   5.771  0.00  0.00     0.117 C 
HETATM   13  C   UNK N   1      21.617  10.528   5.990  0.00  0.00     0.037 C 
BRANCH  12  14
HETATM   14  C   UNK N   1      21.247  12.780   7.050  0.00  0.00    -0.034 A 
HETATM   15  C   UNK N   1      20.648  14.041   7.107  0.00  0.00     0.025 A 
HETATM   16  C   UNK N   1      20.524  14.715   8.322  0.00  0.00     0.049 A 
HETATM   17  C   UNK N   1      21.021  14.120   9.495  0.00  0.00     0.032 A 
HETATM   18  C   UNK N   1      21.598  12.839   9.446  0.00  0.00     0.049 A 
HETATM   19  C   UNK N   1      21.689  12.176   8.223  0.00  0.00     0.025 A 
BRANCH  16  20
HETATM   20  C   UNK N   1      19.791  16.024   8.350  0.00  0.00     0.417 C 
HETATM   21  F   UNK N   1      19.194  16.225   7.117  0.00  0.00    -0.166 F 
HETATM   22  F   UNK N   1      18.807  16.027   9.322  0.00  0.00    -0.166 F 
HETATM   23  F   UNK N   1      20.674  17.059   8.594  0.00  0.00    -0.166 F 
ENDBRANCH  16  20
BRANCH  18  24
HETATM   24  C   UNK N   1      22.056  12.148  10.696  0.00  0.00     0.417 C 
HETATM   25  F   UNK N   1      22.624  10.929  10.380  0.00  0.00    -0.166 F 
HETATM   26  F   UNK N   1      22.987  12.935  11.346  0.00  0.00    -0.166 F 
HETATM   27  F   UNK N   1      20.989  11.935  11.554  0.00  0.00    -0.166 F 
ENDBRANCH  18  24
ENDBRANCH  12  14
ENDBRANCH   9  12
BRANCH   1  28
HETATM   28  C   UNK N   1      22.891  15.599   4.180  0.00  0.00    -0.028 A 
HETATM   29  C   UNK N   1      21.656  16.073   3.716  0.00  0.00     0.013 A 
HETATM   30  C   UNK N   1      21.021  17.151   4.330  0.00  0.00     0.043 A 
HETATM   31  C   UNK N   1      21.609  17.766   5.432  0.00  0.00     0.117 A 
HETATM   32  C   UNK N   1      22.807  17.272   5.949  0.00  0.00     0.049 A 
HETATM   33  F   UNK N   1      21.027  18.856   5.986  0.00  0.00    -0.206 F 
HETATM   34  C   UNK N   1      23.455  16.194   5.337  0.00  0.00    -0.051 A 
HETATM   35  C   UNK N   1      24.759  15.747   5.904  0.00  0.00     0.049 C 
ENDBRANCH   1  28
TORSDOF 5
ENDMDL
MODEL 8
REMARK VINA RESULT:      -7.3     11.587     14.082
REMARK  5 active torsions:
REMARK  status: ('A' for Active; 'I' for Inactive)
REMARK    1  A    between atoms: C_8  and  C_7 
REMARK       I    between atoms: N_13  and  C_14 
REMARK       I    between atoms: C_14  and  N_16 
REMARK    2  A    between atoms: N_16  and  C_18 
REMARK    3  A    between atoms: C_18  and  C_20 
REMARK    4  A    between atoms: C_22  and  C_30 
REMARK    5  A    between atoms: C_24  and  C_26 
ROOT
HETATM    1  C   UNK N   1      28.136  28.053  -5.178  0.00  0.00     0.140 C 
HETATM    2  C   UNK N   1      28.336  29.567  -5.081  0.00  0.00     0.144 C 
HETATM    3  N   UNK N   1      27.052  30.188  -4.745  0.00  0.00    -0.417 N 
HETATM    4  C   UNK N   1      26.617  29.818  -3.386  0.00  0.00     0.133 C 
HETATM    5  C   UNK N   1      27.065  28.410  -2.955  0.00  0.00     0.147 C 
HETATM    6  N   UNK N   1      27.247  27.571  -4.120  0.00  0.00    -0.322 N 
HETATM    7  C   UNK N   1      26.822  26.265  -4.110  0.00  0.00     0.321 C 
HETATM    8  O   UNK N   1      26.485  25.768  -3.035  0.00  0.00    -0.247 OA
HETATM    9  N   UNK N   1      26.801  25.483  -5.247  0.00  0.00    -0.330 N 
HETATM   10  C   UNK N   1      26.829  26.062  -6.574  0.00  0.00     0.155 C 
HETATM   11  H   UNK N   1      26.527  30.799  -5.371  0.00  0.00     0.153 HD
ENDROOT
BRANCH   9  12
HETATM   12  C   UNK N   1      26.684  24.041  -5.196  0.00  0.00     0.117 C 
HETATM   13  C   UNK N   1      25.632  23.555  -6.188  0.00  0.00     0.037 C 
BRANCH  12  14
HETATM   14  C   UNK N   1      27.977  23.301  -5.314  0.00  0.00    -0.034 A 
HETATM   15  C   UNK N   1      28.959  23.375  -4.322  0.00  0.00     0.025 A 
HETATM   16  C   UNK N   1      30.139  22.638  -4.435  0.00  0.00     0.049 A 
HETATM   17  C   UNK N   1      30.341  21.826  -5.565  0.00  0.00     0.032 A 
HETATM   18  C   UNK N   1      29.343  21.728  -6.551  0.00  0.00     0.049 A 
HETATM   19  C   UNK N   1      28.163  22.457  -6.404  0.00  0.00     0.025 A 
BRANCH  16  20
HETATM   20  C   UNK N   1      31.122  22.675  -3.303  0.00  0.00     0.417 C 
HETATM   21  F   UNK N   1      32.343  23.111  -3.788  0.00  0.00    -0.166 F 
HETATM   22  F   UNK N   1      30.709  23.540  -2.306  0.00  0.00    -0.166 F 
HETATM   23  F   UNK N   1      31.279  21.409  -2.768  0.00  0.00    -0.166 F 
ENDBRANCH  16  20
BRANCH  18  24
HETATM   24  C   UNK N   1      29.499  20.804  -7.721  0.00  0.00     0.417 C 
HETATM   25  F   UNK N   1      29.796  19.529  -7.280  0.00  0.00    -0.166 F 
HETATM   26  F   UNK N   1      28.324  20.777  -8.449  0.00  0.00    -0.166 F 
HETATM   27  F   UNK N   1      30.518  21.238  -8.553  0.00  0.00    -0.166 F 
ENDBRANCH  18  24
ENDBRANCH  12  14
ENDBRANCH   9  12
BRANCH   1  28
HETATM   28  C   UNK N   1      29.423  27.242  -5.080  0.00  0.00    -0.028 A 
HETATM   29  C   UNK N   1      29.922  26.946  -3.803  0.00  0.00     0.013 A 
HETATM   30  C   UNK N   1      31.207  26.437  -3.633  0.00  0.00     0.043 A 
HETATM   31  C   UNK N   1      32.013  26.201  -4.743  0.00  0.00     0.117 A 
HETATM   32  C   UNK N   1      31.515  26.429  -6.026  0.00  0.00     0.049 A 
HETATM   33  F   UNK N   1      33.286  25.771  -4.574  0.00  0.00    -0.206 F 
HETATM   34  C   UNK N   1      30.228  26.946  -6.209  0.00  0.00    -0.051 A 
HETATM   35  C   UNK N   1      29.774  27.218  -7.602  0.00  0.00     0.049 C 
ENDBRANCH   1  28
TORSDOF 5
ENDMDL
MODEL 9
REMARK VINA RESULT:      -7.3      5.339      8.006
REMARK  5 active torsions:
REMARK  status: ('A' for Active; 'I' for Inactive)
REMARK    1  A    between atoms: C_8  and  C_7 
REMARK       I    between atoms: N_13  and  C_14 
REMARK       I    between atoms: C_14  and  N_16 
REMARK    2  A    between atoms: N_16  and  C_18 
REMARK    3  A    between atoms: C_18  and  C_20 
REMARK    4  A    between atoms: C_22  and  C_30 
REMARK    5  A    between atoms: C_24  and  C_26 
ROOT
HETATM    1  C   UNK N   1      20.798  16.823   3.375  0.00  0.00     0.140 C 
HETATM    2  C   UNK N   1      20.352  17.251   1.975  0.00  0.00     0.144 C 
HETATM    3  N   UNK N   1      19.191  18.136   2.103  0.00  0.00    -0.417 N 
HETATM    4  C   UNK N   1      19.557  19.411   2.747  0.00  0.00     0.133 C 
HETATM    5  C   UNK N   1      20.695  19.282   3.774  0.00  0.00     0.147 C 
HETATM    6  N   UNK N   1      20.722  17.940   4.316  0.00  0.00    -0.322 N 
HETATM    7  C   UNK N   1      20.941  17.737   5.657  0.00  0.00     0.321 C 
HETATM    8  O   UNK N   1      21.323  18.688   6.338  0.00  0.00    -0.247 OA
HETATM    9  N   UNK N   1      20.791  16.501   6.253  0.00  0.00    -0.330 N 
HETATM   10  C   UNK N   1      20.022  15.441   5.635  0.00  0.00     0.155 C 
HETATM   11  H   UNK N   1      18.250  17.899   1.788  0.00  0.00     0.153 HD
ENDROOT
BRANCH   9  12
HETATM   12  C   UNK N   1      21.333  16.199   7.562  0.00  0.00     0.117 C 
HETATM   13  C   UNK N   1      20.301  16.489   8.647  0.00  0.00     0.037 C 
BRANCH  12  14
HETATM   14  C   UNK N   1      21.944  14.841   7.690  0.00  0.00    -0.034 A 
HETATM   15  C   UNK N   1      22.733  14.290   6.676  0.00  0.00     0.025 A 
HETATM   16  C   UNK N   1      23.329  13.040   6.840  0.00  0.00     0.049 A 
HETATM   17  C   UNK N   1      23.121  12.326   8.033  0.00  0.00     0.032 A 
HETATM   18  C   UNK N   1      22.352  12.890   9.067  0.00  0.00     0.049 A 
HETATM   19  C   UNK N   1      21.785  14.151   8.888  0.00  0.00     0.025 A 
BRANCH  16  20
HETATM   20  C   UNK N   1      24.243  12.531   5.765  0.00  0.00     0.417 C 
HETATM   21  F   UNK N   1      23.494  12.276   4.628  0.00  0.00    -0.166 F 
HETATM   22  F   UNK N   1      25.218  13.461   5.452  0.00  0.00    -0.166 F 
HETATM   23  F   UNK N   1      24.850  11.357   6.173  0.00  0.00    -0.166 F 
ENDBRANCH  16  20
BRANCH  18  24
HETATM   24  C   UNK N   1      22.186  12.187  10.381  0.00  0.00     0.417 C 
HETATM   25  F   UNK N   1      22.936  12.820  11.353  0.00  0.00    -0.166 F 
HETATM   26  F   UNK N   1      20.854  12.197  10.748  0.00  0.00    -0.166 F 
HETATM   27  F   UNK N   1      22.602  10.868  10.284  0.00  0.00    -0.166 F 
ENDBRANCH  18  24
ENDBRANCH  12  14
ENDBRANCH   9  12
BRANCH   1  28
HETATM   28  C   UNK N   1      22.222  16.281   3.442  0.00  0.00    -0.028 A 
HETATM   29  C   UNK N   1      23.243  17.157   3.838  0.00  0.00     0.013 A 
HETATM   30  C   UNK N   1      24.585  16.815   3.683  0.00  0.00     0.043 A 
HETATM   31  C   UNK N   1      24.927  15.580   3.140  0.00  0.00     0.117 A 
HETATM   32  C   UNK N   1      23.929  14.668   2.797  0.00  0.00     0.049 A 
HETATM   33  F   UNK N   1      26.229  15.275   2.925  0.00  0.00    -0.206 F 
HETATM   34  C   UNK N   1      22.579  15.003   2.943  0.00  0.00    -0.051 A 
HETATM   35  C   UNK N   1      21.559  14.007   2.508  0.00  0.00     0.049 C 
ENDBRANCH   1  28
TORSDOF 5
ENDMDL
