REMARK  16 active torsions:
REMARK  status: ('A' for Active; 'I' for Inactive)
REMARK    1  A    between atoms: C_2  and  C_3 
REMARK    2  A    between atoms: C_3  and  C_5 
REMARK    3  A    between atoms: C_5  and  C_6 
REMARK    4  A    between atoms: C_5  and  N_28 
REMARK       I    between atoms: C_6  and  N_8 
REMARK    5  A    between atoms: C_9  and  N_8 
REMARK    6  A    between atoms: C_9  and  C_10 
REMARK    7  A    between atoms: C_9  and  C_13 
REMARK       I    between atoms: C_13  and  N_15 
REMARK    8  A    between atoms: C_19  and  C_20 
REMARK       I    between atoms: C_20  and  N_22 
REMARK    9  A    between atoms: N_22  and  C_23 
REMARK   10  A    between atoms: C_23  and  C_25 
REMARK       I    between atoms: C_25  and  N_27 
REMARK       I    between atoms: N_28  and  C_29 
REMARK   11  A    between atoms: C_29  and  C_31 
REMARK   12  A    between atoms: C_31  and  C_32 
REMARK   13  A    between atoms: C_31  and  N_40 
REMARK   14  A    between atoms: C_32  and  C_33 
REMARK   15  A    between atoms: C_33  and  C_34 
REMARK   16  A    between atoms: C_34  and  N_35 
REMARK       I    between atoms: N_35  and  C_36 
REMARK       I    between atoms: C_36  and  N_39 
ROOT
HETATM    1  C   UNK N   1       3.207  -0.725  -0.636  0.00  0.00     0.241 C 
HETATM    2  O   UNK N   1       3.319  -0.070   0.389  0.00  0.00    -0.271 OA
HETATM    3  N   UNK N   1       2.044  -0.678  -1.349  0.00  0.00    -0.346 N 
HETATM    4  H   UNK N   1       2.002  -1.070  -2.251  0.00  0.00     0.163 HD
ENDROOT
BRANCH   1   5
HETATM    5  C   UNK N   1       4.253  -1.740  -0.967  0.00  0.00     0.180 C 
BRANCH   5   6
HETATM    6  C   UNK N   1       4.026  -3.058  -0.186  0.00  0.00     0.013 C 
HETATM    7  C   UNK N   1       4.226  -3.030   1.323  0.00  0.00     0.012 C 
BRANCH   6   8
HETATM    8  C   UNK N   1       4.590  -4.312  -0.842  0.00  0.00     0.002 C 
HETATM    9  C   UNK N   1       6.096  -4.415  -0.701  0.00  0.00     0.005 C 
ENDBRANCH   6   8
ENDBRANCH   5   6
BRANCH   5  10
HETATM   10  N   UNK N   1       5.579  -1.148  -0.891  0.00  0.00    -0.346 N 
HETATM   11  C   UNK N   1       6.131  -0.564   0.216  0.00  0.00     0.240 C 
HETATM   12  O   UNK N   1       5.591  -0.633   1.309  0.00  0.00    -0.271 OA
HETATM   13  H   UNK N   1       6.127  -1.169  -1.709  0.00  0.00     0.163 HD
BRANCH  11  14
HETATM   14  C   UNK N   1       7.372   0.260   0.091  0.00  0.00     0.167 C 
BRANCH  14  15
HETATM   15  C   UNK N   1       8.054   0.118  -1.265  0.00  0.00     0.036 C 
BRANCH  15  16
HETATM   16  C   UNK N   1       8.550  -1.313  -1.489  0.00  0.00     0.023 C 
BRANCH  16  17
HETATM   17  C   UNK N   1       9.286  -1.874  -0.276  0.00  0.00     0.138 C 
BRANCH  17  18
HETATM   18  N   UNK N   1      10.301  -0.944   0.148  0.00  0.00    -0.227 N 
HETATM   19  C   UNK N   1      11.675  -1.269   0.102  0.00  0.00     0.665 C 
HETATM   20  N   UNK N   1      12.058  -2.436  -0.266  0.00  0.00    -0.235 N 
HETATM   21  N   UNK N   1      12.634  -0.275   0.389  0.00  0.00    -0.235 N 
HETATM   22  H   UNK N   1      11.428  -3.138  -0.549  0.00  0.00     0.174 HD
ATOM     23  HN  UNK N   1      13.056  -2.646  -0.266  1.00  0.00     0.174 HD
HETATM   24  H   UNK N   1      13.569  -0.507   0.588  0.00  0.00     0.174 HD
HETATM   25  H   UNK N   1      12.362   0.672   0.389  0.00  0.00     0.174 HD
HETATM   26  H   UNK N   1      10.029  -0.057   0.479  0.00  0.00     0.177 HD
ENDBRANCH  17  18
ENDBRANCH  16  17
ENDBRANCH  15  16
ENDBRANCH  14  15
BRANCH  14  27
HETATM   27  N   UNK N   1       7.043   1.656   0.328  0.00  0.00    -0.418 N 
HETATM   28  H   UNK N   1       7.777   2.346   0.494  0.00  0.00     0.150 HD
HETATM   29  H   UNK N   1       6.067   1.951   0.328  0.00  0.00     0.150 HD
ENDBRANCH  14  27
ENDBRANCH  11  14
ENDBRANCH   5  10
ENDBRANCH   1   5
BRANCH   3  30
HETATM   30  C   UNK N   1       0.864  -0.044  -0.770  0.00  0.00     0.180 C 
BRANCH  30  31
HETATM   31  C   UNK N   1       0.943   1.508  -0.812  0.00  0.00     0.009 C 
HETATM   32  C   UNK N   1       0.222   2.248   0.301  0.00  0.00     0.012 C 
HETATM   33  C   UNK N   1       2.274   2.154  -1.172  0.00  0.00     0.012 C 
ENDBRANCH  30  31
BRANCH  30  34
HETATM   34  C   UNK N   1       0.686  -0.757   0.564  0.00  0.00     0.243 C 
HETATM   35  O   UNK N   1       0.911  -0.174   1.621  0.00  0.00    -0.271 OA
HETATM   36  N   UNK N   1       0.491  -2.106   0.560  0.00  0.00    -0.337 N 
HETATM   37  C   UNK N   1       0.687  -2.942   1.706  0.00  0.00     0.127 C 
HETATM   38  C   UNK N   1       0.013  -2.799  -0.609  0.00  0.00     0.179 C 
HETATM   39  C   UNK N   1       0.494  -4.362   1.184  0.00  0.00     0.022 C 
HETATM   40  C   UNK N   1       0.368  -4.249  -0.336  0.00  0.00     0.037 C 
BRANCH  38  41
HETATM   41  C   UNK N   1      -1.494  -2.643  -0.610  0.00  0.00     0.241 C 
HETATM   42  O   UNK N   1      -2.030  -1.952   0.249  0.00  0.00    -0.271 OA
HETATM   43  N   UNK N   1      -2.262  -3.310  -1.510  0.00  0.00    -0.346 N 
HETATM   44  H   UNK N   1      -1.825  -3.814  -2.234  0.00  0.00     0.163 HD
BRANCH  43  45
HETATM   45  C   UNK N   1      -3.713  -3.298  -1.430  0.00  0.00     0.172 C 
HETATM   46  C   UNK N   1      -4.256  -1.879  -1.603  0.00  0.00     0.042 C 
BRANCH  45  47
HETATM   47  C   UNK N   1      -4.155  -3.938  -0.132  0.00  0.00     0.237 C 
HETATM   48  O   UNK N   1      -4.778  -3.300   0.704  0.00  0.00    -0.271 OA
HETATM   49  N   UNK N   1      -3.821  -5.218   0.124  0.00  0.00    -0.368 N 
HETATM   50  H   UNK N   1      -4.509  -5.897   0.311  0.00  0.00     0.159 HD
HETATM   51  H   UNK N   1      -2.872  -5.479   0.124  0.00  0.00     0.159 HD
ENDBRANCH  45  47
ENDBRANCH  43  45
ENDBRANCH  38  41
ENDBRANCH  30  34
ENDBRANCH   3  30
TORSDOF 16
