MODEL 1
REMARK VINA RESULT:      -9.2      0.000      0.000
REMARK  10 active torsions:
REMARK  status: ('A' for Active; 'I' for Inactive)
REMARK    1  A    between atoms: C_25  and  C_7 
REMARK    2  A    between atoms: S_56  and  C_27 
REMARK    3  A    between atoms: C_29  and  C_31 
REMARK    4  A    between atoms: C_30  and  C_36 
REMARK    5  A    between atoms: C_31  and  O_47 
REMARK    6  A    between atoms: C_38  and  C_33 
REMARK    7  A    between atoms: O_49  and  C_33 
REMARK    8  A    between atoms: C_34  and  O_50 
REMARK    9  A    between atoms: C_38  and  N_41 
REMARK   10  A    between atoms: N_43  and  S_56 
ROOT
HETATM    1  C   UNK N   1      39.951   7.370  15.597  0.00  0.00     0.017 C 
HETATM    2  C   UNK N   1      37.715   6.459  15.231  0.00  0.00     0.017 C 
HETATM    3  C   UNK N   1      35.999   8.327  17.641  0.00  0.00     0.005 C 
HETATM    4  C   UNK N   1      37.406   8.345  18.201  0.00  0.00     0.001 C 
HETATM    5  C   UNK N   1      35.315  12.690  19.811  0.00  0.00     0.001 A 
HETATM    6  C   UNK N   1      35.044   9.106  18.531  0.00  0.00     0.039 C 
HETATM    7  C   UNK N   1      35.301  11.281  19.768  0.00  0.00     0.007 A 
HETATM    8  C   UNK N   1      35.143  13.443  18.636  0.00  0.00     0.009 A 
HETATM    9  C   UNK N   1      38.349   7.387  17.464  0.00  0.00     0.011 C 
HETATM   10  C   UNK N   1      35.833  14.177  11.417  0.00  0.00     0.068 C 
HETATM   11  C   UNK N   1      34.848  13.335  16.069  0.00  0.00     0.167 C 
HETATM   12  C   UNK N   1      35.533  11.857  11.892  0.00  0.00     0.159 C 
HETATM   13  C   UNK N   1      35.080  10.933  16.006  0.00  0.00     0.168 C 
HETATM   14  C   UNK N   1      38.095   8.953  15.449  0.00  0.00     0.188 C 
HETATM   15  C   UNK N   1      35.177  10.611  18.542  0.00  0.00    -0.050 A 
HETATM   16  C   UNK N   1      35.024  12.762  17.430  0.00  0.00    -0.032 A 
HETATM   17  C   UNK N   1      35.408  13.254  12.540  0.00  0.00     0.154 C 
HETATM   18  C   UNK N   1      35.087  11.391  17.386  0.00  0.00    -0.026 A 
HETATM   19  C   UNK N   1      36.936  13.394  10.711  0.00  0.00     0.164 C 
HETATM   20  C   UNK N   1      37.550   9.545  11.427  0.00  0.00     0.185 C 
HETATM   21  C   UNK N   1      37.650  11.008  10.889  0.00  0.00     0.244 C 
HETATM   22  C   UNK N   1      36.542   9.153  13.664  0.00  0.00     0.258 C 
HETATM   23  C   UNK N   1      36.332  12.384  14.497  0.00  0.00     0.363 C 
HETATM   24  C   UNK N   1      38.490   7.559  15.944  0.00  0.00    -0.026 C 
HETATM   25  N   UNK N   1      37.520   9.467  12.874  0.00  0.00    -0.337 N 
ATOM     26  HN  UNK N   1      38.399   9.693  13.340  1.00  0.00     0.164 HD
HETATM   27  N   UNK N   1      35.260  12.184  15.301  0.00  0.00    -0.320 N 
HETATM   28  N   UNK N   1      36.713  12.004  11.101  0.00  0.00    -0.336 N 
HETATM   29  O   UNK N   1      38.684  11.307  10.307  0.00  0.00    -0.271 OA
HETATM   30  O   UNK N   1      37.269  11.604  14.509  0.00  0.00    -0.238 OA
HETATM   31  O   UNK N   1      36.795   8.972  14.980  0.00  0.00    -0.316 OA
HETATM   32  O   UNK N   1      36.323  13.357  13.577  0.00  0.00    -0.297 OA
ENDROOT
BRANCH  19  33
HETATM   33  C   UNK N   1      36.775  13.577   9.236  0.00  0.00     0.136 C 
HETATM   34  N   UNK N   1      35.628  13.394   8.673  0.00  0.00    -0.355 N 
ATOM     35  HN  UNK N   1      34.861  13.007   9.223  1.00  0.00     0.162 HD
BRANCH  34  36
HETATM   36  C   UNK N   1      35.401  13.726   7.279  0.00  0.00     0.101 A 
HETATM   37  C   UNK N   1      34.175  12.928   6.823  0.00  0.00     0.047 A 
HETATM   38  C   UNK N   1      35.513  12.666   6.183  0.00  0.00     0.024 A 
BRANCH  38  39
HETATM   39  C   UNK N   1      36.277  11.392   6.586  0.00  0.00     0.003 C 
HETATM   40  C   UNK N   1      35.417  10.176   6.911  0.00  0.00     0.005 C 
ENDBRANCH  38  39
BRANCH  36  41
HETATM   41  C   UNK N   1      35.126  15.192   7.077  0.00  0.00     0.154 C 
HETATM   42  N   UNK N   1      34.544  15.808   8.037  0.00  0.00    -0.266 N 
ATOM     43  HN  UNK N   1      34.570  15.384   8.964  1.00  0.00     0.180 HD
BRANCH  42  44
HETATM   44  S   UNK N   1      33.713  17.322   7.853  0.00  0.00     0.236 S 
HETATM   45  O   UNK N   1      34.636  18.312   7.123  0.00  0.00    -0.205 OA
HETATM   46  O   UNK N   1      34.277  17.693   9.221  0.00  0.00    -0.205 OA
BRANCH  44  47
HETATM   47  C   UNK N   1      31.991  17.806   8.301  0.00  0.00     0.130 A 
HETATM   48  C   UNK N   1      30.909  17.253   7.368  0.00  0.00     0.023 A 
HETATM   49  C   UNK N   1      31.212  16.554   8.671  0.00  0.00     0.023 A 
ENDBRANCH  44  47
ENDBRANCH  42  44
BRANCH  41  50
HETATM   50  O   UNK N   1      35.306  15.792   5.880  0.00  0.00    -0.347 OA
HETATM   51  H   UNK N   1      36.018  16.253   5.482  0.00  0.00     0.219 HD
ENDBRANCH  41  50
ENDBRANCH  36  41
ENDBRANCH  34  36
BRANCH  33  52
HETATM   52  O   UNK N   1      37.852  13.942   8.505  0.00  0.00    -0.348 OA
HETATM   53  H   UNK N   1      38.562  13.956   7.894  0.00  0.00     0.219 HD
ENDBRANCH  33  52
ENDBRANCH  19  33
BRANCH  20  54
HETATM   54  C   UNK N   1      36.702   8.425  10.715  0.00  0.00    -0.022 C 
HETATM   55  C   UNK N   1      36.761   7.110  11.490  0.00  0.00     0.017 C 
HETATM   56  C   UNK N   1      35.257   8.824  10.499  0.00  0.00     0.017 C 
HETATM   57  C   UNK N   1      37.282   8.031   9.380  0.00  0.00     0.017 C 
ENDBRANCH  20  54
BRANCH  22  58
HETATM   58  O   UNK N   1      35.290   8.967  13.207  0.00  0.00    -0.327 OA
HETATM   59  H   UNK N   1      34.479   8.669  12.841  0.00  0.00     0.221 HD
ENDBRANCH  22  58
TORSDOF 10
ENDMDL
MODEL 2
REMARK VINA RESULT:      -8.8      9.771     14.785
REMARK  10 active torsions:
REMARK  status: ('A' for Active; 'I' for Inactive)
REMARK    1  A    between atoms: C_25  and  C_7 
REMARK    2  A    between atoms: S_56  and  C_27 
REMARK    3  A    between atoms: C_29  and  C_31 
REMARK    4  A    between atoms: C_30  and  C_36 
REMARK    5  A    between atoms: C_31  and  O_47 
REMARK    6  A    between atoms: C_38  and  C_33 
REMARK    7  A    between atoms: O_49  and  C_33 
REMARK    8  A    between atoms: C_34  and  O_50 
REMARK    9  A    between atoms: C_38  and  N_41 
REMARK   10  A    between atoms: N_43  and  S_56 
ROOT
HETATM    1  C   UNK N   1      28.343  17.578   9.433  0.00  0.00     0.017 C 
HETATM    2  C   UNK N   1      29.049  19.230   7.778  0.00  0.00     0.017 C 
HETATM    3  C   UNK N   1      31.890  17.575   6.580  0.00  0.00     0.005 C 
HETATM    4  C   UNK N   1      31.764  16.978   7.966  0.00  0.00     0.001 C 
HETATM    5  C   UNK N   1      33.950  13.330   5.180  0.00  0.00     0.001 A 
HETATM    6  C   UNK N   1      33.077  16.986   5.835  0.00  0.00     0.039 C 
HETATM    7  C   UNK N   1      33.977  14.642   5.697  0.00  0.00     0.007 A 
HETATM    8  C   UNK N   1      32.943  12.938   4.280  0.00  0.00     0.009 A 
HETATM    9  C   UNK N   1      30.725  17.702   8.831  0.00  0.00     0.011 C 
HETATM   10  C   UNK N   1      26.146  13.533   1.714  0.00  0.00     0.068 C 
HETATM   11  C   UNK N   1      30.782  13.667   3.060  0.00  0.00     0.167 C 
HETATM   12  C   UNK N   1      26.803  15.670   2.550  0.00  0.00     0.159 C 
HETATM   13  C   UNK N   1      30.724  15.817   4.159  0.00  0.00     0.168 C 
HETATM   14  C   UNK N   1      28.969  16.763   7.216  0.00  0.00     0.188 C 
HETATM   15  C   UNK N   1      32.964  15.555   5.368  0.00  0.00    -0.050 A 
HETATM   16  C   UNK N   1      31.945  13.855   3.968  0.00  0.00    -0.032 A 
HETATM   17  C   UNK N   1      27.379  14.290   2.162  0.00  0.00     0.154 C 
HETATM   18  C   UNK N   1      31.937  15.106   4.533  0.00  0.00    -0.026 A 
HETATM   19  C   UNK N   1      25.057  14.038   2.657  0.00  0.00     0.164 C 
HETATM   20  C   UNK N   1      25.589  17.232   4.941  0.00  0.00     0.185 C 
HETATM   21  C   UNK N   1      25.000  15.964   4.245  0.00  0.00     0.244 C 
HETATM   22  C   UNK N   1      28.055  17.461   5.139  0.00  0.00     0.258 C 
HETATM   23  C   UNK N   1      28.756  14.381   4.043  0.00  0.00     0.363 C 
HETATM   24  C   UNK N   1      29.296  17.813   8.281  0.00  0.00    -0.026 C 
HETATM   25  N   UNK N   1      26.899  17.013   5.519  0.00  0.00    -0.337 N 
ATOM     26  HN  UNK N   1      26.916  16.418   6.348  1.00  0.00     0.164 HD
HETATM   27  N   UNK N   1      29.960  14.752   3.546  0.00  0.00    -0.320 N 
HETATM   28  N   UNK N   1      25.564  15.311   3.164  0.00  0.00    -0.336 N 
HETATM   29  O   UNK N   1      24.007  15.468   4.760  0.00  0.00    -0.271 OA
HETATM   30  O   UNK N   1      28.383  14.789   5.130  0.00  0.00    -0.238 OA
HETATM   31  O   UNK N   1      29.127  17.271   5.940  0.00  0.00    -0.316 OA
HETATM   32  O   UNK N   1      27.896  13.678   3.295  0.00  0.00    -0.297 OA
ENDROOT
BRANCH  19  33
HETATM   33  C   UNK N   1      23.801  14.228   1.868  0.00  0.00     0.136 C 
HETATM   34  N   UNK N   1      22.649  14.008   2.406  0.00  0.00    -0.355 N 
ATOM     35  HN  UNK N   1      22.606  13.587   3.334  1.00  0.00     0.162 HD
BRANCH  34  36
HETATM   36  C   UNK N   1      21.412  14.343   1.726  0.00  0.00     0.101 A 
HETATM   37  C   UNK N   1      20.317  13.456   2.324  0.00  0.00     0.047 A 
HETATM   38  C   UNK N   1      20.675  13.316   0.867  0.00  0.00     0.024 A 
BRANCH  38  39
HETATM   39  C   UNK N   1      21.519  12.102   0.437  0.00  0.00     0.003 C 
HETATM   40  C   UNK N   1      21.191  10.785   1.132  0.00  0.00     0.005 C 
ENDBRANCH  38  39
BRANCH  36  41
HETATM   41  C   UNK N   1      21.026  15.785   1.920  0.00  0.00     0.154 C 
HETATM   42  N   UNK N   1      21.386  16.336   3.018  0.00  0.00    -0.266 N 
ATOM     43  HN  UNK N   1      22.142  15.902   3.547  1.00  0.00     0.180 HD
BRANCH  42  44
HETATM   44  S   UNK N   1      20.664  17.781   3.658  0.00  0.00     0.236 S 
HETATM   45  O   UNK N   1      20.762  17.750   5.192  0.00  0.00    -0.205 OA
HETATM   46  O   UNK N   1      19.345  17.014   3.654  0.00  0.00    -0.205 OA
BRANCH  44  47
HETATM   47  C   UNK N   1      19.950  19.246   2.796  0.00  0.00     0.130 A 
HETATM   48  C   UNK N   1      20.685  20.564   3.061  0.00  0.00     0.023 A 
HETATM   49  C   UNK N   1      20.973  19.778   1.805  0.00  0.00     0.023 A 
ENDBRANCH  44  47
ENDBRANCH  42  44
BRANCH  41  50
HETATM   50  O   UNK N   1      20.182  16.416   1.074  0.00  0.00    -0.347 OA
HETATM   51  H   UNK N   1      19.615  17.158   1.151  0.00  0.00     0.219 HD
ENDBRANCH  41  50
ENDBRANCH  36  41
ENDBRANCH  34  36
BRANCH  33  52
HETATM   52  O   UNK N   1      23.896  14.641   0.585  0.00  0.00    -0.348 OA
HETATM   53  H   UNK N   1      23.699  14.931  -0.284  0.00  0.00     0.219 HD
ENDBRANCH  33  52
ENDBRANCH  19  33
BRANCH  20  54
HETATM   54  C   UNK N   1      25.377  18.691   4.387  0.00  0.00    -0.022 C 
HETATM   55  C   UNK N   1      25.986  19.732   5.323  0.00  0.00     0.017 C 
HETATM   56  C   UNK N   1      25.928  18.879   2.988  0.00  0.00     0.017 C 
HETATM   57  C   UNK N   1      23.923  19.091   4.373  0.00  0.00     0.017 C 
ENDBRANCH  20  54
BRANCH  22  58
HETATM   58  O   UNK N   1      28.211  18.139   3.987  0.00  0.00    -0.327 OA
HETATM   59  H   UNK N   1      28.295  18.762   3.291  0.00  0.00     0.221 HD
ENDBRANCH  22  58
TORSDOF 10
ENDMDL
MODEL 3
REMARK VINA RESULT:      -8.4      2.935     10.627
REMARK  10 active torsions:
REMARK  status: ('A' for Active; 'I' for Inactive)
REMARK    1  A    between atoms: C_25  and  C_7 
REMARK    2  A    between atoms: S_56  and  C_27 
REMARK    3  A    between atoms: C_29  and  C_31 
REMARK    4  A    between atoms: C_30  and  C_36 
REMARK    5  A    between atoms: C_31  and  O_47 
REMARK    6  A    between atoms: C_38  and  C_33 
REMARK    7  A    between atoms: O_49  and  C_33 
REMARK    8  A    between atoms: C_34  and  O_50 
REMARK    9  A    between atoms: C_38  and  N_41 
REMARK   10  A    between atoms: N_43  and  S_56 
ROOT
HETATM    1  C   UNK N   1      34.048  10.531   3.682  0.00  0.00     0.017 C 
HETATM    2  C   UNK N   1      35.796  12.182   3.259  0.00  0.00     0.017 C 
HETATM    3  C   UNK N   1      33.770  15.024   3.008  0.00  0.00     0.005 C 
HETATM    4  C   UNK N   1      32.789  13.929   2.643  0.00  0.00     0.001 C 
HETATM    5  C   UNK N   1      29.938  17.568   4.760  0.00  0.00     0.001 A 
HETATM    6  C   UNK N   1      33.102  16.389   2.983  0.00  0.00     0.039 C 
HETATM    7  C   UNK N   1      30.836  17.164   3.751  0.00  0.00     0.007 A 
HETATM    8  C   UNK N   1      30.335  17.571   6.109  0.00  0.00     0.009 A 
HETATM    9  C   UNK N   1      33.468  12.571   2.434  0.00  0.00     0.011 C 
HETATM   10  C   UNK N   1      34.415  14.899  11.527  0.00  0.00     0.068 C 
HETATM   11  C   UNK N   1      32.241  17.005   7.764  0.00  0.00     0.167 C 
HETATM   12  C   UNK N   1      35.645  14.657   9.496  0.00  0.00     0.159 C 
HETATM   13  C   UNK N   1      33.655  16.089   6.035  0.00  0.00     0.168 C 
HETATM   14  C   UNK N   1      33.963  12.618   4.950  0.00  0.00     0.188 C 
HETATM   15  C   UNK N   1      32.118  16.702   4.085  0.00  0.00    -0.050 A 
HETATM   16  C   UNK N   1      31.608  17.107   6.422  0.00  0.00    -0.032 A 
HETATM   17  C   UNK N   1      34.410  15.371  10.088  0.00  0.00     0.154 C 
HETATM   18  C   UNK N   1      32.450  16.645   5.441  0.00  0.00    -0.026 A 
HETATM   19  C   UNK N   1      34.899  13.456  11.426  0.00  0.00     0.164 C 
HETATM   20  C   UNK N   1      36.517  12.024   8.103  0.00  0.00     0.185 C 
HETATM   21  C   UNK N   1      35.939  12.183   9.546  0.00  0.00     0.244 C 
HETATM   22  C   UNK N   1      35.690  13.525   6.304  0.00  0.00     0.258 C 
HETATM   23  C   UNK N   1      33.245  14.898   8.124  0.00  0.00     0.363 C 
HETATM   24  C   UNK N   1      34.318  12.017   3.588  0.00  0.00    -0.026 C 
HETATM   25  N   UNK N   1      35.611  12.481   7.069  0.00  0.00    -0.337 N 
ATOM     26  HN  UNK N   1      34.790  11.895   6.921  1.00  0.00     0.164 HD
HETATM   27  N   UNK N   1      33.284  16.063   7.434  0.00  0.00    -0.320 N 
HETATM   28  N   UNK N   1      35.584  13.383  10.137  0.00  0.00    -0.336 N 
HETATM   29  O   UNK N   1      35.706  11.150  10.159  0.00  0.00    -0.271 OA
HETATM   30  O   UNK N   1      33.318  13.830   7.540  0.00  0.00    -0.238 OA
HETATM   31  O   UNK N   1      34.815  13.655   5.281  0.00  0.00    -0.316 OA
HETATM   32  O   UNK N   1      33.266  14.896   9.463  0.00  0.00    -0.297 OA
ENDROOT
BRANCH  19  33
HETATM   33  C   UNK N   1      35.840  13.193  12.557  0.00  0.00     0.136 C 
HETATM   34  N   UNK N   1      35.395  13.036  13.759  0.00  0.00    -0.355 N 
ATOM     35  HN  UNK N   1      34.408  13.212  13.949  1.00  0.00     0.162 HD
BRANCH  34  36
HETATM   36  C   UNK N   1      36.260  12.614  14.844  0.00  0.00     0.101 A 
HETATM   37  C   UNK N   1      35.604  13.083  16.147  0.00  0.00     0.047 A 
HETATM   38  C   UNK N   1      36.949  13.634  15.752  0.00  0.00     0.024 A 
BRANCH  38  39
HETATM   39  C   UNK N   1      37.013  15.065  15.189  0.00  0.00     0.003 C 
HETATM   40  C   UNK N   1      37.489  16.140  16.161  0.00  0.00     0.005 C 
ENDBRANCH  38  39
BRANCH  36  41
HETATM   41  C   UNK N   1      36.424  11.119  14.897  0.00  0.00     0.154 C 
HETATM   42  N   UNK N   1      37.619  10.673  15.007  0.00  0.00    -0.266 N 
ATOM     43  HN  UNK N   1      38.339  11.310  15.349  1.00  0.00     0.180 HD
BRANCH  42  44
HETATM   44  S   UNK N   1      38.087   9.048  14.610  0.00  0.00     0.236 S 
HETATM   45  O   UNK N   1      37.113   8.492  13.558  0.00  0.00    -0.205 OA
HETATM   46  O   UNK N   1      37.200   8.607  15.770  0.00  0.00    -0.205 OA
BRANCH  44  47
HETATM   47  C   UNK N   1      39.527   8.044  15.174  0.00  0.00     0.130 A 
HETATM   48  C   UNK N   1      40.557   7.735  14.083  0.00  0.00     0.023 A 
HETATM   49  C   UNK N   1      40.789   8.880  15.039  0.00  0.00     0.023 A 
ENDBRANCH  44  47
ENDBRANCH  42  44
BRANCH  41  50
HETATM   50  O   UNK N   1      35.394  10.280  14.651  0.00  0.00    -0.347 OA
HETATM   51  H   UNK N   1      34.994   9.948  13.872  0.00  0.00     0.219 HD
ENDBRANCH  41  50
ENDBRANCH  36  41
ENDBRANCH  34  36
BRANCH  33  52
HETATM   52  O   UNK N   1      37.164  13.117  12.297  0.00  0.00    -0.348 OA
HETATM   53  H   UNK N   1      38.076  12.905  12.326  0.00  0.00     0.219 HD
ENDBRANCH  33  52
ENDBRANCH  19  33
BRANCH  20  54
HETATM   54  C   UNK N   1      38.037  12.250   7.759  0.00  0.00    -0.022 C 
HETATM   55  C   UNK N   1      38.312  12.002   6.278  0.00  0.00     0.017 C 
HETATM   56  C   UNK N   1      38.533  13.629   8.145  0.00  0.00     0.017 C 
HETATM   57  C   UNK N   1      38.931  11.232   8.421  0.00  0.00     0.017 C 
ENDBRANCH  20  54
BRANCH  22  58
HETATM   58  O   UNK N   1      36.639  14.463   6.476  0.00  0.00    -0.327 OA
HETATM   59  H   UNK N   1      37.301  15.124   6.411  0.00  0.00     0.221 HD
ENDBRANCH  22  58
TORSDOF 10
ENDMDL
MODEL 4
REMARK VINA RESULT:      -8.2      2.775      9.913
REMARK  10 active torsions:
REMARK  status: ('A' for Active; 'I' for Inactive)
REMARK    1  A    between atoms: C_25  and  C_7 
REMARK    2  A    between atoms: S_56  and  C_27 
REMARK    3  A    between atoms: C_29  and  C_31 
REMARK    4  A    between atoms: C_30  and  C_36 
REMARK    5  A    between atoms: C_31  and  O_47 
REMARK    6  A    between atoms: C_38  and  C_33 
REMARK    7  A    between atoms: O_49  and  C_33 
REMARK    8  A    between atoms: C_34  and  O_50 
REMARK    9  A    between atoms: C_38  and  N_41 
REMARK   10  A    between atoms: N_43  and  S_56 
ROOT
HETATM    1  C   UNK N   1      32.428   9.760   6.561  0.00  0.00     0.017 C 
HETATM    2  C   UNK N   1      34.802   9.989   6.039  0.00  0.00     0.017 C 
HETATM    3  C   UNK N   1      34.871  13.441   5.468  0.00  0.00     0.005 C 
HETATM    4  C   UNK N   1      33.420  13.123   5.177  0.00  0.00     0.001 C 
HETATM    5  C   UNK N   1      33.381  17.918   6.866  0.00  0.00     0.001 A 
HETATM    6  C   UNK N   1      35.153  14.925   5.298  0.00  0.00     0.039 C 
HETATM    7  C   UNK N   1      33.827  16.968   5.924  0.00  0.00     0.007 A 
HETATM    8  C   UNK N   1      33.744  17.807   8.220  0.00  0.00     0.009 A 
HETATM    9  C   UNK N   1      33.144  11.616   5.114  0.00  0.00     0.011 C 
HETATM   10  C   UNK N   1      35.586  13.733  13.977  0.00  0.00     0.068 C 
HETATM   11  C   UNK N   1      34.984  16.367   9.975  0.00  0.00     0.167 C 
HETATM   12  C   UNK N   1      36.361  12.619  12.013  0.00  0.00     0.159 C 
HETATM   13  C   UNK N   1      35.514  14.634   8.380  0.00  0.00     0.168 C 
HETATM   14  C   UNK N   1      33.649  11.588   7.628  0.00  0.00     0.188 C 
HETATM   15  C   UNK N   1      34.587  15.864   6.336  0.00  0.00    -0.050 A 
HETATM   16  C   UNK N   1      34.496  16.704   8.611  0.00  0.00    -0.032 A 
HETATM   17  C   UNK N   1      35.818  13.981  12.502  0.00  0.00     0.154 C 
HETATM   18  C   UNK N   1      34.863  15.743   7.701  0.00  0.00    -0.026 A 
HETATM   19  C   UNK N   1      35.107  12.286  14.024  0.00  0.00     0.164 C 
HETATM   20  C   UNK N   1      35.440   9.875  10.896  0.00  0.00     0.185 C 
HETATM   21  C   UNK N   1      35.118  10.479  12.300  0.00  0.00     0.244 C 
HETATM   22  C   UNK N   1      35.618  11.399   8.943  0.00  0.00     0.258 C 
HETATM   23  C   UNK N   1      34.539  14.122  10.556  0.00  0.00     0.363 C 
HETATM   24  C   UNK N   1      33.530  10.772   6.338  0.00  0.00    -0.026 C 
HETATM   25  N   UNK N   1      34.954  10.686   9.798  0.00  0.00    -0.337 N 
ATOM     26  HN  UNK N   1      33.942  10.698   9.680  1.00  0.00     0.164 HD
HETATM   27  N   UNK N   1      35.245  14.963   9.763  0.00  0.00    -0.320 N 
HETATM   28  N   UNK N   1      35.570  11.700  12.768  0.00  0.00    -0.336 N 
HETATM   29  O   UNK N   1      34.333   9.852  12.999  0.00  0.00    -0.271 OA
HETATM   30  O   UNK N   1      33.940  13.175  10.075  0.00  0.00    -0.238 OA
HETATM   31  O   UNK N   1      34.962  11.933   7.887  0.00  0.00    -0.316 OA
HETATM   32  O   UNK N   1      34.598  14.230  11.890  0.00  0.00    -0.297 OA
ENDROOT
BRANCH  19  33
HETATM   33  C   UNK N   1      35.739  11.616  15.202  0.00  0.00     0.136 C 
HETATM   34  N   UNK N   1      35.052  10.824  15.954  0.00  0.00    -0.355 N 
ATOM     35  HN  UNK N   1      34.044  10.753  15.810  1.00  0.00     0.162 HD
BRANCH  34  36
HETATM   36  C   UNK N   1      35.674  10.032  16.998  0.00  0.00     0.101 A 
HETATM   37  C   UNK N   1      34.568   9.642  17.983  0.00  0.00     0.047 A 
HETATM   38  C   UNK N   1      35.703  10.514  18.449  0.00  0.00     0.024 A 
BRANCH  38  39
HETATM   39  C   UNK N   1      35.436  12.019  18.640  0.00  0.00     0.003 C 
HETATM   40  C   UNK N   1      34.986  12.442  20.034  0.00  0.00     0.005 C 
ENDBRANCH  38  39
BRANCH  36  41
HETATM   41  C   UNK N   1      36.309   8.778  16.463  0.00  0.00     0.154 C 
HETATM   42  N   UNK N   1      37.430   8.433  16.976  0.00  0.00    -0.266 N 
ATOM     43  HN  UNK N   1      37.681   8.822  17.884  1.00  0.00     0.180 HD
BRANCH  42  44
HETATM   44  S   UNK N   1      38.549   7.343  16.216  0.00  0.00     0.236 S 
HETATM   45  O   UNK N   1      37.864   5.979  16.025  0.00  0.00    -0.205 OA
HETATM   46  O   UNK N   1      39.021   6.991  17.623  0.00  0.00    -0.205 OA
BRANCH  44  47
HETATM   47  C   UNK N   1      40.258   7.627  15.586  0.00  0.00     0.130 A 
HETATM   48  C   UNK N   1      40.382   7.640  14.059  0.00  0.00     0.023 A 
HETATM   49  C   UNK N   1      40.285   8.940  14.820  0.00  0.00     0.023 A 
ENDBRANCH  44  47
ENDBRANCH  42  44
BRANCH  41  50
HETATM   50  O   UNK N   1      35.826   8.145  15.370  0.00  0.00    -0.347 OA
HETATM   51  H   UNK N   1      36.091   7.391  14.883  0.00  0.00     0.219 HD
ENDBRANCH  41  50
ENDBRANCH  36  41
ENDBRANCH  34  36
BRANCH  33  52
HETATM   52  O   UNK N   1      37.045  11.853  15.460  0.00  0.00    -0.348 OA
HETATM   53  H   UNK N   1      37.847  12.160  15.835  0.00  0.00     0.219 HD
ENDBRANCH  33  52
ENDBRANCH  19  33
BRANCH  20  54
HETATM   54  C   UNK N   1      36.781   9.113  10.577  0.00  0.00    -0.022 C 
HETATM   55  C   UNK N   1      36.795   8.595   9.141  0.00  0.00     0.017 C 
HETATM   56  C   UNK N   1      38.015   9.958  10.825  0.00  0.00     0.017 C 
HETATM   57  C   UNK N   1      36.920   7.841  11.373  0.00  0.00     0.017 C 
ENDBRANCH  20  54
BRANCH  22  58
HETATM   58  O   UNK N   1      36.944  11.595   9.055  0.00  0.00    -0.327 OA
HETATM   59  H   UNK N   1      37.873  11.679   8.956  0.00  0.00     0.221 HD
ENDBRANCH  22  58
TORSDOF 10
ENDMDL
MODEL 5
REMARK VINA RESULT:      -8.0      9.582     16.631
REMARK  10 active torsions:
REMARK  status: ('A' for Active; 'I' for Inactive)
REMARK    1  A    between atoms: C_25  and  C_7 
REMARK    2  A    between atoms: S_56  and  C_27 
REMARK    3  A    between atoms: C_29  and  C_31 
REMARK    4  A    between atoms: C_30  and  C_36 
REMARK    5  A    between atoms: C_31  and  O_47 
REMARK    6  A    between atoms: C_38  and  C_33 
REMARK    7  A    between atoms: O_49  and  C_33 
REMARK    8  A    between atoms: C_34  and  O_50 
REMARK    9  A    between atoms: C_38  and  N_41 
REMARK   10  A    between atoms: N_43  and  S_56 
ROOT
HETATM    1  C   UNK N   1      19.532  15.658   0.408  0.00  0.00     0.017 C 
HETATM    2  C   UNK N   1      19.218  14.454   2.510  0.00  0.00     0.017 C 
HETATM    3  C   UNK N   1      20.211  11.275   1.434  0.00  0.00     0.005 C 
HETATM    4  C   UNK N   1      19.776  11.906   0.128  0.00  0.00     0.001 C 
HETATM    5  C   UNK N   1      23.385   8.573  -1.182  0.00  0.00     0.001 A 
HETATM    6  C   UNK N   1      20.711   9.856   1.218  0.00  0.00     0.039 C 
HETATM    7  C   UNK N   1      22.134   8.834  -0.586  0.00  0.00     0.007 A 
HETATM    8  C   UNK N   1      24.563   9.113  -0.636  0.00  0.00     0.009 A 
HETATM    9  C   UNK N   1      19.057  13.245   0.327  0.00  0.00     0.011 C 
HETATM   10  C   UNK N   1      28.011  14.348   3.084  0.00  0.00     0.068 C 
HETATM   11  C   UNK N   1      25.544  10.649   1.199  0.00  0.00     0.167 C 
HETATM   12  C   UNK N   1      25.777  14.210   3.913  0.00  0.00     0.159 C 
HETATM   13  C   UNK N   1      23.365  11.271   2.035  0.00  0.00     0.168 C 
HETATM   14  C   UNK N   1      21.317  14.152   1.127  0.00  0.00     0.188 C 
HETATM   15  C   UNK N   1      22.041   9.686   0.524  0.00  0.00    -0.050 A 
HETATM   16  C   UNK N   1      24.452   9.957   0.463  0.00  0.00    -0.032 A 
HETATM   17  C   UNK N   1      26.796  13.444   3.041  0.00  0.00     0.154 C 
HETATM   18  C   UNK N   1      23.223  10.267   0.992  0.00  0.00    -0.026 A 
HETATM   19  C   UNK N   1      27.410  15.751   3.086  0.00  0.00     0.164 C 
HETATM   20  C   UNK N   1      23.553  16.369   3.755  0.00  0.00     0.185 C 
HETATM   21  C   UNK N   1      25.072  16.553   3.441  0.00  0.00     0.244 C 
HETATM   22  C   UNK N   1      22.465  14.204   3.205  0.00  0.00     0.258 C 
HETATM   23  C   UNK N   1      25.077  12.938   1.547  0.00  0.00     0.363 C 
HETATM   24  C   UNK N   1      19.799  14.341   1.106  0.00  0.00    -0.026 C 
HETATM   25  N   UNK N   1      22.908  15.386   2.908  0.00  0.00    -0.337 N 
ATOM     26  HN  UNK N   1      22.783  15.665   1.936  1.00  0.00     0.164 HD
HETATM   27  N   UNK N   1      24.747  11.661   1.853  0.00  0.00    -0.320 N 
HETATM   28  N   UNK N   1      26.036  15.566   3.547  0.00  0.00    -0.336 N 
HETATM   29  O   UNK N   1      25.409  17.637   2.983  0.00  0.00    -0.271 OA
HETATM   30  O   UNK N   1      24.218  13.737   1.216  0.00  0.00    -0.238 OA
HETATM   31  O   UNK N   1      21.732  13.531   2.290  0.00  0.00    -0.316 OA
HETATM   32  O   UNK N   1      26.326  13.385   1.737  0.00  0.00    -0.297 OA
ENDROOT
BRANCH  19  33
HETATM   33  C   UNK N   1      28.193  16.598   4.037  0.00  0.00     0.136 C 
HETATM   34  N   UNK N   1      28.060  16.449   5.312  0.00  0.00    -0.355 N 
ATOM     35  HN  UNK N   1      27.327  15.833   5.666  1.00  0.00     0.162 HD
BRANCH  34  36
HETATM   36  C   UNK N   1      28.923  17.133   6.256  0.00  0.00     0.101 A 
HETATM   37  C   UNK N   1      28.174  17.188   7.590  0.00  0.00     0.047 A 
HETATM   38  C   UNK N   1      28.518  18.469   6.877  0.00  0.00     0.024 A 
BRANCH  38  39
HETATM   39  C   UNK N   1      27.393  19.216   6.137  0.00  0.00     0.003 C 
HETATM   40  C   UNK N   1      27.816  20.467   5.374  0.00  0.00     0.005 C 
ENDBRANCH  38  39
BRANCH  36  41
HETATM   41  C   UNK N   1      30.228  16.412   6.463  0.00  0.00     0.154 C 
HETATM   42  N   UNK N   1      31.243  17.131   6.767  0.00  0.00    -0.266 N 
ATOM     43  HN  UNK N   1      31.074  18.065   7.140  1.00  0.00     0.180 HD
BRANCH  42  44
HETATM   44  S   UNK N   1      32.889  16.609   6.581  0.00  0.00     0.236 S 
HETATM   45  O   UNK N   1      32.952  15.540   5.478  0.00  0.00    -0.205 OA
HETATM   46  O   UNK N   1      32.588  15.578   7.665  0.00  0.00    -0.205 OA
BRANCH  44  47
HETATM   47  C   UNK N   1      34.432  17.196   7.403  0.00  0.00     0.130 A 
HETATM   48  C   UNK N   1      34.293  18.528   8.146  0.00  0.00     0.023 A 
HETATM   49  C   UNK N   1      34.205  17.227   8.905  0.00  0.00     0.023 A 
ENDBRANCH  44  47
ENDBRANCH  42  44
BRANCH  41  50
HETATM   50  O   UNK N   1      30.374  15.103   6.164  0.00  0.00    -0.347 OA
HETATM   51  H   UNK N   1      30.220  14.588   5.397  0.00  0.00     0.219 HD
ENDBRANCH  41  50
ENDBRANCH  36  41
ENDBRANCH  34  36
BRANCH  33  52
HETATM   52  O   UNK N   1      29.047  17.518   3.536  0.00  0.00    -0.348 OA
HETATM   53  H   UNK N   1      29.808  17.956   3.209  0.00  0.00     0.219 HD
ENDBRANCH  33  52
ENDBRANCH  19  33
BRANCH  20  54
HETATM   54  C   UNK N   1      22.966  16.431   5.215  0.00  0.00    -0.022 C 
HETATM   55  C   UNK N   1      21.505  15.988   5.243  0.00  0.00     0.017 C 
HETATM   56  C   UNK N   1      23.765  15.615   6.210  0.00  0.00     0.017 C 
HETATM   57  C   UNK N   1      22.877  17.844   5.735  0.00  0.00     0.017 C 
ENDBRANCH  20  54
BRANCH  22  58
HETATM   58  O   UNK N   1      22.682  13.644   4.409  0.00  0.00    -0.327 OA
HETATM   59  H   UNK N   1      22.649  13.254   5.261  0.00  0.00     0.221 HD
ENDBRANCH  22  58
TORSDOF 10
ENDMDL
MODEL 6
REMARK VINA RESULT:      -7.9      2.816     10.185
REMARK  10 active torsions:
REMARK  status: ('A' for Active; 'I' for Inactive)
REMARK    1  A    between atoms: C_25  and  C_7 
REMARK    2  A    between atoms: S_56  and  C_27 
REMARK    3  A    between atoms: C_29  and  C_31 
REMARK    4  A    between atoms: C_30  and  C_36 
REMARK    5  A    between atoms: C_31  and  O_47 
REMARK    6  A    between atoms: C_38  and  C_33 
REMARK    7  A    between atoms: O_49  and  C_33 
REMARK    8  A    between atoms: C_34  and  O_50 
REMARK    9  A    between atoms: C_38  and  N_41 
REMARK   10  A    between atoms: N_43  and  S_56 
ROOT
HETATM    1  C   UNK N   1      31.850   9.458   5.350  0.00  0.00     0.017 C 
HETATM    2  C   UNK N   1      34.177   9.636   4.632  0.00  0.00     0.017 C 
HETATM    3  C   UNK N   1      34.108  12.938   3.477  0.00  0.00     0.005 C 
HETATM    4  C   UNK N   1      32.651  12.549   3.346  0.00  0.00     0.001 C 
HETATM    5  C   UNK N   1      32.584  17.563   4.189  0.00  0.00     0.001 A 
HETATM    6  C   UNK N   1      34.335  14.375   3.036  0.00  0.00     0.039 C 
HETATM    7  C   UNK N   1      32.994  16.472   3.395  0.00  0.00     0.007 A 
HETATM    8  C   UNK N   1      33.038  17.692   5.513  0.00  0.00     0.009 A 
HETATM    9  C   UNK N   1      32.416  11.050   3.561  0.00  0.00     0.011 C 
HETATM   10  C   UNK N   1      35.370  14.706  11.740  0.00  0.00     0.068 C 
HETATM   11  C   UNK N   1      34.431  16.599   7.398  0.00  0.00     0.167 C 
HETATM   12  C   UNK N   1      36.047  13.283   9.946  0.00  0.00     0.159 C 
HETATM   13  C   UNK N   1      34.905  14.626   6.090  0.00  0.00     0.168 C 
HETATM   14  C   UNK N   1      33.085  11.464   6.001  0.00  0.00     0.188 C 
HETATM   15  C   UNK N   1      33.811  15.469   3.936  0.00  0.00    -0.050 A 
HETATM   16  C   UNK N   1      33.845  16.687   6.033  0.00  0.00    -0.032 A 
HETATM   17  C   UNK N   1      35.498  14.699  10.231  0.00  0.00     0.154 C 
HETATM   18  C   UNK N   1      34.179  15.590   5.278  0.00  0.00    -0.026 A 
HETATM   19  C   UNK N   1      34.937  13.280  12.066  0.00  0.00     0.164 C 
HETATM   20  C   UNK N   1      35.135  10.371   9.381  0.00  0.00     0.185 C 
HETATM   21  C   UNK N   1      34.888  11.203  10.680  0.00  0.00     0.244 C 
HETATM   22  C   UNK N   1      35.140  11.539   7.188  0.00  0.00     0.258 C 
HETATM   23  C   UNK N   1      34.090  14.480   8.384  0.00  0.00     0.363 C 
HETATM   24  C   UNK N   1      32.905  10.436   4.881  0.00  0.00    -0.026 C 
HETATM   25  N   UNK N   1      34.555  10.973   8.197  0.00  0.00    -0.337 N 
ATOM     26  HN  UNK N   1      33.537  10.946   8.150  1.00  0.00     0.164 HD
HETATM   27  N   UNK N   1      34.719  15.184   7.412  0.00  0.00    -0.320 N 
HETATM   28  N   UNK N   1      35.335  12.494  10.900  0.00  0.00    -0.336 N 
HETATM   29  O   UNK N   1      34.170  10.692  11.529  0.00  0.00    -0.271 OA
HETATM   30  O   UNK N   1      33.489  13.454   8.115  0.00  0.00    -0.238 OA
HETATM   31  O   UNK N   1      34.401  11.872   6.106  0.00  0.00    -0.316 OA
HETATM   32  O   UNK N   1      34.234  14.818   9.672  0.00  0.00    -0.297 OA
ENDROOT
BRANCH  19  33
HETATM   33  C   UNK N   1      35.665  12.835  13.295  0.00  0.00     0.136 C 
HETATM   34  N   UNK N   1      35.116  12.007  14.119  0.00  0.00    -0.355 N 
ATOM     35  HN  UNK N   1      34.136  11.754  13.989  1.00  0.00     0.162 HD
BRANCH  34  36
HETATM   36  C   UNK N   1      35.855  11.428  15.225  0.00  0.00     0.101 A 
HETATM   37  C   UNK N   1      34.823  10.899  16.225  0.00  0.00     0.047 A 
HETATM   38  C   UNK N   1      35.755  12.008  16.636  0.00  0.00     0.024 A 
BRANCH  38  39
HETATM   39  C   UNK N   1      35.195  13.440  16.713  0.00  0.00     0.003 C 
HETATM   40  C   UNK N   1      35.313  14.128  18.069  0.00  0.00     0.005 C 
ENDBRANCH  38  39
BRANCH  36  41
HETATM   41  C   UNK N   1      36.735  10.288  14.790  0.00  0.00     0.154 C 
HETATM   42  N   UNK N   1      36.226   9.444  13.973  0.00  0.00    -0.266 N 
ATOM     43  HN  UNK N   1      35.405   9.730  13.439  1.00  0.00     0.180 HD
BRANCH  42  44
HETATM   44  S   UNK N   1      36.850   7.843  13.720  0.00  0.00     0.236 S 
HETATM   45  O   UNK N   1      35.686   6.906  13.358  0.00  0.00    -0.205 OA
HETATM   46  O   UNK N   1      36.653   7.629  15.218  0.00  0.00    -0.205 OA
BRANCH  44  47
HETATM   47  C   UNK N   1      38.584   7.217  13.738  0.00  0.00     0.130 A 
HETATM   48  C   UNK N   1      39.066   6.629  12.408  0.00  0.00     0.023 A 
HETATM   49  C   UNK N   1      39.416   8.050  12.776  0.00  0.00     0.023 A 
ENDBRANCH  44  47
ENDBRANCH  42  44
BRANCH  41  50
HETATM   50  O   UNK N   1      37.933  10.052  15.368  0.00  0.00    -0.347 OA
HETATM   51  H   UNK N   1      38.718  10.551  15.471  0.00  0.00     0.219 HD
ENDBRANCH  41  50
ENDBRANCH  36  41
ENDBRANCH  34  36
BRANCH  33  52
HETATM   52  O   UNK N   1      36.909  13.311  13.521  0.00  0.00    -0.348 OA
HETATM   53  H   UNK N   1      37.739  13.514  13.906  0.00  0.00     0.219 HD
ENDBRANCH  33  52
ENDBRANCH  19  33
BRANCH  20  54
HETATM   54  C   UNK N   1      36.474   9.590   9.104  0.00  0.00    -0.022 C 
HETATM   55  C   UNK N   1      36.721   8.521  10.167  0.00  0.00     0.017 C 
HETATM   56  C   UNK N   1      36.518   8.960   7.728  0.00  0.00     0.017 C 
HETATM   57  C   UNK N   1      37.690  10.469   9.253  0.00  0.00     0.017 C 
ENDBRANCH  20  54
BRANCH  22  58
HETATM   58  O   UNK N   1      36.465  11.774   7.173  0.00  0.00    -0.327 OA
HETATM   59  H   UNK N   1      37.401  11.759   7.117  0.00  0.00     0.221 HD
ENDBRANCH  22  58
TORSDOF 10
ENDMDL
MODEL 7
REMARK VINA RESULT:      -7.8      7.413     15.035
REMARK  10 active torsions:
REMARK  status: ('A' for Active; 'I' for Inactive)
REMARK    1  A    between atoms: C_25  and  C_7 
REMARK    2  A    between atoms: S_56  and  C_27 
REMARK    3  A    between atoms: C_29  and  C_31 
REMARK    4  A    between atoms: C_30  and  C_36 
REMARK    5  A    between atoms: C_31  and  O_47 
REMARK    6  A    between atoms: C_38  and  C_33 
REMARK    7  A    between atoms: O_49  and  C_33 
REMARK    8  A    between atoms: C_34  and  O_50 
REMARK    9  A    between atoms: C_38  and  N_41 
REMARK   10  A    between atoms: N_43  and  S_56 
ROOT
HETATM    1  C   UNK N   1      25.943  21.131   2.693  0.00  0.00     0.017 C 
HETATM    2  C   UNK N   1      25.364  20.354   4.934  0.00  0.00     0.017 C 
HETATM    3  C   UNK N   1      22.546  18.453   4.106  0.00  0.00     0.005 C 
HETATM    4  C   UNK N   1      22.587  19.435   2.955  0.00  0.00     0.001 C 
HETATM    5  C   UNK N   1      20.451  15.251   1.010  0.00  0.00     0.001 A 
HETATM    6  C   UNK N   1      21.383  17.485   3.960  0.00  0.00     0.039 C 
HETATM    7  C   UNK N   1      20.432  16.293   1.960  0.00  0.00     0.007 A 
HETATM    8  C   UNK N   1      21.492  14.305   1.009  0.00  0.00     0.009 A 
HETATM    9  C   UNK N   1      23.598  20.566   3.176  0.00  0.00     0.011 C 
HETATM   10  C   UNK N   1      28.422  12.499   2.368  0.00  0.00     0.068 C 
HETATM   11  C   UNK N   1      23.729  13.608   2.104  0.00  0.00     0.167 C 
HETATM   12  C   UNK N   1      27.778  14.171   3.945  0.00  0.00     0.159 C 
HETATM   13  C   UNK N   1      23.786  15.545   3.544  0.00  0.00     0.168 C 
HETATM   14  C   UNK N   1      25.409  18.762   2.966  0.00  0.00     0.188 C 
HETATM   15  C   UNK N   1      21.482  16.436   2.878  0.00  0.00    -0.050 A 
HETATM   16  C   UNK N   1      22.526  14.465   1.924  0.00  0.00    -0.032 A 
HETATM   17  C   UNK N   1      27.188  13.193   2.904  0.00  0.00     0.154 C 
HETATM   18  C   UNK N   1      22.539  15.525   2.797  0.00  0.00    -0.026 A 
HETATM   19  C   UNK N   1      29.474  13.603   2.356  0.00  0.00     0.164 C 
HETATM   20  C   UNK N   1      28.910  17.045   4.237  0.00  0.00     0.185 C 
HETATM   21  C   UNK N   1      29.500  15.881   3.380  0.00  0.00     0.244 C 
HETATM   22  C   UNK N   1      26.444  17.240   4.466  0.00  0.00     0.258 C 
HETATM   23  C   UNK N   1      25.720  14.873   2.219  0.00  0.00     0.363 C 
HETATM   24  C   UNK N   1      25.056  20.170   3.454  0.00  0.00    -0.026 C 
HETATM   25  N   UNK N   1      27.567  17.422   3.845  0.00  0.00    -0.337 N 
ATOM     26  HN  UNK N   1      27.494  17.901   2.948  1.00  0.00     0.164 HD
HETATM   27  N   UNK N   1      24.553  14.550   2.825  0.00  0.00    -0.320 N 
HETATM   28  N   UNK N   1      28.975  14.603   3.297  0.00  0.00    -0.336 N 
HETATM   29  O   UNK N   1      30.453  16.156   2.664  0.00  0.00    -0.271 OA
HETATM   30  O   UNK N   1      26.048  16.039   2.089  0.00  0.00    -0.238 OA
HETATM   31  O   UNK N   1      25.328  17.838   3.991  0.00  0.00    -0.316 OA
HETATM   32  O   UNK N   1      26.599  13.920   1.880  0.00  0.00    -0.297 OA
ENDROOT
BRANCH  19  33
HETATM   33  C   UNK N   1      30.773  13.023   2.817  0.00  0.00     0.136 C 
HETATM   34  N   UNK N   1      31.888  13.417   2.301  0.00  0.00    -0.355 N 
ATOM     35  HN  UNK N   1      31.869  14.038   1.492  1.00  0.00     0.162 HD
BRANCH  34  36
HETATM   36  C   UNK N   1      33.168  13.000   2.841  0.00  0.00     0.101 A 
HETATM   37  C   UNK N   1      34.246  13.492   1.869  0.00  0.00     0.047 A 
HETATM   38  C   UNK N   1      34.063  12.013   2.090  0.00  0.00     0.024 A 
BRANCH  38  39
HETATM   39  C   UNK N   1      33.353  11.195   0.996  0.00  0.00     0.003 C 
HETATM   40  C   UNK N   1      33.527  11.702  -0.431  0.00  0.00     0.005 C 
ENDBRANCH  38  39
BRANCH  36  41
HETATM   41  C   UNK N   1      33.436  13.591   4.199  0.00  0.00     0.154 C 
HETATM   42  N   UNK N   1      33.468  12.778   5.187  0.00  0.00    -0.266 N 
ATOM     43  HN  UNK N   1      33.613  11.789   4.989  1.00  0.00     0.180 HD
BRANCH  42  44
HETATM   44  S   UNK N   1      33.278  13.261   6.845  0.00  0.00     0.236 S 
HETATM   45  O   UNK N   1      32.893  12.030   7.682  0.00  0.00    -0.205 OA
HETATM   46  O   UNK N   1      31.825  13.567   6.494  0.00  0.00    -0.205 OA
BRANCH  44  47
HETATM   47  C   UNK N   1      33.550  14.895   7.654  0.00  0.00     0.130 A 
HETATM   48  C   UNK N   1      33.617  14.848   9.184  0.00  0.00     0.023 A 
HETATM   49  C   UNK N   1      34.889  14.869   8.373  0.00  0.00     0.023 A 
ENDBRANCH  44  47
ENDBRANCH  42  44
BRANCH  41  50
HETATM   50  O   UNK N   1      33.456  14.927   4.403  0.00  0.00    -0.347 OA
HETATM   51  H   UNK N   1      33.469  15.471   5.165  0.00  0.00     0.219 HD
ENDBRANCH  41  50
ENDBRANCH  36  41
ENDBRANCH  34  36
BRANCH  33  52
HETATM   52  O   UNK N   1      30.756  12.084   3.789  0.00  0.00    -0.348 OA
HETATM   53  H   UNK N   1      30.508  11.540   4.511  0.00  0.00     0.219 HD
ENDBRANCH  33  52
ENDBRANCH  19  33
BRANCH  20  54
HETATM   54  C   UNK N   1      29.187  17.201   5.780  0.00  0.00    -0.022 C 
HETATM   55  C   UNK N   1      28.588  18.496   6.322  0.00  0.00     0.017 C 
HETATM   56  C   UNK N   1      28.682  16.027   6.593  0.00  0.00     0.017 C 
HETATM   57  C   UNK N   1      30.653  17.380   6.082  0.00  0.00     0.017 C 
ENDBRANCH  20  54
BRANCH  22  58
HETATM   58  O   UNK N   1      26.363  16.503   5.589  0.00  0.00    -0.327 OA
HETATM   59  H   UNK N   1      26.435  15.884   6.290  0.00  0.00     0.221 HD
ENDBRANCH  22  58
TORSDOF 10
ENDMDL
MODEL 8
REMARK VINA RESULT:      -7.6      3.055     10.496
REMARK  10 active torsions:
REMARK  status: ('A' for Active; 'I' for Inactive)
REMARK    1  A    between atoms: C_25  and  C_7 
REMARK    2  A    between atoms: S_56  and  C_27 
REMARK    3  A    between atoms: C_29  and  C_31 
REMARK    4  A    between atoms: C_30  and  C_36 
REMARK    5  A    between atoms: C_31  and  O_47 
REMARK    6  A    between atoms: C_38  and  C_33 
REMARK    7  A    between atoms: O_49  and  C_33 
REMARK    8  A    between atoms: C_34  and  O_50 
REMARK    9  A    between atoms: C_38  and  N_41 
REMARK   10  A    between atoms: N_43  and  S_56 
ROOT
HETATM    1  C   UNK N   1      31.043  11.580   3.279  0.00  0.00     0.017 C 
HETATM    2  C   UNK N   1      32.656  13.252   2.528  0.00  0.00     0.017 C 
HETATM    3  C   UNK N   1      30.885  16.125   3.452  0.00  0.00     0.005 C 
HETATM    4  C   UNK N   1      29.760  15.124   3.292  0.00  0.00     0.001 C 
HETATM    5  C   UNK N   1      28.095  18.390   6.815  0.00  0.00     0.001 A 
HETATM    6  C   UNK N   1      30.353  17.485   3.876  0.00  0.00     0.039 C 
HETATM    7  C   UNK N   1      28.556  18.151   5.504  0.00  0.00     0.007 A 
HETATM    8  C   UNK N   1      28.932  18.156   7.920  0.00  0.00     0.009 A 
HETATM    9  C   UNK N   1      30.222  13.812   2.649  0.00  0.00     0.011 C 
HETATM   10  C   UNK N   1      34.420  14.534  11.066  0.00  0.00     0.068 C 
HETATM   11  C   UNK N   1      31.244  17.286   8.687  0.00  0.00     0.167 C 
HETATM   12  C   UNK N   1      34.852  14.625   8.720  0.00  0.00     0.159 C 
HETATM   13  C   UNK N   1      31.902  16.658   6.451  0.00  0.00     0.168 C 
HETATM   14  C   UNK N   1      31.557  13.420   4.803  0.00  0.00     0.188 C 
HETATM   15  C   UNK N   1      29.836  17.620   5.288  0.00  0.00    -0.050 A 
HETATM   16  C   UNK N   1      30.196  17.626   7.687  0.00  0.00    -0.032 A 
HETATM   17  C   UNK N   1      33.954  15.246   9.813  0.00  0.00     0.154 C 
HETATM   18  C   UNK N   1      30.611  17.326   6.413  0.00  0.00    -0.026 A 
HETATM   19  C   UNK N   1      34.730  13.122  10.578  0.00  0.00     0.164 C 
HETATM   20  C   UNK N   1      34.991  12.257   6.720  0.00  0.00     0.185 C 
HETATM   21  C   UNK N   1      34.960  12.175   8.279  0.00  0.00     0.244 C 
HETATM   22  C   UNK N   1      33.708  14.055   5.584  0.00  0.00     0.258 C 
HETATM   23  C   UNK N   1      32.150  15.133   8.338  0.00  0.00     0.363 C 
HETATM   24  C   UNK N   1      31.374  13.056   3.327  0.00  0.00    -0.026 C 
HETATM   25  N   UNK N   1      33.820  12.897   6.156  0.00  0.00    -0.337 N 
ATOM     26  HN  UNK N   1      32.957  12.358   6.218  1.00  0.00     0.164 HD
HETATM   27  N   UNK N   1      32.036  16.398   7.868  0.00  0.00    -0.320 N 
HETATM   28  N   UNK N   1      34.921  13.261   9.136  0.00  0.00    -0.336 N 
HETATM   29  O   UNK N   1      34.877  11.056   8.767  0.00  0.00    -0.271 OA
HETATM   30  O   UNK N   1      31.937  14.181   7.608  0.00  0.00    -0.238 OA
HETATM   31  O   UNK N   1      32.546  14.372   4.969  0.00  0.00    -0.316 OA
HETATM   32  O   UNK N   1      32.633  14.902   9.566  0.00  0.00    -0.297 OA
ENDROOT
BRANCH  19  33
HETATM   33  C   UNK N   1      35.982  12.655  11.250  0.00  0.00     0.136 C 
HETATM   34  N   UNK N   1      35.985  11.572  11.952  0.00  0.00    -0.355 N 
ATOM     35  HN  UNK N   1      35.100  11.102  12.144  1.00  0.00     0.162 HD
BRANCH  34  36
HETATM   36  C   UNK N   1      37.214  11.004  12.473  0.00  0.00     0.101 A 
HETATM   37  C   UNK N   1      36.833  10.145  13.682  0.00  0.00     0.047 A 
HETATM   38  C   UNK N   1      37.716  11.350  13.875  0.00  0.00     0.024 A 
BRANCH  38  39
HETATM   39  C   UNK N   1      37.096  12.617  14.493  0.00  0.00     0.003 C 
HETATM   40  C   UNK N   1      36.033  12.383  15.562  0.00  0.00     0.005 C 
ENDBRANCH  38  39
BRANCH  36  41
HETATM   41  C   UNK N   1      37.915  10.134  11.465  0.00  0.00     0.154 C 
HETATM   42  N   UNK N   1      38.690  10.724  10.633  0.00  0.00    -0.266 N 
ATOM     43  HN  UNK N   1      39.025  11.658  10.869  1.00  0.00     0.180 HD
BRANCH  42  44
HETATM   44  S   UNK N   1      39.205  10.026   9.128  0.00  0.00     0.236 S 
HETATM   45  O   UNK N   1      38.148   9.012   8.661  0.00  0.00    -0.205 OA
HETATM   46  O   UNK N   1      39.939   8.984   9.967  0.00  0.00    -0.205 OA
BRANCH  44  47
HETATM   47  C   UNK N   1      40.678  10.391   8.080  0.00  0.00     0.130 A 
HETATM   48  C   UNK N   1      40.659  11.767   7.408  0.00  0.00     0.023 A 
HETATM   49  C   UNK N   1      41.432  11.563   8.687  0.00  0.00     0.023 A 
ENDBRANCH  44  47
ENDBRANCH  42  44
BRANCH  41  50
HETATM   50  O   UNK N   1      37.607   8.828  11.314  0.00  0.00    -0.347 OA
HETATM   51  H   UNK N   1      37.862   8.162  10.706  0.00  0.00     0.219 HD
ENDBRANCH  41  50
ENDBRANCH  36  41
ENDBRANCH  34  36
BRANCH  33  52
HETATM   52  O   UNK N   1      37.109  13.386  11.104  0.00  0.00    -0.348 OA
HETATM   53  H   UNK N   1      37.720  14.093  11.025  0.00  0.00     0.219 HD
ENDBRANCH  33  52
ENDBRANCH  19  33
BRANCH  20  54
HETATM   54  C   UNK N   1      36.311  12.515   5.901  0.00  0.00    -0.022 C 
HETATM   55  C   UNK N   1      36.030  12.569   4.401  0.00  0.00     0.017 C 
HETATM   56  C   UNK N   1      37.037  13.774   6.329  0.00  0.00     0.017 C 
HETATM   57  C   UNK N   1      37.280  11.363   5.999  0.00  0.00     0.017 C 
ENDBRANCH  20  54
BRANCH  22  58
HETATM   58  O   UNK N   1      34.725  14.936   5.553  0.00  0.00    -0.327 OA
HETATM   59  H   UNK N   1      35.530  15.407   5.463  0.00  0.00     0.221 HD
ENDBRANCH  22  58
TORSDOF 10
ENDMDL
MODEL 9
REMARK VINA RESULT:      -7.5      3.889     10.367
REMARK  10 active torsions:
REMARK  status: ('A' for Active; 'I' for Inactive)
REMARK    1  A    between atoms: C_25  and  C_7 
REMARK    2  A    between atoms: S_56  and  C_27 
REMARK    3  A    between atoms: C_29  and  C_31 
REMARK    4  A    between atoms: C_30  and  C_36 
REMARK    5  A    between atoms: C_31  and  O_47 
REMARK    6  A    between atoms: C_38  and  C_33 
REMARK    7  A    between atoms: O_49  and  C_33 
REMARK    8  A    between atoms: C_34  and  O_50 
REMARK    9  A    between atoms: C_38  and  N_41 
REMARK   10  A    between atoms: N_43  and  S_56 
ROOT
HETATM    1  C   UNK N   1      33.488   8.025  10.563  0.00  0.00     0.017 C 
HETATM    2  C   UNK N   1      35.929   8.025  10.492  0.00  0.00     0.017 C 
HETATM    3  C   UNK N   1      36.407  11.266   9.263  0.00  0.00     0.005 C 
HETATM    4  C   UNK N   1      35.013  10.961   8.757  0.00  0.00     0.001 C 
HETATM    5  C   UNK N   1      35.084  16.004   9.401  0.00  0.00     0.001 A 
HETATM    6  C   UNK N   1      36.845  12.663   8.857  0.00  0.00     0.039 C 
HETATM    7  C   UNK N   1      35.611  14.853   8.780  0.00  0.00     0.007 A 
HETATM    8  C   UNK N   1      35.177  16.169  10.795  0.00  0.00     0.009 A 
HETATM    9  C   UNK N   1      34.622   9.491   8.945  0.00  0.00     0.011 C 
HETATM   10  C   UNK N   1      35.548  13.347  17.505  0.00  0.00     0.068 C 
HETATM   11  C   UNK N   1      35.937  15.084  13.016  0.00  0.00     0.167 C 
HETATM   12  C   UNK N   1      36.574  11.801  16.003  0.00  0.00     0.159 C 
HETATM   13  C   UNK N   1      36.599  13.025  11.943  0.00  0.00     0.168 C 
HETATM   14  C   UNK N   1      34.645   9.980  11.462  0.00  0.00     0.188 C 
HETATM   15  C   UNK N   1      36.181  13.829   9.550  0.00  0.00    -0.050 A 
HETATM   16  C   UNK N   1      35.742  15.142  11.542  0.00  0.00    -0.032 A 
HETATM   17  C   UNK N   1      36.072  13.260  16.087  0.00  0.00     0.154 C 
HETATM   18  C   UNK N   1      36.186  13.992  10.938  0.00  0.00    -0.026 A 
HETATM   19  C   UNK N   1      34.943  11.967  17.746  0.00  0.00     0.164 C 
HETATM   20  C   UNK N   1      35.638   8.927  15.300  0.00  0.00     0.185 C 
HETATM   21  C   UNK N   1      35.115   9.833  16.460  0.00  0.00     0.244 C 
HETATM   22  C   UNK N   1      36.310   9.986  13.155  0.00  0.00     0.258 C 
HETATM   23  C   UNK N   1      35.195  13.039  13.937  0.00  0.00     0.363 C 
HETATM   24  C   UNK N   1      34.697   8.912  10.366  0.00  0.00    -0.026 C 
HETATM   25  N   UNK N   1      35.439   9.505  13.987  0.00  0.00    -0.337 N 
ATOM     26  HN  UNK N   1      34.471   9.539  13.668  1.00  0.00     0.164 HD
HETATM   27  N   UNK N   1      36.108  13.656  13.149  0.00  0.00    -0.320 N 
HETATM   28  N   UNK N   1      35.579  11.104  16.753  0.00  0.00    -0.336 N 
HETATM   29  O   UNK N   1      34.162   9.409  17.099  0.00  0.00    -0.271 OA
HETATM   30  O   UNK N   1      34.615  12.041  13.547  0.00  0.00    -0.238 OA
HETATM   31  O   UNK N   1      35.912  10.311  11.905  0.00  0.00    -0.316 OA
HETATM   32  O   UNK N   1      35.014  13.429  15.206  0.00  0.00    -0.297 OA
ENDROOT
BRANCH  19  33
HETATM   33  C   UNK N   1      35.283  11.538  19.137  0.00  0.00     0.136 C 
HETATM   34  N   UNK N   1      35.075  10.322  19.519  0.00  0.00    -0.355 N 
ATOM     35  HN  UNK N   1      34.565   9.689  18.902  1.00  0.00     0.162 HD
BRANCH  34  36
HETATM   36  C   UNK N   1      35.547   9.833  20.800  0.00  0.00     0.101 A 
HETATM   37  C   UNK N   1      34.765   8.552  21.106  0.00  0.00     0.047 A 
HETATM   38  C   UNK N   1      34.616   9.748  22.009  0.00  0.00     0.024 A 
BRANCH  38  39
HETATM   39  C   UNK N   1      33.330  10.588  21.900  0.00  0.00     0.003 C 
HETATM   40  C   UNK N   1      32.043   9.805  21.667  0.00  0.00     0.005 C 
ENDBRANCH  38  39
BRANCH  36  41
HETATM   41  C   UNK N   1      37.017   9.509  20.781  0.00  0.00     0.154 C 
HETATM   42  N   UNK N   1      37.673   9.740  21.856  0.00  0.00    -0.266 N 
ATOM     43  HN  UNK N   1      37.149   9.834  22.726  1.00  0.00     0.180 HD
BRANCH  42  44
HETATM   44  S   UNK N   1      39.401   9.904  21.920  0.00  0.00     0.236 S 
HETATM   45  O   UNK N   1      40.032   8.912  20.928  0.00  0.00    -0.205 OA
HETATM   46  O   UNK N   1      39.365   8.871  23.043  0.00  0.00    -0.205 OA
BRANCH  44  47
HETATM   47  C   UNK N   1      40.459  11.076  22.872  0.00  0.00     0.130 A 
HETATM   48  C   UNK N   1      39.728  12.316  23.395  0.00  0.00     0.023 A 
HETATM   49  C   UNK N   1      39.957  11.135  24.306  0.00  0.00     0.023 A 
ENDBRANCH  44  47
ENDBRANCH  42  44
BRANCH  41  50
HETATM   50  O   UNK N   1      37.658   9.171  19.641  0.00  0.00    -0.347 OA
HETATM   51  H   UNK N   1      37.447   8.623  18.912  0.00  0.00     0.219 HD
ENDBRANCH  41  50
ENDBRANCH  36  41
ENDBRANCH  34  36
BRANCH  33  52
HETATM   52  O   UNK N   1      35.818  12.445  19.984  0.00  0.00    -0.348 OA
HETATM   53  H   UNK N   1      36.095  13.242  20.391  0.00  0.00     0.219 HD
ENDBRANCH  33  52
ENDBRANCH  19  33
BRANCH  20  54
HETATM   54  C   UNK N   1      36.943   8.053  15.417  0.00  0.00    -0.022 C 
HETATM   55  C   UNK N   1      37.145   7.191  14.172  0.00  0.00     0.017 C 
HETATM   56  C   UNK N   1      38.188   8.878  15.672  0.00  0.00     0.017 C 
HETATM   57  C   UNK N   1      36.841   7.015  16.506  0.00  0.00     0.017 C 
ENDBRANCH  20  54
BRANCH  22  58
HETATM   58  O   UNK N   1      37.605  10.138  13.490  0.00  0.00    -0.327 OA
HETATM   59  H   UNK N   1      38.495  10.067  13.777  0.00  0.00     0.221 HD
ENDBRANCH  22  58
TORSDOF 10
ENDMDL
