REMARK  6 active torsions:
REMARK  status: ('A' for Active; 'I' for Inactive)
REMARK    1  A    between atoms: C_6  and  C_7 
REMARK    2  A    between atoms: C_7  and  C_9 
REMARK    3  A    between atoms: C_12  and  C_16 
REMARK    4  A    between atoms: C_16  and  N_17 
REMARK    5  A    between atoms: C_18  and  N_26 
REMARK    6  A    between atoms: C_19  and  C_23 
REMARK       I    between atoms: C_23  and  N_25 
ROOT
HETATM    1  C   UNK N   1      -0.776   5.905   0.053  0.00  0.00     0.058 A 
HETATM    2  C   UNK N   1       0.424   6.468   0.580  0.00  0.00     0.050 A 
HETATM    3  C   UNK N   1       1.623   5.765   0.493  0.00  0.00     0.033 A 
HETATM    4  C   UNK N   1       1.672   4.519  -0.116  0.00  0.00    -0.035 A 
HETATM    5  C   UNK N   1       0.504   3.951  -0.628  0.00  0.00     0.033 A 
HETATM    6  C   UNK N   1      -0.719   4.613  -0.526  0.00  0.00     0.050 A 
HETATM    7 Cl   UNK N   1      -2.134   3.812  -1.196  0.00  0.00    -0.083 Cl
HETATM    8 Cl   UNK N   1       0.475   7.996   1.458  0.00  0.00    -0.083 Cl
ENDROOT
BRANCH   4   9
HETATM    9  C   UNK N   1       2.991   3.830  -0.267  0.00  0.00     0.187 C 
BRANCH   9  10
HETATM   10  N   UNK N   1       2.942   2.410   0.069  0.00  0.00    -0.254 N 
HETATM   11  C   UNK N   1       3.902   1.513  -0.178  0.00  0.00     0.148 A 
HETATM   12  C   UNK N   1       3.423   0.280   0.194  0.00  0.00     0.159 A 
HETATM   13  N   UNK N   1       2.178   0.465   0.683  0.00  0.00    -0.276 N 
HETATM   14  N   UNK N   1       1.909   1.762   0.595  0.00  0.00    -0.018 NA
ATOM     15  HN  UNK N   1       1.559  -0.258   1.050  1.00  0.00     0.184 HD
BRANCH  11  16
HETATM   16  N   UNK N   1       5.151   1.809  -0.766  0.00  0.00    -0.382 N 
HETATM   17  H   UNK N   1       5.765   1.158  -1.176  0.00  0.00     0.157 HD
HETATM   18  H   UNK N   1       5.433   2.752  -0.766  0.00  0.00     0.157 HD
ENDBRANCH  11  16
BRANCH  12  19
HETATM   19  C   UNK N   1       4.080  -1.030   0.064  0.00  0.00     0.270 C 
HETATM   20  O   UNK N   1       3.486  -2.043   0.394  0.00  0.00    -0.266 OA
HETATM   21  N   UNK N   1       5.325  -1.122  -0.445  0.00  0.00    -0.365 N 
HETATM   22  H   UNK N   1       5.721  -1.944  -0.816  0.00  0.00     0.159 HD
HETATM   23  H   UNK N   1       5.879  -0.309  -0.445  0.00  0.00     0.159 HD
ENDBRANCH  12  19
ENDBRANCH   9  10
ENDBRANCH   4   9
BRANCH   1  24
HETATM   24  C   UNK N   1      -2.071   6.649   0.121  0.00  0.00     0.195 C 
HETATM   25  O   UNK N   1      -3.099   6.051   0.409  0.00  0.00    -0.287 OA
BRANCH  24  26
HETATM   26  C   UNK N   1      -2.143   8.095  -0.203  0.00  0.00     0.015 A 
HETATM   27  C   UNK N   1      -1.129   8.696  -0.967  0.00  0.00     0.017 A 
HETATM   28  C   UNK N   1      -1.175  10.056  -1.266  0.00  0.00     0.025 A 
HETATM   29  C   UNK N   1      -2.238  10.831  -0.808  0.00  0.00     0.034 A 
HETATM   30  C   UNK N   1      -3.272  10.240  -0.074  0.00  0.00     0.025 A 
HETATM   31 Cl   UNK N   1      -2.266  12.547  -1.145  0.00  0.00    -0.084 Cl
HETATM   32  C   UNK N   1      -3.233   8.871   0.217  0.00  0.00     0.017 A 
ENDBRANCH  24  26
ENDBRANCH   1  24
TORSDOF 6
