REMARK  5 active torsions:
REMARK  status: ('A' for Active; 'I' for Inactive)
REMARK    1  A    between atoms: C_2  and  C_9 
REMARK    2  A    between atoms: C_9  and  S_10 
REMARK    3  A    between atoms: S_10  and  N_13 
REMARK    4  A    between atoms: C_16  and  O_19 
REMARK    5  A    between atoms: O_19  and  C_20 
ROOT
HETATM    1  N   UNK N   1       4.179   0.596  -0.645  0.00  0.00    -0.210 NA
HETATM    2  C   UNK N   1       3.471   1.017   0.583  0.00  0.00     0.109 C 
HETATM    3  C   UNK N   1       4.058   2.307   1.189  0.00  0.00     0.048 C 
HETATM    4  C   UNK N   1       5.582   2.226   1.407  0.00  0.00     0.133 C 
HETATM    5  C   UNK N   1       6.132   0.910   0.845  0.00  0.00     0.048 C 
HETATM    6  C   UNK N   1       5.636   0.780  -0.586  0.00  0.00     0.109 C 
ENDROOT
BRANCH   1   7
HETATM    7  S   UNK N   1       3.916  -1.134  -0.957  0.00  0.00     0.214 S 
HETATM    8  O   UNK N   1       3.130  -1.143  -2.276  0.00  0.00    -0.211 OA
HETATM    9  O   UNK N   1       2.842  -1.617   0.032  0.00  0.00    -0.211 OA
BRANCH   7  10
HETATM   10  C   UNK N   1       5.394  -2.210  -1.110  0.00  0.00     0.198 C 
BRANCH  10  11
HETATM   11  C   UNK N   1       5.670  -3.168   0.052  0.00  0.00     0.126 A 
HETATM   12  C   UNK N   1       5.786  -2.448   1.386  0.00  0.00     0.050 C 
HETATM   13  C   UNK N   1       4.699  -4.325   0.110  0.00  0.00     0.254 A 
HETATM   14  O   UNK N   1       3.503  -4.240   0.337  0.00  0.00    -0.270 OA
HETATM   15  N   UNK N   1       5.310  -5.496  -0.116  0.00  0.00    -0.277 N 
HETATM   16  C   UNK N   1       6.600  -5.220  -0.312  0.00  0.00     0.323 A 
HETATM   17  H   UNK N   1       4.890  -6.386  -0.134  0.00  0.00     0.173 HD
HETATM   18  O   UNK N   1       7.438  -6.075  -0.551  0.00  0.00    -0.247 OA
HETATM   19  N   UNK N   1       6.888  -3.909  -0.223  0.00  0.00    -0.324 N 
HETATM   20  H   UNK N   1       7.784  -3.515  -0.328  0.00  0.00     0.165 HD
ENDBRANCH  10  11
ENDBRANCH   7  10
ENDBRANCH   1   7
BRANCH   4  21
HETATM   21  O   UNK N   1       6.171   3.308   0.771  0.00  0.00    -0.330 OA
BRANCH  21  22
HETATM   22  C   UNK N   1       7.510   3.459   0.603  0.00  0.00     0.142 A 
HETATM   23  C   UNK N   1       7.987   4.506  -0.190  0.00  0.00     0.058 A 
HETATM   24  C   UNK N   1       9.357   4.606  -0.441  0.00  0.00     0.029 A 
HETATM   25  C   UNK N   1      10.231   3.662   0.100  0.00  0.00     0.049 A 
HETATM   26  C   UNK N   1       9.726   2.643   0.905  0.00  0.00     0.114 A 
HETATM   27 Cl   UNK N   1      11.945   3.744  -0.241  0.00  0.00    -0.083 Cl
HETATM   28  N   UNK N   1       8.390   2.563   1.140  0.00  0.00    -0.345 N 
ATOM     29  HN  UNK N   1       8.035   1.814   1.734  1.00  0.00     0.167 HD
ENDBRANCH  21  22
ENDBRANCH   4  21
TORSDOF 5
