REMARK  7 active torsions:
REMARK  status: ('A' for Active; 'I' for Inactive)
REMARK    1  A    between atoms: C_10  and  C_9 
REMARK    2  A    between atoms: O_31  and  C_9 
REMARK    3  A    between atoms: O_34  and  C_10 
REMARK    4  A    between atoms: C_18  and  C_14 
REMARK    5  A    between atoms: C_15  and  N_30 
REMARK    6  A    between atoms: C_16  and  O_34 
REMARK    7  A    between atoms: O_33  and  C_19 
REMARK       I    between atoms: N_23  and  C_22 
ROOT
HETATM    1  C   UNK N   1       4.521   2.411   0.314  0.00  0.00     0.070 C 
HETATM    2  C   UNK N   1       1.886   1.156   0.267  0.00  0.00     0.035 A 
HETATM    3  C   UNK N   1       4.324   0.932   0.238  0.00  0.00     0.036 A 
HETATM    4  C   UNK N   1       3.038   0.363   0.223  0.00  0.00     0.033 A 
HETATM    5  C   UNK N   1       0.619   0.569   0.230  0.00  0.00     0.045 A 
HETATM    6  C   UNK N   1       2.921  -1.045   0.122  0.00  0.00     0.138 A 
HETATM    7  C   UNK N   1       0.535  -0.837   0.132  0.00  0.00     0.260 A 
HETATM    8  C   UNK N   1       5.290  -1.221   0.071  0.00  0.00     0.677 A 
HETATM    9  N   UNK N   1       6.334  -1.954  -0.003  0.00  0.00    -0.234 N 
ATOM     10  HN  UNK N   1       7.259  -1.524  -0.003  1.00  0.00     0.174 HD
HETATM   11  N   UNK N   1       5.416   0.128   0.162  0.00  0.00    -0.195 N 
HETATM   12  N   UNK N   1       4.057  -1.791   0.048  0.00  0.00    -0.176 N 
ATOM     13  HN  UNK N   1       3.981  -2.806  -0.027  1.00  0.00     0.186 HD
HETATM   14  N   UNK N   1       1.672  -1.630   0.067  0.00  0.00    -0.293 N 
HETATM   15  O   UNK N   1      -0.562  -1.365   0.052  0.00  0.00    -0.267 OA
HETATM   16  H   UNK N   1       6.247  -2.933  -0.060  0.00  0.00     0.174 HD
HETATM   17  H   UNK N   1       6.314   0.531   0.174  0.00  0.00     0.184 HD
ENDROOT
BRANCH  14  18
HETATM   18  C   UNK N   1       1.414  -3.079  -0.173  0.00  0.00     0.095 C 
HETATM   19  C   UNK N   1       0.540  -3.694   0.927  0.00  0.00     0.028 C 
HETATM   20  C   UNK N   1      -0.113  -4.952   0.363  0.00  0.00     0.034 C 
HETATM   21  C   UNK N   1       0.942  -5.982  -0.039  0.00  0.00     0.121 C 
HETATM   22  C   UNK N   1       2.022  -5.334  -0.955  0.00  0.00     0.034 C 
HETATM   23  C   UNK N   1       2.590  -4.022  -0.396  0.00  0.00     0.028 C 
BRANCH  21  24
HETATM   24  O   UNK N   1       1.445  -6.573   1.148  0.00  0.00    -0.384 OA
BRANCH  24  25
HETATM   25  C   UNK N   1       2.657  -7.255   0.913  0.00  0.00     0.194 C 
BRANCH  25  26
HETATM   26  C   UNK N   1       2.475  -8.472   0.020  0.00  0.00     0.190 C 
BRANCH  26  27
HETATM   27  O   UNK N   1       3.210  -8.281  -1.150  0.00  0.00    -0.399 OA
HETATM   28  H   UNK N   1       3.581  -8.658  -1.964  0.00  0.00     0.209 HD
ENDBRANCH  26  27
ENDBRANCH  25  26
ENDBRANCH  24  25
ENDBRANCH  21  24
ENDBRANCH  14  18
BRANCH   5  29
HETATM   29  C   UNK N   1      -0.623   1.412   0.172  0.00  0.00    -0.005 A 
HETATM   30  C   UNK N   1      -0.565   2.791  -0.075  0.00  0.00     0.018 A 
HETATM   31  C   UNK N   1      -1.747   3.509  -0.304  0.00  0.00     0.057 A 
HETATM   32  C   UNK N   1      -2.979   2.840  -0.284  0.00  0.00     0.141 A 
HETATM   33  N   UNK N   1      -3.020   1.516   0.008  0.00  0.00    -0.346 N 
HETATM   34  C   UNK N   1      -1.890   0.809   0.230  0.00  0.00     0.102 A 
ATOM     35  HN  UNK N   1      -3.922   1.044   0.062  1.00  0.00     0.167 HD
BRANCH  32  36
HETATM   36  O   UNK N   1      -4.115   3.505  -0.585  0.00  0.00    -0.341 OA
HETATM   37  C   UNK N   1      -5.324   2.857  -0.713  0.00  0.00     0.211 C 
ENDBRANCH  32  36
ENDBRANCH   5  29
TORSDOF 7
