MODEL 1
REMARK VINA RESULT:      -5.9      0.000      0.000
REMARK  4 active torsions:
REMARK  status: ('A' for Active; 'I' for Inactive)
REMARK    1  A    between atoms: C_4  and  C_7 
REMARK    2  A    between atoms: C_7  and  C_8 
REMARK    3  A    between atoms: C_7  and  N_16 
REMARK    4  A    between atoms: C_8  and  C_9 
ROOT
HETATM    1  C   UNK N   1      28.632  18.628   7.875  0.00  0.00     0.112 C 
ENDROOT
BRANCH   1   2
HETATM    2  C   UNK N   1      27.996  19.227   6.654  0.00  0.00    -0.036 A 
HETATM    3  C   UNK N   1      27.380  20.484   6.760  0.00  0.00     0.009 A 
HETATM    4  C   UNK N   1      26.808  21.086   5.638  0.00  0.00     0.001 A 
HETATM    5  C   UNK N   1      26.846  20.437   4.402  0.00  0.00     0.000 A 
HETATM    6  C   UNK N   1      27.450  19.182   4.289  0.00  0.00     0.001 A 
HETATM    7  C   UNK N   1      28.023  18.576   5.411  0.00  0.00     0.009 A 
ENDBRANCH   1   2
BRANCH   1   8
HETATM    8  C   UNK N   1      29.260  17.299   7.485  0.00  0.00     0.086 C 
BRANCH   8   9
HETATM    9  C   UNK N   1      30.732  17.425   7.340  0.00  0.00     0.011 A 
HETATM   10  C   UNK N   1      31.326  17.105   6.117  0.00  0.00     0.025 A 
HETATM   11  C   UNK N   1      32.707  17.221   5.978  0.00  0.00     0.003 A 
HETATM   12  C   UNK N   1      33.478  17.647   7.060  0.00  0.00     0.017 A 
HETATM   13  C   UNK N   1      32.849  17.954   8.269  0.00  0.00     0.088 A 
HETATM   14  N   UNK N   1      31.497  17.840   8.385  0.00  0.00    -0.369 N 
ATOM     15  HN  UNK N   1      31.050  18.071   9.273  1.00  0.00     0.165 HD
ENDBRANCH   8   9
ENDBRANCH   1   8
BRANCH   1  16
HETATM   16  N   UNK N   1      27.677  18.425   8.956  0.00  0.00    -0.422 N 
HETATM   17  H   UNK N   1      26.730  18.108   8.750  0.00  0.00     0.150 HD
HETATM   18  H   UNK N   1      27.956  18.600   9.922  0.00  0.00     0.150 HD
ENDBRANCH   1  16
TORSDOF 4
ENDMDL
MODEL 2
REMARK VINA RESULT:      -5.8      1.477      5.392
REMARK  4 active torsions:
REMARK  status: ('A' for Active; 'I' for Inactive)
REMARK    1  A    between atoms: C_4  and  C_7 
REMARK    2  A    between atoms: C_7  and  C_8 
REMARK    3  A    between atoms: C_7  and  N_16 
REMARK    4  A    between atoms: C_8  and  C_9 
ROOT
HETATM    1  C   UNK N   1      28.080  18.309   7.708  0.00  0.00     0.112 C 
ENDROOT
BRANCH   1   2
HETATM    2  C   UNK N   1      29.515  17.895   7.550  0.00  0.00    -0.036 A 
HETATM    3  C   UNK N   1      30.431  18.230   8.559  0.00  0.00     0.009 A 
HETATM    4  C   UNK N   1      31.766  17.834   8.461  0.00  0.00     0.001 A 
HETATM    5  C   UNK N   1      32.196  17.100   7.353  0.00  0.00     0.000 A 
HETATM    6  C   UNK N   1      31.293  16.769   6.339  0.00  0.00     0.001 A 
HETATM    7  C   UNK N   1      29.955  17.165   6.435  0.00  0.00     0.009 A 
ENDBRANCH   1   2
BRANCH   1   8
HETATM    8  C   UNK N   1      27.920  19.711   7.140  0.00  0.00     0.086 C 
BRANCH   8   9
HETATM    9  C   UNK N   1      27.141  19.689   5.877  0.00  0.00     0.011 A 
HETATM   10  C   UNK N   1      27.756  20.094   4.690  0.00  0.00     0.025 A 
HETATM   11  C   UNK N   1      27.027  20.078   3.503  0.00  0.00     0.003 A 
HETATM   12  C   UNK N   1      25.694  19.665   3.516  0.00  0.00     0.017 A 
HETATM   13  C   UNK N   1      25.111  19.272   4.723  0.00  0.00     0.088 A 
HETATM   14  N   UNK N   1      25.840  19.290   5.873  0.00  0.00    -0.369 N 
ATOM     15  HN  UNK N   1      25.404  18.996   6.747  1.00  0.00     0.165 HD
ENDBRANCH   8   9
ENDBRANCH   1   8
BRANCH   1  16
HETATM   16  N   UNK N   1      27.646  18.286   9.098  0.00  0.00    -0.422 N 
HETATM   17  H   UNK N   1      28.333  18.336   9.850  0.00  0.00     0.150 HD
HETATM   18  H   UNK N   1      26.652  18.220   9.320  0.00  0.00     0.150 HD
ENDBRANCH   1  16
TORSDOF 4
ENDMDL
MODEL 3
REMARK VINA RESULT:      -5.6      1.339      5.482
REMARK  4 active torsions:
REMARK  status: ('A' for Active; 'I' for Inactive)
REMARK    1  A    between atoms: C_4  and  C_7 
REMARK    2  A    between atoms: C_7  and  C_8 
REMARK    3  A    between atoms: C_7  and  N_16 
REMARK    4  A    between atoms: C_8  and  C_9 
ROOT
HETATM    1  C   UNK N   1      29.862  16.921   5.959  0.00  0.00     0.112 C 
ENDROOT
BRANCH   1   2
HETATM    2  C   UNK N   1      31.244  17.214   6.468  0.00  0.00    -0.036 A 
HETATM    3  C   UNK N   1      32.317  17.187   5.564  0.00  0.00     0.009 A 
HETATM    4  C   UNK N   1      33.611  17.487   5.994  0.00  0.00     0.001 A 
HETATM    5  C   UNK N   1      33.843  17.813   7.332  0.00  0.00     0.000 A 
HETATM    6  C   UNK N   1      32.782  17.835   8.242  0.00  0.00     0.001 A 
HETATM    7  C   UNK N   1      31.485  17.535   7.813  0.00  0.00     0.009 A 
ENDBRANCH   1   2
BRANCH   1   8
HETATM    8  C   UNK N   1      28.857  17.476   6.957  0.00  0.00     0.086 C 
BRANCH   8   9
HETATM    9  C   UNK N   1      28.189  18.689   6.424  0.00  0.00     0.011 A 
HETATM   10  C   UNK N   1      28.245  18.951   5.053  0.00  0.00     0.025 A 
HETATM   11  C   UNK N   1      27.620  20.091   4.549  0.00  0.00     0.003 A 
HETATM   12  C   UNK N   1      26.956  20.956   5.418  0.00  0.00     0.017 A 
HETATM   13  C   UNK N   1      26.925  20.664   6.784  0.00  0.00     0.088 A 
HETATM   14  N   UNK N   1      27.536  19.543   7.258  0.00  0.00    -0.369 N 
ATOM     15  HN  UNK N   1      27.503  19.340   8.257  1.00  0.00     0.165 HD
ENDBRANCH   8   9
ENDBRANCH   1   8
BRANCH   1  16
HETATM   16  N   UNK N   1      29.632  15.496   5.765  0.00  0.00    -0.422 N 
HETATM   17  H   UNK N   1      30.389  14.830   5.914  0.00  0.00     0.150 HD
HETATM   18  H   UNK N   1      28.710  15.164   5.480  0.00  0.00     0.150 HD
ENDBRANCH   1  16
TORSDOF 4
ENDMDL
MODEL 4
REMARK VINA RESULT:      -5.6      9.100     12.513
REMARK  4 active torsions:
REMARK  status: ('A' for Active; 'I' for Inactive)
REMARK    1  A    between atoms: C_4  and  C_7 
REMARK    2  A    between atoms: C_7  and  C_8 
REMARK    3  A    between atoms: C_7  and  N_16 
REMARK    4  A    between atoms: C_8  and  C_9 
ROOT
HETATM    1  C   UNK N   1      36.214  13.807  15.064  0.00  0.00     0.112 C 
ENDROOT
BRANCH   1   2
HETATM    2  C   UNK N   1      35.870  13.013  16.292  0.00  0.00    -0.036 A 
HETATM    3  C   UNK N   1      36.060  11.623  16.273  0.00  0.00     0.009 A 
HETATM    4  C   UNK N   1      35.783  10.857  17.407  0.00  0.00     0.001 A 
HETATM    5  C   UNK N   1      35.313  11.474  18.568  0.00  0.00     0.000 A 
HETATM    6  C   UNK N   1      35.113  12.858  18.593  0.00  0.00     0.001 A 
HETATM    7  C   UNK N   1      35.390  13.627  17.459  0.00  0.00     0.009 A 
ENDBRANCH   1   2
BRANCH   1   8
HETATM    8  C   UNK N   1      36.658  12.840  13.977  0.00  0.00     0.086 C 
BRANCH   8   9
HETATM    9  C   UNK N   1      36.487  13.437  12.629  0.00  0.00     0.011 A 
HETATM   10  C   UNK N   1      35.266  14.026  12.294  0.00  0.00     0.025 A 
HETATM   11  C   UNK N   1      35.101  14.585  11.029  0.00  0.00     0.003 A 
HETATM   12  C   UNK N   1      36.152  14.542  10.113  0.00  0.00     0.017 A 
HETATM   13  C   UNK N   1      37.358  13.940  10.481  0.00  0.00     0.088 A 
HETATM   14  N   UNK N   1      37.502  13.404  11.724  0.00  0.00    -0.369 N 
ATOM     15  HN  UNK N   1      38.390  12.971  11.981  1.00  0.00     0.165 HD
ENDBRANCH   8   9
ENDBRANCH   1   8
BRANCH   1  16
HETATM   16  N   UNK N   1      37.260  14.789  15.312  0.00  0.00    -0.422 N 
HETATM   17  H   UNK N   1      38.239  14.503  15.320  0.00  0.00     0.150 HD
HETATM   18  H   UNK N   1      37.013  15.765  15.477  0.00  0.00     0.150 HD
ENDBRANCH   1  16
TORSDOF 4
ENDMDL
MODEL 5
REMARK VINA RESULT:      -5.6     11.189     13.093
REMARK  4 active torsions:
REMARK  status: ('A' for Active; 'I' for Inactive)
REMARK    1  A    between atoms: C_4  and  C_7 
REMARK    2  A    between atoms: C_7  and  C_8 
REMARK    3  A    between atoms: C_7  and  N_16 
REMARK    4  A    between atoms: C_8  and  C_9 
ROOT
HETATM    1  C   UNK N   1      26.535  23.955  -5.082  0.00  0.00     0.112 C 
ENDROOT
BRANCH   1   2
HETATM    2  C   UNK N   1      26.100  25.363  -4.794  0.00  0.00    -0.036 A 
HETATM    3  C   UNK N   1      26.524  25.972  -3.603  0.00  0.00     0.009 A 
HETATM    4  C   UNK N   1      26.166  27.291  -3.319  0.00  0.00     0.001 A 
HETATM    5  C   UNK N   1      25.380  28.011  -4.221  0.00  0.00     0.000 A 
HETATM    6  C   UNK N   1      24.946  27.410  -5.406  0.00  0.00     0.001 A 
HETATM    7  C   UNK N   1      25.303  26.089  -5.693  0.00  0.00     0.009 A 
ENDBRANCH   1   2
BRANCH   1   8
HETATM    8  C   UNK N   1      27.931  23.998  -5.685  0.00  0.00     0.086 C 
BRANCH   8   9
HETATM    9  C   UNK N   1      28.865  23.123  -4.934  0.00  0.00     0.011 A 
HETATM   10  C   UNK N   1      29.112  23.389  -3.585  0.00  0.00     0.025 A 
HETATM   11  C   UNK N   1      29.990  22.570  -2.878  0.00  0.00     0.003 A 
HETATM   12  C   UNK N   1      30.615  21.504  -3.525  0.00  0.00     0.017 A 
HETATM   13  C   UNK N   1      30.347  21.272  -4.877  0.00  0.00     0.088 A 
HETATM   14  N   UNK N   1      29.482  22.079  -5.551  0.00  0.00    -0.369 N 
ATOM     15  HN  UNK N   1      29.292  21.896  -6.536  1.00  0.00     0.165 HD
ENDBRANCH   8   9
ENDBRANCH   1   8
BRANCH   1  16
HETATM   16  N   UNK N   1      25.626  23.266  -5.987  0.00  0.00    -0.422 N 
HETATM   17  H   UNK N   1      24.654  23.113  -5.719  0.00  0.00     0.150 HD
HETATM   18  H   UNK N   1      25.962  22.937  -6.893  0.00  0.00     0.150 HD
ENDBRANCH   1  16
TORSDOF 4
ENDMDL
MODEL 6
REMARK VINA RESULT:      -5.5      2.944      4.414
REMARK  4 active torsions:
REMARK  status: ('A' for Active; 'I' for Inactive)
REMARK    1  A    between atoms: C_4  and  C_7 
REMARK    2  A    between atoms: C_7  and  C_8 
REMARK    3  A    between atoms: C_7  and  N_16 
REMARK    4  A    between atoms: C_8  and  C_9 
ROOT
HETATM    1  C   UNK N   1      32.139  17.114   7.316  0.00  0.00     0.112 C 
ENDROOT
BRANCH   1   2
HETATM    2  C   UNK N   1      30.807  17.503   7.890  0.00  0.00    -0.036 A 
HETATM    3  C   UNK N   1      29.640  17.040   7.265  0.00  0.00     0.009 A 
HETATM    4  C   UNK N   1      28.385  17.354   7.790  0.00  0.00     0.001 A 
HETATM    5  C   UNK N   1      28.288  18.134   8.944  0.00  0.00     0.000 A 
HETATM    6  C   UNK N   1      29.445  18.607   9.570  0.00  0.00     0.001 A 
HETATM    7  C   UNK N   1      30.703  18.293   9.045  0.00  0.00     0.009 A 
ENDBRANCH   1   2
BRANCH   1   8
HETATM    8  C   UNK N   1      33.221  17.904   8.035  0.00  0.00     0.086 C 
BRANCH   8   9
HETATM    9  C   UNK N   1      34.153  17.002   8.755  0.00  0.00     0.011 A 
HETATM   10  C   UNK N   1      34.557  15.812   8.145  0.00  0.00     0.025 A 
HETATM   11  C   UNK N   1      35.431  14.961   8.819  0.00  0.00     0.003 A 
HETATM   12  C   UNK N   1      35.883  15.303  10.093  0.00  0.00     0.017 A 
HETATM   13  C   UNK N   1      35.454  16.499  10.674  0.00  0.00     0.088 A 
HETATM   14  N   UNK N   1      34.604  17.321   9.998  0.00  0.00    -0.369 N 
ATOM     15  HN  UNK N   1      34.302  18.193  10.432  1.00  0.00     0.165 HD
ENDBRANCH   8   9
ENDBRANCH   1   8
BRANCH   1  16
HETATM   16  N   UNK N   1      32.218  17.358   5.882  0.00  0.00    -0.422 N 
HETATM   17  H   UNK N   1      32.946  16.912   5.326  0.00  0.00     0.150 HD
HETATM   18  H   UNK N   1      31.541  17.977   5.433  0.00  0.00     0.150 HD
ENDBRANCH   1  16
TORSDOF 4
ENDMDL
MODEL 7
REMARK VINA RESULT:      -5.5      9.672     12.810
REMARK  4 active torsions:
REMARK  status: ('A' for Active; 'I' for Inactive)
REMARK    1  A    between atoms: C_4  and  C_7 
REMARK    2  A    between atoms: C_7  and  C_8 
REMARK    3  A    between atoms: C_7  and  N_16 
REMARK    4  A    between atoms: C_8  and  C_9 
ROOT
HETATM    1  C   UNK N   1      35.610  12.257  15.217  0.00  0.00     0.112 C 
ENDROOT
BRANCH   1   2
HETATM    2  C   UNK N   1      35.533  12.221  16.716  0.00  0.00    -0.036 A 
HETATM    3  C   UNK N   1      35.236  13.406  17.407  0.00  0.00     0.009 A 
HETATM    4  C   UNK N   1      35.124  13.403  18.798  0.00  0.00     0.001 A 
HETATM    5  C   UNK N   1      35.310  12.216  19.510  0.00  0.00     0.000 A 
HETATM    6  C   UNK N   1      35.614  11.033  18.832  0.00  0.00     0.001 A 
HETATM    7  C   UNK N   1      35.727  11.033  17.438  0.00  0.00     0.009 A 
ENDBRANCH   1   2
BRANCH   1   8
HETATM    8  C   UNK N   1      36.101  13.634  14.795  0.00  0.00     0.086 C 
BRANCH   8   9
HETATM    9  C   UNK N   1      36.463  13.655  13.356  0.00  0.00     0.011 A 
HETATM   10  C   UNK N   1      35.916  14.639  12.530  0.00  0.00     0.025 A 
HETATM   11  C   UNK N   1      36.252  14.660  11.178  0.00  0.00     0.003 A 
HETATM   12  C   UNK N   1      37.121  13.697  10.667  0.00  0.00     0.017 A 
HETATM   13  C   UNK N   1      37.645  12.724  11.522  0.00  0.00     0.088 A 
HETATM   14  N   UNK N   1      37.310  12.722  12.842  0.00  0.00    -0.369 N 
ATOM     15  HN  UNK N   1      37.703  12.009  13.457  1.00  0.00     0.165 HD
ENDBRANCH   8   9
ENDBRANCH   1   8
BRANCH   1  16
HETATM   16  N   UNK N   1      34.327  11.975  14.588  0.00  0.00    -0.422 N 
HETATM   17  H   UNK N   1      34.279  11.358  13.778  0.00  0.00     0.150 HD
HETATM   18  H   UNK N   1      33.475  12.395  14.960  0.00  0.00     0.150 HD
ENDBRANCH   1  16
TORSDOF 4
ENDMDL
MODEL 8
REMARK VINA RESULT:      -5.5     14.034     16.484
REMARK  4 active torsions:
REMARK  status: ('A' for Active; 'I' for Inactive)
REMARK    1  A    between atoms: C_4  and  C_7 
REMARK    2  A    between atoms: C_7  and  C_8 
REMARK    3  A    between atoms: C_7  and  N_16 
REMARK    4  A    between atoms: C_8  and  C_9 
ROOT
HETATM    1  C   UNK N   1      35.426  10.287  20.336  0.00  0.00     0.112 C 
ENDROOT
BRANCH   1   2
HETATM    2  C   UNK N   1      35.327  11.272  19.207  0.00  0.00    -0.036 A 
HETATM    3  C   UNK N   1      35.250  12.640  19.509  0.00  0.00     0.009 A 
HETATM    4  C   UNK N   1      35.191  13.587  18.484  0.00  0.00     0.001 A 
HETATM    5  C   UNK N   1      35.206  13.173  17.151  0.00  0.00     0.000 A 
HETATM    6  C   UNK N   1      35.274  11.812  16.841  0.00  0.00     0.001 A 
HETATM    7  C   UNK N   1      35.333  10.861  17.865  0.00  0.00     0.009 A 
ENDBRANCH   1   2
BRANCH   1   8
HETATM    8  C   UNK N   1      34.094  10.264  21.071  0.00  0.00     0.086 C 
BRANCH   8   9
HETATM    9  C   UNK N   1      33.241   9.145  20.598  0.00  0.00     0.011 A 
HETATM   10  C   UNK N   1      31.861   9.208  20.802  0.00  0.00     0.025 A 
HETATM   11  C   UNK N   1      31.057   8.158  20.361  0.00  0.00     0.003 A 
HETATM   12  C   UNK N   1      31.641   7.059  19.731  0.00  0.00     0.017 A 
HETATM   13  C   UNK N   1      33.026   7.028  19.550  0.00  0.00     0.088 A 
HETATM   14  N   UNK N   1      33.795   8.066  19.982  0.00  0.00    -0.369 N 
ATOM     15  HN  UNK N   1      34.804   8.034  19.839  1.00  0.00     0.165 HD
ENDBRANCH   8   9
ENDBRANCH   1   8
BRANCH   1  16
HETATM   16  N   UNK N   1      36.498  10.613  21.265  0.00  0.00    -0.422 N 
HETATM   17  H   UNK N   1      37.415  10.178  21.163  0.00  0.00     0.150 HD
HETATM   18  H   UNK N   1      36.333  11.279  22.020  0.00  0.00     0.150 HD
ENDBRANCH   1  16
TORSDOF 4
ENDMDL
MODEL 9
REMARK VINA RESULT:      -5.4     10.987     13.826
REMARK  4 active torsions:
REMARK  status: ('A' for Active; 'I' for Inactive)
REMARK    1  A    between atoms: C_4  and  C_7 
REMARK    2  A    between atoms: C_7  and  C_8 
REMARK    3  A    between atoms: C_7  and  N_16 
REMARK    4  A    between atoms: C_8  and  C_9 
ROOT
HETATM    1  C   UNK N   1      27.890  23.874  -5.357  0.00  0.00     0.112 C 
ENDROOT
BRANCH   1   2
HETATM    2  C   UNK N   1      28.956  23.199  -4.542  0.00  0.00    -0.036 A 
HETATM    3  C   UNK N   1      29.154  23.612  -3.215  0.00  0.00     0.009 A 
HETATM    4  C   UNK N   1      30.113  22.985  -2.417  0.00  0.00     0.001 A 
HETATM    5  C   UNK N   1      30.882  21.943  -2.939  0.00  0.00     0.000 A 
HETATM    6  C   UNK N   1      30.696  21.530  -4.261  0.00  0.00     0.001 A 
HETATM    7  C   UNK N   1      29.737  22.156  -5.063  0.00  0.00     0.009 A 
ENDBRANCH   1   2
BRANCH   1   8
HETATM    8  C   UNK N   1      26.643  24.011  -4.498  0.00  0.00     0.086 C 
BRANCH   8   9
HETATM    9  C   UNK N   1      26.157  25.413  -4.481  0.00  0.00     0.011 A 
HETATM   10  C   UNK N   1      25.409  25.887  -5.561  0.00  0.00     0.025 A 
HETATM   11  C   UNK N   1      24.952  27.204  -5.550  0.00  0.00     0.003 A 
HETATM   12  C   UNK N   1      25.253  28.030  -4.468  0.00  0.00     0.017 A 
HETATM   13  C   UNK N   1      26.009  27.523  -3.407  0.00  0.00     0.088 A 
HETATM   14  N   UNK N   1      26.442  26.232  -3.433  0.00  0.00    -0.369 N 
ATOM     15  HN  UNK N   1      26.989  25.872  -2.650  1.00  0.00     0.165 HD
ENDBRANCH   8   9
ENDBRANCH   1   8
BRANCH   1  16
HETATM   16  N   UNK N   1      27.574  23.139  -6.575  0.00  0.00    -0.422 N 
HETATM   17  H   UNK N   1      27.708  22.129  -6.613  0.00  0.00     0.150 HD
HETATM   18  H   UNK N   1      27.217  23.637  -7.391  0.00  0.00     0.150 HD
ENDBRANCH   1  16
TORSDOF 4
ENDMDL
