MODEL 1
REMARK VINA RESULT:      -8.8      0.000      0.000
REMARK  5 active torsions:
REMARK  status: ('A' for Active; 'I' for Inactive)
REMARK    1  A    between atoms: C_4  and  C_28 
REMARK    2  A    between atoms: C_19  and  C_20 
REMARK    3  A    between atoms: C_19  and  O_27 
REMARK    4  A    between atoms: C_20  and  C_21 
REMARK    5  A    between atoms: C_31  and  S_34 
ROOT
HETATM    1  C   UNK N   1      28.093  16.063   6.212  0.00  0.00     0.019 C 
HETATM    2  C   UNK N   1      29.062  17.054   5.544  0.00  0.00    -0.002 C 
HETATM    3  C   UNK N   1      30.293  17.242   6.416  0.00  0.00     0.026 C 
HETATM    4  C   UNK N   1      31.046  15.914   6.583  0.00  0.00     0.049 C 
HETATM    5  C   UNK N   1      31.338  15.189   5.245  0.00  0.00    -0.060 C 
HETATM    6  C   UNK N   1      32.513  14.536   4.955  0.00  0.00    -0.048 C 
HETATM    7  C   UNK N   1      33.677  14.481   5.926  0.00  0.00     0.047 C 
HETATM    8  C   UNK N   1      35.020  14.358   5.219  0.00  0.00     0.087 C 
HETATM    9  C   UNK N   1      34.961  13.229   4.243  0.00  0.00     0.150 C 
HETATM   10  O   UNK N   1      35.889  12.441   4.151  0.00  0.00    -0.293 OA
HETATM   11  C   UNK N   1      33.774  13.088   3.387  0.00  0.00     0.057 C 
HETATM   12  C   UNK N   1      32.640  13.744   3.682  0.00  0.00    -0.048 C 
HETATM   13  C   UNK N   1      31.461  13.567   2.787  0.00  0.00     0.040 C 
HETATM   14  C   UNK N   1      30.625  14.823   2.813  0.00  0.00     0.014 C 
HETATM   15  C   UNK N   1      30.172  15.149   4.238  0.00  0.00     0.021 C 
HETATM   16  C   UNK N   1      29.480  16.513   4.192  0.00  0.00     0.005 C 
HETATM   17  C   UNK N   1      28.229  16.671   3.324  0.00  0.00     0.009 C 
HETATM   18  C   UNK N   1      27.476  17.861   3.956  0.00  0.00     0.045 C 
HETATM   19  C   UNK N   1      28.388  18.366   5.083  0.00  0.00     0.140 C 
ENDROOT
BRANCH   4  20
HETATM   20  C   UNK N   1      32.118  16.054   7.624  0.00  0.00    -0.050 A 
HETATM   21  C   UNK N   1      32.290  15.069   8.606  0.00  0.00     0.009 A 
HETATM   22  C   UNK N   1      33.283  15.203   9.576  0.00  0.00     0.024 A 
HETATM   23  C   UNK N   1      34.125  16.325   9.591  0.00  0.00     0.058 A 
HETATM   24  C   UNK N   1      33.927  17.335   8.599  0.00  0.00     0.024 A 
HETATM   25  C   UNK N   1      32.947  17.180   7.617  0.00  0.00     0.009 A 
BRANCH  23  26
HETATM   26  S   UNK N   1      35.328  16.457  10.989  0.00  0.00     0.171 S 
HETATM   27  O   UNK N   1      36.744  16.179  10.465  0.00  0.00    -0.223 OA
HETATM   28  O   UNK N   1      35.546  17.732  10.159  0.00  0.00    -0.223 OA
HETATM   29  C   UNK N   1      35.380  14.778  10.265  0.00  0.00     0.167 C 
ENDBRANCH  23  26
ENDBRANCH   4  20
BRANCH  19  30
HETATM   30  C   UNK N   1      27.680  19.280   6.133  0.00  0.00     0.370 C 
HETATM   31  F   UNK N   1      26.517  18.652   6.552  0.00  0.00    -0.193 F 
HETATM   32  F   UNK N   1      28.526  19.365   7.229  0.00  0.00    -0.193 F 
BRANCH  30  33
HETATM   33  C   UNK N   1      27.314  20.721   5.735  0.00  0.00     0.457 C 
HETATM   34  F   UNK N   1      27.135  20.843   4.372  0.00  0.00    -0.165 F 
HETATM   35  F   UNK N   1      28.279  21.612   6.166  0.00  0.00    -0.165 F 
HETATM   36  F   UNK N   1      26.111  21.054   6.333  0.00  0.00    -0.165 F 
ENDBRANCH  30  33
ENDBRANCH  19  30
BRANCH  19  37
HETATM   37  O   UNK N   1      29.366  19.174   4.477  0.00  0.00    -0.383 OA
HETATM   38  H   UNK N   1      30.148  19.717   4.292  0.00  0.00     0.210 HD
ENDBRANCH  19  37
TORSDOF 5
ENDMDL
MODEL 2
REMARK VINA RESULT:      -8.4     12.294     15.276
REMARK  5 active torsions:
REMARK  status: ('A' for Active; 'I' for Inactive)
REMARK    1  A    between atoms: C_4  and  C_28 
REMARK    2  A    between atoms: C_19  and  C_20 
REMARK    3  A    between atoms: C_19  and  O_27 
REMARK    4  A    between atoms: C_20  and  C_21 
REMARK    5  A    between atoms: C_31  and  S_34 
ROOT
HETATM    1  C   UNK N   1      32.725  22.246  -6.912  0.00  0.00     0.019 C 
HETATM    2  C   UNK N   1      31.933  21.500  -5.825  0.00  0.00    -0.002 C 
HETATM    3  C   UNK N   1      31.010  22.468  -5.101  0.00  0.00     0.026 C 
HETATM    4  C   UNK N   1      29.987  23.073  -6.074  0.00  0.00     0.049 C 
HETATM    5  C   UNK N   1      29.236  22.018  -6.926  0.00  0.00    -0.060 C 
HETATM    6  C   UNK N   1      27.896  22.077  -7.232  0.00  0.00    -0.048 C 
HETATM    7  C   UNK N   1      26.995  23.191  -6.735  0.00  0.00     0.047 C 
HETATM    8  C   UNK N   1      25.548  22.744  -6.578  0.00  0.00     0.087 C 
HETATM    9  C   UNK N   1      25.097  22.085  -7.841  0.00  0.00     0.150 C 
HETATM   10  O   UNK N   1      23.997  22.331  -8.309  0.00  0.00    -0.293 OA
HETATM   11  C   UNK N   1      25.994  21.126  -8.504  0.00  0.00     0.057 C 
HETATM   12  C   UNK N   1      27.296  21.077  -8.181  0.00  0.00    -0.048 C 
HETATM   13  C   UNK N   1      28.167  20.092  -8.884  0.00  0.00     0.040 C 
HETATM   14  C   UNK N   1      29.290  19.678  -7.964  0.00  0.00     0.014 C 
HETATM   15  C   UNK N   1      30.107  20.893  -7.518  0.00  0.00     0.021 C 
HETATM   16  C   UNK N   1      31.108  20.404  -6.468  0.00  0.00     0.005 C 
HETATM   17  C   UNK N   1      32.140  19.350  -6.876  0.00  0.00     0.009 C 
HETATM   18  C   UNK N   1      33.297  19.545  -5.872  0.00  0.00     0.045 C 
HETATM   19  C   UNK N   1      32.813  20.630  -4.900  0.00  0.00     0.140 C 
ENDROOT
BRANCH   4  20
HETATM   20  C   UNK N   1      29.239  24.191  -5.411  0.00  0.00    -0.050 A 
HETATM   21  C   UNK N   1      28.571  23.979  -4.197  0.00  0.00     0.009 A 
HETATM   22  C   UNK N   1      27.871  25.019  -3.584  0.00  0.00     0.024 A 
HETATM   23  C   UNK N   1      27.817  26.292  -4.170  0.00  0.00     0.058 A 
HETATM   24  C   UNK N   1      28.483  26.491  -5.420  0.00  0.00     0.024 A 
HETATM   25  C   UNK N   1      29.202  25.452  -6.013  0.00  0.00     0.009 A 
BRANCH  23  26
HETATM   26  S   UNK N   1      26.766  27.561  -3.333  0.00  0.00     0.171 S 
HETATM   27  O   UNK N   1      25.389  27.604  -4.010  0.00  0.00    -0.223 OA
HETATM   28  O   UNK N   1      26.208  26.210  -2.858  0.00  0.00    -0.223 OA
HETATM   29  C   UNK N   1      26.981  27.983  -5.099  0.00  0.00     0.167 C 
ENDBRANCH  23  26
ENDBRANCH   4  20
BRANCH  19  30
HETATM   30  C   UNK N   1      33.945  21.301  -4.058  0.00  0.00     0.370 C 
HETATM   31  F   UNK N   1      33.781  22.676  -4.114  0.00  0.00    -0.193 F 
HETATM   32  F   UNK N   1      33.751  20.911  -2.741  0.00  0.00    -0.193 F 
BRANCH  30  33
HETATM   33  C   UNK N   1      35.411  20.991  -4.408  0.00  0.00     0.457 C 
HETATM   34  F   UNK N   1      36.283  21.560  -3.501  0.00  0.00    -0.165 F 
HETATM   35  F   UNK N   1      35.715  21.419  -5.687  0.00  0.00    -0.165 F 
HETATM   36  F   UNK N   1      35.601  19.622  -4.347  0.00  0.00    -0.165 F 
ENDBRANCH  30  33
ENDBRANCH  19  30
BRANCH  19  37
HETATM   37  O   UNK N   1      31.976  19.992  -3.969  0.00  0.00    -0.383 OA
HETATM   38  H   UNK N   1      31.252  19.515  -3.533  0.00  0.00     0.210 HD
ENDBRANCH  19  37
TORSDOF 5
ENDMDL
MODEL 3
REMARK VINA RESULT:      -8.4     11.752     14.221
REMARK  5 active torsions:
REMARK  status: ('A' for Active; 'I' for Inactive)
REMARK    1  A    between atoms: C_4  and  C_28 
REMARK    2  A    between atoms: C_19  and  C_20 
REMARK    3  A    between atoms: C_19  and  O_27 
REMARK    4  A    between atoms: C_20  and  C_21 
REMARK    5  A    between atoms: C_31  and  S_34 
ROOT
HETATM    1  C   UNK N   1      26.596  24.761  -3.968  0.00  0.00     0.019 C 
HETATM    2  C   UNK N   1      27.440  25.309  -5.132  0.00  0.00    -0.002 C 
HETATM    3  C   UNK N   1      28.874  24.819  -5.008  0.00  0.00     0.026 C 
HETATM    4  C   UNK N   1      28.932  23.286  -5.087  0.00  0.00     0.049 C 
HETATM    5  C   UNK N   1      28.177  22.695  -6.305  0.00  0.00    -0.060 C 
HETATM    6  C   UNK N   1      28.630  21.640  -7.062  0.00  0.00    -0.048 C 
HETATM    7  C   UNK N   1      29.953  20.950  -6.792  0.00  0.00     0.047 C 
HETATM    8  C   UNK N   1      30.565  20.350  -8.050  0.00  0.00     0.087 C 
HETATM    9  C   UNK N   1      29.544  19.503  -8.738  0.00  0.00     0.150 C 
HETATM   10  O   UNK N   1      29.847  18.410  -9.187  0.00  0.00    -0.293 OA
HETATM   11  C   UNK N   1      28.172  20.014  -8.876  0.00  0.00     0.057 C 
HETATM   12  C   UNK N   1      27.754  21.053  -8.136  0.00  0.00    -0.048 C 
HETATM   13  C   UNK N   1      26.353  21.533  -8.307  0.00  0.00     0.040 C 
HETATM   14  C   UNK N   1      26.295  23.011  -8.012  0.00  0.00     0.014 C 
HETATM   15  C   UNK N   1      26.792  23.306  -6.595  0.00  0.00     0.021 C 
HETATM   16  C   UNK N   1      26.856  24.828  -6.444  0.00  0.00     0.005 C 
HETATM   17  C   UNK N   1      25.563  25.633  -6.595  0.00  0.00     0.009 C 
HETATM   18  C   UNK N   1      25.833  26.934  -5.811  0.00  0.00     0.045 C 
HETATM   19  C   UNK N   1      27.292  26.832  -5.343  0.00  0.00     0.140 C 
ENDROOT
BRANCH   4  20
HETATM   20  C   UNK N   1      30.307  22.801  -4.733  0.00  0.00    -0.050 A 
HETATM   21  C   UNK N   1      31.437  23.343  -5.359  0.00  0.00     0.009 A 
HETATM   22  C   UNK N   1      32.714  22.887  -5.032  0.00  0.00     0.024 A 
HETATM   23  C   UNK N   1      32.893  21.876  -4.076  0.00  0.00     0.058 A 
HETATM   24  C   UNK N   1      31.732  21.313  -3.460  0.00  0.00     0.024 A 
HETATM   25  C   UNK N   1      30.459  21.794  -3.775  0.00  0.00     0.009 A 
BRANCH  23  26
HETATM   26  S   UNK N   1      34.617  21.267  -3.806  0.00  0.00     0.171 S 
HETATM   27  O   UNK N   1      35.072  20.473  -5.038  0.00  0.00    -0.223 OA
HETATM   28  O   UNK N   1      34.758  22.420  -4.812  0.00  0.00    -0.223 OA
HETATM   29  C   UNK N   1      33.481  19.857  -4.062  0.00  0.00     0.167 C 
ENDBRANCH  23  26
ENDBRANCH   4  20
BRANCH  19  30
HETATM   30  C   UNK N   1      27.676  27.812  -4.189  0.00  0.00     0.370 C 
HETATM   31  F   UNK N   1      28.522  27.151  -3.312  0.00  0.00    -0.193 F 
HETATM   32  F   UNK N   1      28.397  28.848  -4.765  0.00  0.00    -0.193 F 
BRANCH  30  33
HETATM   33  C   UNK N   1      26.552  28.455  -3.358  0.00  0.00     0.457 C 
HETATM   34  F   UNK N   1      25.614  27.523  -2.962  0.00  0.00    -0.165 F 
HETATM   35  F   UNK N   1      25.938  29.473  -4.062  0.00  0.00    -0.165 F 
HETATM   36  F   UNK N   1      27.103  28.989  -2.206  0.00  0.00    -0.165 F 
ENDBRANCH  30  33
ENDBRANCH  19  30
BRANCH  19  37
HETATM   37  O   UNK N   1      28.091  27.204  -6.438  0.00  0.00    -0.383 OA
HETATM   38  H   UNK N   1      28.430  27.403  -7.325  0.00  0.00     0.210 HD
ENDBRANCH  19  37
TORSDOF 5
ENDMDL
MODEL 4
REMARK VINA RESULT:      -8.2      3.392      5.512
REMARK  5 active torsions:
REMARK  status: ('A' for Active; 'I' for Inactive)
REMARK    1  A    between atoms: C_4  and  C_28 
REMARK    2  A    between atoms: C_19  and  C_20 
REMARK    3  A    between atoms: C_19  and  O_27 
REMARK    4  A    between atoms: C_20  and  C_21 
REMARK    5  A    between atoms: C_31  and  S_34 
ROOT
HETATM    1  C   UNK N   1      32.263  14.350   7.245  0.00  0.00     0.019 C 
HETATM    2  C   UNK N   1      33.144  15.496   7.771  0.00  0.00    -0.002 C 
HETATM    3  C   UNK N   1      33.632  15.173   9.174  0.00  0.00     0.026 C 
HETATM    4  C   UNK N   1      34.494  13.902   9.168  0.00  0.00     0.049 C 
HETATM    5  C   UNK N   1      35.624  13.918   8.107  0.00  0.00    -0.060 C 
HETATM    6  C   UNK N   1      36.896  13.440   8.318  0.00  0.00    -0.048 C 
HETATM    7  C   UNK N   1      37.339  12.860   9.647  0.00  0.00     0.047 C 
HETATM    8  C   UNK N   1      38.830  13.040   9.894  0.00  0.00     0.087 C 
HETATM    9  C   UNK N   1      39.589  12.543   8.707  0.00  0.00     0.150 C 
HETATM   10  O   UNK N   1      40.590  11.862   8.853  0.00  0.00    -0.293 OA
HETATM   11  C   UNK N   1      39.117  12.899   7.360  0.00  0.00     0.057 C 
HETATM   12  C   UNK N   1      37.875  13.375   7.178  0.00  0.00    -0.048 C 
HETATM   13  C   UNK N   1      37.439  13.717   5.793  0.00  0.00     0.040 C 
HETATM   14  C   UNK N   1      36.426  14.834   5.854  0.00  0.00     0.014 C 
HETATM   15  C   UNK N   1      35.222  14.435   6.711  0.00  0.00     0.021 C 
HETATM   16  C   UNK N   1      34.336  15.674   6.852  0.00  0.00     0.005 C 
HETATM   17  C   UNK N   1      33.742  16.297   5.586  0.00  0.00     0.009 C 
HETATM   18  C   UNK N   1      32.493  17.053   6.086  0.00  0.00     0.045 C 
HETATM   19  C   UNK N   1      32.505  16.894   7.613  0.00  0.00     0.140 C 
ENDROOT
BRANCH   4  20
HETATM   20  C   UNK N   1      34.776  13.460  10.574  0.00  0.00    -0.050 A 
HETATM   21  C   UNK N   1      34.617  12.118  10.945  0.00  0.00     0.009 A 
HETATM   22  C   UNK N   1      34.874  11.710  12.254  0.00  0.00     0.024 A 
HETATM   23  C   UNK N   1      35.291  12.633  13.225  0.00  0.00     0.058 A 
HETATM   24  C   UNK N   1      35.428  14.004  12.842  0.00  0.00     0.024 A 
HETATM   25  C   UNK N   1      35.194  14.398  11.524  0.00  0.00     0.009 A 
BRANCH  23  26
HETATM   26  S   UNK N   1      35.490  12.006  14.952  0.00  0.00     0.171 S 
HETATM   27  O   UNK N   1      36.313  13.016  15.765  0.00  0.00    -0.223 OA
HETATM   28  O   UNK N   1      34.461  13.143  15.060  0.00  0.00    -0.223 OA
HETATM   29  C   UNK N   1      37.126  12.218  14.164  0.00  0.00     0.167 C 
ENDBRANCH  23  26
ENDBRANCH   4  20
BRANCH  19  30
HETATM   30  C   UNK N   1      31.142  17.202   8.311  0.00  0.00     0.370 C 
HETATM   31  F   UNK N   1      30.993  16.343   9.388  0.00  0.00    -0.193 F 
HETATM   32  F   UNK N   1      31.231  18.492   8.814  0.00  0.00    -0.193 F 
BRANCH  30  33
HETATM   33  C   UNK N   1      29.851  17.133   7.477  0.00  0.00     0.457 C 
HETATM   34  F   UNK N   1      29.792  15.977   6.724  0.00  0.00    -0.165 F 
HETATM   35  F   UNK N   1      29.733  18.239   6.656  0.00  0.00    -0.165 F 
HETATM   36  F   UNK N   1      28.768  17.110   8.339  0.00  0.00    -0.165 F 
ENDBRANCH  30  33
ENDBRANCH  19  30
BRANCH  19  37
HETATM   37  O   UNK N   1      33.409  17.850   8.109  0.00  0.00    -0.383 OA
HETATM   38  H   UNK N   1      34.102  18.522   8.205  0.00  0.00     0.210 HD
ENDBRANCH  19  37
TORSDOF 5
ENDMDL
MODEL 5
REMARK VINA RESULT:      -8.1      4.328      7.140
REMARK  5 active torsions:
REMARK  status: ('A' for Active; 'I' for Inactive)
REMARK    1  A    between atoms: C_4  and  C_28 
REMARK    2  A    between atoms: C_19  and  C_20 
REMARK    3  A    between atoms: C_19  and  O_27 
REMARK    4  A    between atoms: C_20  and  C_21 
REMARK    5  A    between atoms: C_31  and  S_34 
ROOT
HETATM    1  C   UNK N   1      28.299  14.551   1.547  0.00  0.00     0.019 C 
HETATM    2  C   UNK N   1      27.731  14.236   2.942  0.00  0.00    -0.002 C 
HETATM    3  C   UNK N   1      28.729  14.649   4.012  0.00  0.00     0.026 C 
HETATM    4  C   UNK N   1      28.988  16.162   3.958  0.00  0.00     0.049 C 
HETATM    5  C   UNK N   1      27.696  17.017   3.952  0.00  0.00    -0.060 C 
HETATM    6  C   UNK N   1      27.539  18.195   4.645  0.00  0.00    -0.048 C 
HETATM    7  C   UNK N   1      28.630  18.774   5.524  0.00  0.00     0.047 C 
HETATM    8  C   UNK N   1      28.074  19.609   6.669  0.00  0.00     0.087 C 
HETATM    9  C   UNK N   1      27.107  20.609   6.125  0.00  0.00     0.150 C 
HETATM   10  O   UNK N   1      27.123  21.763   6.520  0.00  0.00    -0.293 OA
HETATM   11  C   UNK N   1      26.129  20.178   5.115  0.00  0.00     0.057 C 
HETATM   12  C   UNK N   1      26.294  19.018   4.459  0.00  0.00    -0.048 C 
HETATM   13  C   UNK N   1      25.279  18.625   3.440  0.00  0.00     0.040 C 
HETATM   14  C   UNK N   1      25.204  17.119   3.371  0.00  0.00     0.014 C 
HETATM   15  C   UNK N   1      26.569  16.519   3.025  0.00  0.00     0.021 C 
HETATM   16  C   UNK N   1      26.437  14.998   3.140  0.00  0.00     0.005 C 
HETATM   17  C   UNK N   1      25.437  14.280   2.230  0.00  0.00     0.009 C 
HETATM   18  C   UNK N   1      25.974  12.836   2.144  0.00  0.00     0.045 C 
HETATM   19  C   UNK N   1      27.189  12.797   3.082  0.00  0.00     0.140 C 
ENDROOT
BRANCH   4  20
HETATM   20  C   UNK N   1      30.137  16.523   4.853  0.00  0.00    -0.050 A 
HETATM   21  C   UNK N   1      31.238  17.230   4.349  0.00  0.00     0.009 A 
HETATM   22  C   UNK N   1      32.307  17.561   5.180  0.00  0.00     0.024 A 
HETATM   23  C   UNK N   1      32.306  17.190   6.533  0.00  0.00     0.058 A 
HETATM   24  C   UNK N   1      31.190  16.449   7.032  0.00  0.00     0.024 A 
HETATM   25  C   UNK N   1      30.112  16.145   6.199  0.00  0.00     0.009 A 
BRANCH  23  26
HETATM   26  S   UNK N   1      33.825  17.577   7.514  0.00  0.00     0.171 S 
HETATM   27  O   UNK N   1      34.888  16.502   7.244  0.00  0.00    -0.223 OA
HETATM   28  O   UNK N   1      34.187  17.937   6.064  0.00  0.00    -0.223 OA
HETATM   29  C   UNK N   1      33.160  15.942   7.995  0.00  0.00     0.167 C 
ENDBRANCH  23  26
ENDBRANCH   4  20
BRANCH  19  30
HETATM   30  C   UNK N   1      28.149  11.585   2.854  0.00  0.00     0.370 C 
HETATM   31  F   UNK N   1      29.456  12.034   2.948  0.00  0.00    -0.193 F 
HETATM   32  F   UNK N   1      27.935  10.700   3.901  0.00  0.00    -0.193 F 
BRANCH  30  33
HETATM   33  C   UNK N   1      28.026  10.777   1.550  0.00  0.00     0.457 C 
HETATM   34  F   UNK N   1      28.184  11.578   0.437  0.00  0.00    -0.165 F 
HETATM   35  F   UNK N   1      26.811  10.119   1.490  0.00  0.00    -0.165 F 
HETATM   36  F   UNK N   1      29.037   9.833   1.517  0.00  0.00    -0.165 F 
ENDBRANCH  30  33
ENDBRANCH  19  30
BRANCH  19  37
HETATM   37  O   UNK N   1      26.685  12.640   4.385  0.00  0.00    -0.383 OA
HETATM   38  H   UNK N   1      26.294  12.785   5.261  0.00  0.00     0.210 HD
ENDBRANCH  19  37
TORSDOF 5
ENDMDL
MODEL 6
REMARK VINA RESULT:      -8.1      5.751      9.920
REMARK  5 active torsions:
REMARK  status: ('A' for Active; 'I' for Inactive)
REMARK    1  A    between atoms: C_4  and  C_28 
REMARK    2  A    between atoms: C_19  and  C_20 
REMARK    3  A    between atoms: C_19  and  O_27 
REMARK    4  A    between atoms: C_20  and  C_21 
REMARK    5  A    between atoms: C_31  and  S_34 
ROOT
HETATM    1  C   UNK N   1      27.147  18.307   6.438  0.00  0.00     0.019 C 
HETATM    2  C   UNK N   1      27.125  17.678   5.034  0.00  0.00    -0.002 C 
HETATM    3  C   UNK N   1      26.110  16.547   4.989  0.00  0.00     0.026 C 
HETATM    4  C   UNK N   1      24.696  17.076   5.273  0.00  0.00     0.049 C 
HETATM    5  C   UNK N   1      24.301  18.299   4.407  0.00  0.00    -0.060 C 
HETATM    6  C   UNK N   1      23.056  18.490   3.853  0.00  0.00    -0.048 C 
HETATM    7  C   UNK N   1      21.929  17.490   4.017  0.00  0.00     0.047 C 
HETATM    8  C   UNK N   1      20.955  17.513   2.847  0.00  0.00     0.087 C 
HETATM    9  C   UNK N   1      20.517  18.919   2.598  0.00  0.00     0.150 C 
HETATM   10  O   UNK N   1      19.345  19.172   2.376  0.00  0.00    -0.293 OA
HETATM   11  C   UNK N   1      21.523  19.992   2.613  0.00  0.00     0.057 C 
HETATM   12  C   UNK N   1      22.737  19.780   3.147  0.00  0.00    -0.048 C 
HETATM   13  C   UNK N   1      23.722  20.899   3.144  0.00  0.00     0.040 C 
HETATM   14  C   UNK N   1      25.118  20.330   3.078  0.00  0.00     0.014 C 
HETATM   15  C   UNK N   1      25.381  19.388   4.255  0.00  0.00     0.021 C 
HETATM   16  C   UNK N   1      26.745  18.736   4.018  0.00  0.00     0.005 C 
HETATM   17  C   UNK N   1      27.981  19.634   3.935  0.00  0.00     0.009 C 
HETATM   18  C   UNK N   1      29.153  18.703   4.312  0.00  0.00     0.045 C 
HETATM   19  C   UNK N   1      28.525  17.314   4.494  0.00  0.00     0.140 C 
ENDROOT
BRANCH   4  20
HETATM   20  C   UNK N   1      23.742  15.932   5.457  0.00  0.00    -0.050 A 
HETATM   21  C   UNK N   1      22.858  15.909   6.544  0.00  0.00     0.009 A 
HETATM   22  C   UNK N   1      21.976  14.843   6.717  0.00  0.00     0.024 A 
HETATM   23  C   UNK N   1      21.958  13.772   5.811  0.00  0.00     0.058 A 
HETATM   24  C   UNK N   1      22.880  13.794   4.718  0.00  0.00     0.024 A 
HETATM   25  C   UNK N   1      23.741  14.878   4.538  0.00  0.00     0.009 A 
BRANCH  23  26
HETATM   26  S   UNK N   1      20.833  12.359   6.200  0.00  0.00     0.171 S 
HETATM   27  O   UNK N   1      20.925  12.036   7.698  0.00  0.00    -0.223 OA
HETATM   28  O   UNK N   1      20.123  13.597   6.769  0.00  0.00    -0.223 OA
HETATM   29  C   UNK N   1      22.560  11.924   6.614  0.00  0.00     0.167 C 
ENDBRANCH  23  26
ENDBRANCH   4  20
BRANCH  19  30
HETATM   30  C   UNK N   1      29.414  16.296   5.278  0.00  0.00     0.370 C 
HETATM   31  F   UNK N   1      28.598  15.552   6.116  0.00  0.00    -0.193 F 
HETATM   32  F   UNK N   1      29.953  15.427   4.341  0.00  0.00    -0.193 F 
BRANCH  30  33
HETATM   33  C   UNK N   1      30.585  16.830   6.122  0.00  0.00     0.457 C 
HETATM   34  F   UNK N   1      30.161  17.755   7.055  0.00  0.00    -0.165 F 
HETATM   35  F   UNK N   1      31.561  17.386   5.316  0.00  0.00    -0.165 F 
HETATM   36  F   UNK N   1      31.144  15.775   6.822  0.00  0.00    -0.165 F 
ENDBRANCH  30  33
ENDBRANCH  19  30
BRANCH  19  37
HETATM   37  O   UNK N   1      28.373  16.770   3.207  0.00  0.00    -0.383 OA
HETATM   38  H   UNK N   1      28.081  16.262   2.434  0.00  0.00     0.210 HD
ENDBRANCH  19  37
TORSDOF 5
ENDMDL
MODEL 7
REMARK VINA RESULT:      -8.0      1.557      2.177
REMARK  5 active torsions:
REMARK  status: ('A' for Active; 'I' for Inactive)
REMARK    1  A    between atoms: C_4  and  C_28 
REMARK    2  A    between atoms: C_19  and  C_20 
REMARK    3  A    between atoms: C_19  and  O_27 
REMARK    4  A    between atoms: C_20  and  C_21 
REMARK    5  A    between atoms: C_31  and  S_34 
ROOT
HETATM    1  C   UNK N   1      26.798  16.161   5.689  0.00  0.00     0.019 C 
HETATM    2  C   UNK N   1      27.616  17.047   4.733  0.00  0.00    -0.002 C 
HETATM    3  C   UNK N   1      29.019  17.246   5.284  0.00  0.00     0.026 C 
HETATM    4  C   UNK N   1      29.753  15.902   5.397  0.00  0.00     0.049 C 
HETATM    5  C   UNK N   1      29.710  15.056   4.099  0.00  0.00    -0.060 C 
HETATM    6  C   UNK N   1      30.769  14.326   3.611  0.00  0.00    -0.048 C 
HETATM    7  C   UNK N   1      32.122  14.295   4.296  0.00  0.00     0.047 C 
HETATM    8  C   UNK N   1      33.264  14.051   3.319  0.00  0.00     0.087 C 
HETATM    9  C   UNK N   1      32.952  12.849   2.488  0.00  0.00     0.150 C 
HETATM   10  O   UNK N   1      33.811  12.013   2.261  0.00  0.00    -0.293 OA
HETATM   11  C   UNK N   1      31.597  12.696   1.937  0.00  0.00     0.057 C 
HETATM   12  C   UNK N   1      30.579  13.428   2.420  0.00  0.00    -0.048 C 
HETATM   13  C   UNK N   1      29.222  13.235   1.833  0.00  0.00     0.040 C 
HETATM   14  C   UNK N   1      28.450  14.528   1.933  0.00  0.00     0.014 C 
HETATM   15  C   UNK N   1      28.344  14.990   3.388  0.00  0.00     0.021 C 
HETATM   16  C   UNK N   1      27.698  16.378   3.376  0.00  0.00     0.005 C 
HETATM   17  C   UNK N   1      26.287  16.523   2.802  0.00  0.00     0.009 C 
HETATM   18  C   UNK N   1      25.733  17.796   3.476  0.00  0.00     0.045 C 
HETATM   19  C   UNK N   1      26.892  18.347   4.319  0.00  0.00     0.140 C 
ENDROOT
BRANCH   4  20
HETATM   20  C   UNK N   1      31.038  16.075   6.152  0.00  0.00    -0.050 A 
HETATM   21  C   UNK N   1      31.366  15.212   7.207  0.00  0.00     0.009 A 
HETATM   22  C   UNK N   1      32.558  15.377   7.912  0.00  0.00     0.024 A 
HETATM   23  C   UNK N   1      33.449  16.410   7.583  0.00  0.00     0.058 A 
HETATM   24  C   UNK N   1      33.094  17.298   6.521  0.00  0.00     0.024 A 
HETATM   25  C   UNK N   1      31.911  17.110   5.804  0.00  0.00     0.009 A 
BRANCH  23  26
HETATM   26  S   UNK N   1      34.941  16.608   8.656  0.00  0.00     0.171 S 
HETATM   27  O   UNK N   1      34.609  17.563   9.813  0.00  0.00    -0.223 OA
HETATM   28  O   UNK N   1      33.990  15.708   9.462  0.00  0.00    -0.223 OA
HETATM   29  C   UNK N   1      34.435  18.226   7.971  0.00  0.00     0.167 C 
ENDBRANCH  23  26
ENDBRANCH   4  20
BRANCH  19  30
HETATM   30  C   UNK N   1      26.468  19.377   5.415  0.00  0.00     0.370 C 
HETATM   31  F   UNK N   1      25.096  19.298   5.587  0.00  0.00    -0.193 F 
HETATM   32  F   UNK N   1      27.062  18.970   6.600  0.00  0.00    -0.193 F 
BRANCH  30  33
HETATM   33  C   UNK N   1      26.829  20.860   5.217  0.00  0.00     0.457 C 
HETATM   34  F   UNK N   1      28.188  21.075   5.339  0.00  0.00    -0.165 F 
HETATM   35  F   UNK N   1      26.142  21.659   6.111  0.00  0.00    -0.165 F 
HETATM   36  F   UNK N   1      26.474  21.234   3.932  0.00  0.00    -0.165 F 
ENDBRANCH  30  33
ENDBRANCH  19  30
BRANCH  19  37
HETATM   37  O   UNK N   1      27.728  19.055   3.438  0.00  0.00    -0.383 OA
HETATM   38  H   UNK N   1      28.223  19.365   2.663  0.00  0.00     0.210 HD
ENDBRANCH  19  37
TORSDOF 5
ENDMDL
MODEL 8
REMARK VINA RESULT:      -7.9      5.185      8.494
REMARK  5 active torsions:
REMARK  status: ('A' for Active; 'I' for Inactive)
REMARK    1  A    between atoms: C_4  and  C_28 
REMARK    2  A    between atoms: C_19  and  C_20 
REMARK    3  A    between atoms: C_19  and  O_27 
REMARK    4  A    between atoms: C_20  and  C_21 
REMARK    5  A    between atoms: C_31  and  S_34 
ROOT
HETATM    1  C   UNK N   1      37.025  14.896  10.367  0.00  0.00     0.019 C 
HETATM    2  C   UNK N   1      35.945  13.819  10.171  0.00  0.00    -0.002 C 
HETATM    3  C   UNK N   1      34.584  14.474  10.000  0.00  0.00     0.026 C 
HETATM    4  C   UNK N   1      34.565  15.368   8.752  0.00  0.00     0.049 C 
HETATM    5  C   UNK N   1      35.080  14.662   7.471  0.00  0.00    -0.060 C 
HETATM    6  C   UNK N   1      34.521  14.813   6.223  0.00  0.00    -0.048 C 
HETATM    7  C   UNK N   1      33.305  15.684   5.974  0.00  0.00     0.047 C 
HETATM    8  C   UNK N   1      32.473  15.199   4.794  0.00  0.00     0.087 C 
HETATM    9  C   UNK N   1      33.364  15.009   3.610  0.00  0.00     0.150 C 
HETATM   10  O   UNK N   1      33.016  15.393   2.505  0.00  0.00    -0.293 OA
HETATM   11  C   UNK N   1      34.661  14.341   3.794  0.00  0.00     0.057 C 
HETATM   12  C   UNK N   1      35.183  14.193   5.022  0.00  0.00    -0.048 C 
HETATM   13  C   UNK N   1      36.503  13.514   5.159  0.00  0.00     0.040 C 
HETATM   14  C   UNK N   1      36.566  12.819   6.497  0.00  0.00     0.014 C 
HETATM   15  C   UNK N   1      36.355  13.814   7.641  0.00  0.00     0.021 C 
HETATM   16  C   UNK N   1      36.269  13.003   8.936  0.00  0.00     0.005 C 
HETATM   17  C   UNK N   1      37.476  12.159   9.352  0.00  0.00     0.009 C 
HETATM   18  C   UNK N   1      37.324  12.007  10.881  0.00  0.00     0.045 C 
HETATM   19  C   UNK N   1      35.994  12.691  11.226  0.00  0.00     0.140 C 
ENDROOT
BRANCH   4  20
HETATM   20  C   UNK N   1      33.308  16.187   8.719  0.00  0.00    -0.050 A 
HETATM   21  C   UNK N   1      32.062  15.588   8.947  0.00  0.00     0.009 A 
HETATM   22  C   UNK N   1      30.894  16.349   8.912  0.00  0.00     0.024 A 
HETATM   23  C   UNK N   1      30.942  17.725   8.643  0.00  0.00     0.058 A 
HETATM   24  C   UNK N   1      32.216  18.322   8.388  0.00  0.00     0.024 A 
HETATM   25  C   UNK N   1      33.382  17.557   8.452  0.00  0.00     0.009 A 
BRANCH  23  26
HETATM   26  S   UNK N   1      29.327  18.613   8.504  0.00  0.00     0.171 S 
HETATM   27  O   UNK N   1      28.183  17.629   8.788  0.00  0.00    -0.223 OA
HETATM   28  O   UNK N   1      29.538  18.409  10.013  0.00  0.00    -0.223 OA
HETATM   29  C   UNK N   1      29.401  17.243   7.295  0.00  0.00     0.167 C 
ENDBRANCH  23  26
ENDBRANCH   4  20
BRANCH  19  30
HETATM   30  C   UNK N   1      35.816  13.042  12.738  0.00  0.00     0.370 C 
HETATM   31  F   UNK N   1      37.000  13.587  13.207  0.00  0.00    -0.193 F 
HETATM   32  F   UNK N   1      34.844  14.029  12.810  0.00  0.00    -0.193 F 
BRANCH  30  33
HETATM   33  C   UNK N   1      35.397  11.927  13.713  0.00  0.00     0.457 C 
HETATM   34  F   UNK N   1      36.069  10.748  13.458  0.00  0.00    -0.165 F 
HETATM   35  F   UNK N   1      34.032  11.713  13.662  0.00  0.00    -0.165 F 
HETATM   36  F   UNK N   1      35.733  12.314  14.999  0.00  0.00    -0.165 F 
ENDBRANCH  30  33
ENDBRANCH  19  30
BRANCH  19  37
HETATM   37  O   UNK N   1      34.977  11.767  10.930  0.00  0.00    -0.383 OA
HETATM   38  H   UNK N   1      34.472  10.963  10.731  0.00  0.00     0.210 HD
ENDBRANCH  19  37
TORSDOF 5
ENDMDL
MODEL 9
REMARK VINA RESULT:      -7.9      6.556      9.923
REMARK  5 active torsions:
REMARK  status: ('A' for Active; 'I' for Inactive)
REMARK    1  A    between atoms: C_4  and  C_28 
REMARK    2  A    between atoms: C_19  and  C_20 
REMARK    3  A    between atoms: C_19  and  O_27 
REMARK    4  A    between atoms: C_20  and  C_21 
REMARK    5  A    between atoms: C_31  and  S_34 
ROOT
HETATM    1  C   UNK N   1      37.384  11.613  12.756  0.00  0.00     0.019 C 
HETATM    2  C   UNK N   1      35.855  11.620  12.920  0.00  0.00    -0.002 C 
HETATM    3  C   UNK N   1      35.237  12.635  11.971  0.00  0.00     0.026 C 
HETATM    4  C   UNK N   1      35.536  12.263  10.511  0.00  0.00     0.049 C 
HETATM    5  C   UNK N   1      35.192  10.794  10.158  0.00  0.00    -0.060 C 
HETATM    6  C   UNK N   1      34.616  10.393   8.975  0.00  0.00    -0.048 C 
HETATM    7  C   UNK N   1      34.227  11.372   7.885  0.00  0.00     0.047 C 
HETATM    8  C   UNK N   1      33.055  10.877   7.048  0.00  0.00     0.087 C 
HETATM    9  C   UNK N   1      33.341   9.489   6.574  0.00  0.00     0.150 C 
HETATM   10  O   UNK N   1      33.099   9.165   5.423  0.00  0.00    -0.293 OA
HETATM   11  C   UNK N   1      33.906   8.515   7.521  0.00  0.00     0.057 C 
HETATM   12  C   UNK N   1      34.453   8.927   8.676  0.00  0.00    -0.048 C 
HETATM   13  C   UNK N   1      35.018   7.904   9.602  0.00  0.00     0.040 C 
HETATM   14  C   UNK N   1      34.899   8.401  11.022  0.00  0.00     0.014 C 
HETATM   15  C   UNK N   1      35.623   9.738  11.196  0.00  0.00     0.021 C 
HETATM   16  C   UNK N   1      35.310  10.242  12.607  0.00  0.00     0.005 C 
HETATM   17  C   UNK N   1      35.745   9.388  13.801  0.00  0.00     0.009 C 
HETATM   18  C   UNK N   1      35.856  10.395  14.966  0.00  0.00     0.045 C 
HETATM   19  C   UNK N   1      35.388  11.738  14.388  0.00  0.00     0.140 C 
ENDROOT
BRANCH   4  20
HETATM   20  C   UNK N   1      35.129  13.382   9.598  0.00  0.00    -0.050 A 
HETATM   21  C   UNK N   1      33.849  13.947   9.689  0.00  0.00     0.009 A 
HETATM   22  C   UNK N   1      33.471  14.983   8.836  0.00  0.00     0.024 A 
HETATM   23  C   UNK N   1      34.358  15.477   7.869  0.00  0.00     0.058 A 
HETATM   24  C   UNK N   1      35.653  14.879   7.768  0.00  0.00     0.024 A 
HETATM   25  C   UNK N   1      36.032  13.859   8.643  0.00  0.00     0.009 A 
BRANCH  23  26
HETATM   26  S   UNK N   1      33.713  16.770   6.716  0.00  0.00     0.171 S 
HETATM   27  O   UNK N   1      34.569  18.038   6.848  0.00  0.00    -0.223 OA
HETATM   28  O   UNK N   1      35.011  16.269   6.062  0.00  0.00    -0.223 OA
HETATM   29  C   UNK N   1      33.636  17.367   8.443  0.00  0.00     0.167 C 
ENDBRANCH  23  26
ENDBRANCH   4  20
BRANCH  19  30
HETATM   30  C   UNK N   1      35.799  12.988  15.230  0.00  0.00     0.370 C 
HETATM   31  F   UNK N   1      37.171  12.961  15.419  0.00  0.00    -0.193 F 
HETATM   32  F   UNK N   1      35.504  14.105  14.463  0.00  0.00    -0.193 F 
BRANCH  30  33
HETATM   33  C   UNK N   1      35.143  13.202  16.606  0.00  0.00     0.457 C 
HETATM   34  F   UNK N   1      35.239  12.075  17.398  0.00  0.00    -0.165 F 
HETATM   35  F   UNK N   1      33.819  13.574  16.470  0.00  0.00    -0.165 F 
HETATM   36  F   UNK N   1      35.817  14.217  17.264  0.00  0.00    -0.165 F 
ENDBRANCH  30  33
ENDBRANCH  19  30
BRANCH  19  37
HETATM   37  O   UNK N   1      33.982  11.716  14.406  0.00  0.00    -0.383 OA
HETATM   38  H   UNK N   1      33.046  11.541  14.220  0.00  0.00     0.210 HD
ENDBRANCH  19  37
TORSDOF 5
ENDMDL
