MODEL 1
REMARK VINA RESULT:      -7.2      0.000      0.000
REMARK  0 active torsions:
REMARK  status: ('A' for Active; 'I' for Inactive)
ROOT
HETATM    1  C   UNK N   1      26.081  24.369  -5.982  0.00  0.00     0.046 A 
HETATM    2  C   UNK N   1      27.350  23.661  -5.563  0.00  0.00     0.061 A 
HETATM    3  C   UNK N   1      26.962  23.372  -6.999  0.00  0.00     0.046 A 
HETATM    4  C   UNK N   1      27.225  24.288  -4.166  0.00  0.00     0.042 A 
HETATM    5  C   UNK N   1      28.278  23.976  -3.106  0.00  0.00     0.048 A 
HETATM    6  C   UNK N   1      29.381  23.057  -3.527  0.00  0.00     0.030 A 
HETATM    7  C   UNK N   1      29.416  22.549  -4.776  0.00  0.00     0.091 A 
HETATM    8  O   UNK N   1      28.461  22.851  -5.688  0.00  0.00    -0.339 OA
HETATM    9  C   UNK N   1      30.505  21.637  -5.206  0.00  0.00     0.012 A 
HETATM   10  C   UNK N   1      30.501  21.134  -6.514  0.00  0.00     0.015 A 
HETATM   11  C   UNK N   1      31.512  20.274  -6.944  0.00  0.00     0.001 A 
HETATM   12  C   UNK N   1      32.537  19.911  -6.068  0.00  0.00     0.001 A 
HETATM   13  C   UNK N   1      32.551  20.406  -4.761  0.00  0.00     0.016 A 
HETATM   14  C   UNK N   1      31.538  21.271  -4.322  0.00  0.00     0.031 A 
HETATM   15  C   UNK N   1      31.535  21.805  -2.948  0.00  0.00     0.233 A 
HETATM   16  O   UNK N   1      32.419  21.505  -2.157  0.00  0.00    -0.283 OA
HETATM   17  C   UNK N   1      30.441  22.711  -2.543  0.00  0.00     0.231 A 
HETATM   18  O   UNK N   1      30.411  23.169  -1.412  0.00  0.00    -0.283 OA
ENDROOT
TORSDOF 0
ENDMDL
MODEL 2
REMARK VINA RESULT:      -6.8      1.021      4.623
REMARK  0 active torsions:
REMARK  status: ('A' for Active; 'I' for Inactive)
ROOT
HETATM    1  C   UNK N   1      32.450  19.526  -8.241  0.00  0.00     0.046 A 
HETATM    2  C   UNK N   1      31.807  20.323  -7.127  0.00  0.00     0.061 A 
HETATM    3  C   UNK N   1      31.044  20.416  -8.431  0.00  0.00     0.046 A 
HETATM    4  C   UNK N   1      32.928  19.874  -6.175  0.00  0.00     0.042 A 
HETATM    5  C   UNK N   1      32.918  20.351  -4.726  0.00  0.00     0.048 A 
HETATM    6  C   UNK N   1      31.784  21.245  -4.337  0.00  0.00     0.030 A 
HETATM    7  C   UNK N   1      30.840  21.592  -5.236  0.00  0.00     0.091 A 
HETATM    8  O   UNK N   1      30.885  21.146  -6.514  0.00  0.00    -0.339 OA
HETATM    9  C   UNK N   1      29.710  22.478  -4.861  0.00  0.00     0.012 A 
HETATM   10  C   UNK N   1      28.752  22.812  -5.829  0.00  0.00     0.015 A 
HETATM   11  C   UNK N   1      27.679  23.643  -5.505  0.00  0.00     0.001 A 
HETATM   12  C   UNK N   1      27.556  24.147  -4.208  0.00  0.00     0.001 A 
HETATM   13  C   UNK N   1      28.505  23.821  -3.235  0.00  0.00     0.016 A 
HETATM   14  C   UNK N   1      29.586  22.986  -3.554  0.00  0.00     0.031 A 
HETATM   15  C   UNK N   1      30.597  22.630  -2.543  0.00  0.00     0.233 A 
HETATM   16  O   UNK N   1      30.517  23.056  -1.399  0.00  0.00    -0.283 OA
HETATM   17  C   UNK N   1      31.713  21.747  -2.939  0.00  0.00     0.231 A 
HETATM   18  O   UNK N   1      32.567  21.434  -2.124  0.00  0.00    -0.283 OA
ENDROOT
TORSDOF 0
ENDMDL
MODEL 3
REMARK VINA RESULT:      -6.5     15.992     17.280
REMARK  0 active torsions:
REMARK  status: ('A' for Active; 'I' for Inactive)
ROOT
HETATM    1  C   UNK N   1      24.231  16.658   4.859  0.00  0.00     0.046 A 
HETATM    2  C   UNK N   1      23.658  15.880   6.024  0.00  0.00     0.061 A 
HETATM    3  C   UNK N   1      25.112  15.550   5.755  0.00  0.00     0.046 A 
HETATM    4  C   UNK N   1      22.307  16.581   5.813  0.00  0.00     0.042 A 
HETATM    5  C   UNK N   1      21.135  16.245   6.731  0.00  0.00     0.048 A 
HETATM    6  C   UNK N   1      21.406  15.229   7.795  0.00  0.00     0.030 A 
HETATM    7  C   UNK N   1      22.623  14.660   7.912  0.00  0.00     0.091 A 
HETATM    8  O   UNK N   1      23.637  14.987   7.076  0.00  0.00    -0.339 OA
HETATM    9  C   UNK N   1      22.903  13.651   8.963  0.00  0.00     0.012 A 
HETATM   10  C   UNK N   1      24.183  13.087   9.047  0.00  0.00     0.015 A 
HETATM   11  C   UNK N   1      24.475  12.136  10.025  0.00  0.00     0.001 A 
HETATM   12  C   UNK N   1      23.486  11.742  10.930  0.00  0.00     0.001 A 
HETATM   13  C   UNK N   1      22.206  12.298  10.856  0.00  0.00     0.016 A 
HETATM   14  C   UNK N   1      21.906  13.254   9.875  0.00  0.00     0.031 A 
HETATM   15  C   UNK N   1      20.563  13.853   9.779  0.00  0.00     0.233 A 
HETATM   16  O   UNK N   1      19.676  13.528  10.557  0.00  0.00    -0.283 OA
HETATM   17  C   UNK N   1      20.307  14.854   8.725  0.00  0.00     0.231 A 
HETATM   18  O   UNK N   1      19.205  15.369   8.620  0.00  0.00    -0.283 OA
ENDROOT
TORSDOF 0
ENDMDL
MODEL 4
REMARK VINA RESULT:      -6.4      9.904     12.133
REMARK  0 active torsions:
REMARK  status: ('A' for Active; 'I' for Inactive)
ROOT
HETATM    1  C   UNK N   1      28.777  17.381   5.973  0.00  0.00     0.046 A 
HETATM    2  C   UNK N   1      27.419  17.801   5.455  0.00  0.00     0.061 A 
HETATM    3  C   UNK N   1      27.343  16.653   6.440  0.00  0.00     0.046 A 
HETATM    4  C   UNK N   1      28.095  18.882   4.596  0.00  0.00     0.042 A 
HETATM    5  C   UNK N   1      27.237  19.786   3.715  0.00  0.00     0.048 A 
HETATM    6  C   UNK N   1      25.762  19.538   3.761  0.00  0.00     0.030 A 
HETATM    7  C   UNK N   1      25.250  18.567   4.544  0.00  0.00     0.091 A 
HETATM    8  O   UNK N   1      26.047  17.785   5.311  0.00  0.00    -0.339 OA
HETATM    9  C   UNK N   1      23.789  18.312   4.598  0.00  0.00     0.012 A 
HETATM   10  C   UNK N   1      23.302  17.291   5.426  0.00  0.00     0.015 A 
HETATM   11  C   UNK N   1      21.933  17.030   5.496  0.00  0.00     0.001 A 
HETATM   12  C   UNK N   1      21.040  17.789   4.737  0.00  0.00     0.001 A 
HETATM   13  C   UNK N   1      21.514  18.810   3.908  0.00  0.00     0.016 A 
HETATM   14  C   UNK N   1      22.888  19.078   3.832  0.00  0.00     0.031 A 
HETATM   15  C   UNK N   1      23.410  20.149   2.965  0.00  0.00     0.233 A 
HETATM   16  O   UNK N   1      22.652  20.831   2.288  0.00  0.00    -0.283 OA
HETATM   17  C   UNK N   1      24.867  20.384   2.927  0.00  0.00     0.231 A 
HETATM   18  O   UNK N   1      25.329  21.264   2.218  0.00  0.00    -0.283 OA
ENDROOT
TORSDOF 0
ENDMDL
MODEL 5
REMARK VINA RESULT:      -6.4      2.059      6.507
REMARK  0 active torsions:
REMARK  status: ('A' for Active; 'I' for Inactive)
ROOT
HETATM    1  C   UNK N   1      30.850  21.880  -3.229  0.00  0.00     0.046 A 
HETATM    2  C   UNK N   1      29.774  22.687  -3.922  0.00  0.00     0.061 A 
HETATM    3  C   UNK N   1      30.079  23.191  -2.527  0.00  0.00     0.046 A 
HETATM    4  C   UNK N   1      29.906  21.781  -5.157  0.00  0.00     0.042 A 
HETATM    5  C   UNK N   1      29.027  22.041  -6.377  0.00  0.00     0.048 A 
HETATM    6  C   UNK N   1      28.078  23.192  -6.268  0.00  0.00     0.030 A 
HETATM    7  C   UNK N   1      28.025  23.939  -5.146  0.00  0.00     0.091 A 
HETATM    8  O   UNK N   1      28.824  23.675  -4.085  0.00  0.00    -0.339 OA
HETATM    9  C   UNK N   1      27.089  25.084  -5.027  0.00  0.00     0.012 A 
HETATM   10  C   UNK N   1      27.068  25.832  -3.842  0.00  0.00     0.015 A 
HETATM   11  C   UNK N   1      26.198  26.913  -3.702  0.00  0.00     0.001 A 
HETATM   12  C   UNK N   1      25.339  27.255  -4.749  0.00  0.00     0.001 A 
HETATM   13  C   UNK N   1      25.350  26.516  -5.936  0.00  0.00     0.016 A 
HETATM   14  C   UNK N   1      26.223  25.428  -6.083  0.00  0.00     0.031 A 
HETATM   15  C   UNK N   1      26.251  24.636  -7.325  0.00  0.00     0.233 A 
HETATM   16  O   UNK N   1      25.511  24.911  -8.260  0.00  0.00    -0.283 OA
HETATM   17  C   UNK N   1      27.191  23.502  -7.421  0.00  0.00     0.231 A 
HETATM   18  O   UNK N   1      27.238  22.827  -8.437  0.00  0.00    -0.283 OA
ENDROOT
TORSDOF 0
ENDMDL
MODEL 6
REMARK VINA RESULT:      -6.4     22.274     24.541
REMARK  0 active torsions:
REMARK  status: ('A' for Active; 'I' for Inactive)
ROOT
HETATM    1  C   UNK N   1      36.948  12.651  12.300  0.00  0.00     0.046 A 
HETATM    2  C   UNK N   1      36.538  12.389  13.733  0.00  0.00     0.061 A 
HETATM    3  C   UNK N   1      36.581  11.128  12.895  0.00  0.00     0.046 A 
HETATM    4  C   UNK N   1      36.669  13.891  14.032  0.00  0.00     0.042 A 
HETATM    5  C   UNK N   1      36.374  14.405  15.438  0.00  0.00     0.048 A 
HETATM    6  C   UNK N   1      35.969  13.373  16.442  0.00  0.00     0.030 A 
HETATM    7  C   UNK N   1      35.878  12.073  16.096  0.00  0.00     0.091 A 
HETATM    8  O   UNK N   1      36.149  11.657  14.836  0.00  0.00    -0.339 OA
HETATM    9  C   UNK N   1      35.477  11.040  17.084  0.00  0.00     0.012 A 
HETATM   10  C   UNK N   1      35.396   9.700  16.680  0.00  0.00     0.015 A 
HETATM   11  C   UNK N   1      35.022   8.709  17.587  0.00  0.00     0.001 A 
HETATM   12  C   UNK N   1      34.725   9.050  18.908  0.00  0.00     0.001 A 
HETATM   13  C   UNK N   1      34.802  10.383  19.323  0.00  0.00     0.016 A 
HETATM   14  C   UNK N   1      35.177  11.384  18.416  0.00  0.00     0.031 A 
HETATM   15  C   UNK N   1      35.265  12.795  18.833  0.00  0.00     0.233 A 
HETATM   16  O   UNK N   1      35.011  13.126  19.983  0.00  0.00    -0.283 OA
HETATM   17  C   UNK N   1      35.666  13.805  17.833  0.00  0.00     0.231 A 
HETATM   18  O   UNK N   1      35.748  14.982  18.147  0.00  0.00    -0.283 OA
ENDROOT
TORSDOF 0
ENDMDL
MODEL 7
REMARK VINA RESULT:      -6.3     10.706     12.840
REMARK  0 active torsions:
REMARK  status: ('A' for Active; 'I' for Inactive)
ROOT
HETATM    1  C   UNK N   1      29.401  15.070   2.539  0.00  0.00     0.046 A 
HETATM    2  C   UNK N   1      29.843  15.737   3.823  0.00  0.00     0.061 A 
HETATM    3  C   UNK N   1      28.353  15.468   3.783  0.00  0.00     0.046 A 
HETATM    4  C   UNK N   1      31.291  15.742   3.308  0.00  0.00     0.042 A 
HETATM    5  C   UNK N   1      32.396  16.330   4.182  0.00  0.00     0.048 A 
HETATM    6  C   UNK N   1      31.966  16.870   5.508  0.00  0.00     0.030 A 
HETATM    7  C   UNK N   1      30.672  16.827   5.884  0.00  0.00     0.091 A 
HETATM    8  O   UNK N   1      29.721  16.296   5.079  0.00  0.00    -0.339 OA
HETATM    9  C   UNK N   1      30.233  17.360   7.198  0.00  0.00     0.012 A 
HETATM   10  C   UNK N   1      28.877  17.294   7.546  0.00  0.00     0.015 A 
HETATM   11  C   UNK N   1      28.438  17.787   8.774  0.00  0.00     0.001 A 
HETATM   12  C   UNK N   1      29.352  18.352   9.666  0.00  0.00     0.001 A 
HETATM   13  C   UNK N   1      30.707  18.424   9.330  0.00  0.00     0.016 A 
HETATM   14  C   UNK N   1      31.156  17.930   8.097  0.00  0.00     0.031 A 
HETATM   15  C   UNK N   1      32.580  17.995   7.722  0.00  0.00     0.233 A 
HETATM   16  O   UNK N   1      33.405  18.484   8.482  0.00  0.00    -0.283 OA
HETATM   17  C   UNK N   1      32.993  17.459   6.410  0.00  0.00     0.231 A 
HETATM   18  O   UNK N   1      34.165  17.499   6.071  0.00  0.00    -0.283 OA
ENDROOT
TORSDOF 0
ENDMDL
MODEL 8
REMARK VINA RESULT:      -6.3     13.429     15.934
REMARK  0 active torsions:
REMARK  status: ('A' for Active; 'I' for Inactive)
ROOT
HETATM    1  C   UNK N   1      34.462  11.301  10.223  0.00  0.00     0.046 A 
HETATM    2  C   UNK N   1      34.381  12.651   9.545  0.00  0.00     0.061 A 
HETATM    3  C   UNK N   1      33.853  11.526   8.679  0.00  0.00     0.046 A 
HETATM    4  C   UNK N   1      34.999  13.302  10.793  0.00  0.00     0.042 A 
HETATM    5  C   UNK N   1      35.234  14.810  10.815  0.00  0.00     0.048 A 
HETATM    6  C   UNK N   1      34.831  15.554   9.582  0.00  0.00     0.030 A 
HETATM    7  C   UNK N   1      34.295  14.905   8.528  0.00  0.00     0.091 A 
HETATM    8  O   UNK N   1      34.103  13.565   8.549  0.00  0.00    -0.339 OA
HETATM    9  C   UNK N   1      33.892  15.634   7.299  0.00  0.00     0.012 A 
HETATM   10  C   UNK N   1      33.339  14.918   6.229  0.00  0.00     0.015 A 
HETATM   11  C   UNK N   1      32.952  15.576   5.062  0.00  0.00     0.001 A 
HETATM   12  C   UNK N   1      33.114  16.960   4.957  0.00  0.00     0.001 A 
HETATM   13  C   UNK N   1      33.665  17.684   6.018  0.00  0.00     0.016 A 
HETATM   14  C   UNK N   1      34.056  17.028   7.193  0.00  0.00     0.031 A 
HETATM   15  C   UNK N   1      34.639  17.773   8.324  0.00  0.00     0.233 A 
HETATM   16  O   UNK N   1      34.794  18.985   8.261  0.00  0.00    -0.283 OA
HETATM   17  C   UNK N   1      35.032  17.027   9.536  0.00  0.00     0.231 A 
HETATM   18  O   UNK N   1      35.518  17.616  10.489  0.00  0.00    -0.283 OA
ENDROOT
TORSDOF 0
ENDMDL
MODEL 9
REMARK VINA RESULT:      -6.1     15.671     17.119
REMARK  0 active torsions:
REMARK  status: ('A' for Active; 'I' for Inactive)
ROOT
HETATM    1  C   UNK N   1      23.053  11.770  11.366  0.00  0.00     0.046 A 
HETATM    2  C   UNK N   1      22.881  12.719  10.200  0.00  0.00     0.061 A 
HETATM    3  C   UNK N   1      24.285  12.162  10.301  0.00  0.00     0.046 A 
HETATM    4  C   UNK N   1      21.409  12.919  10.597  0.00  0.00     0.042 A 
HETATM    5  C   UNK N   1      20.529  13.852   9.770  0.00  0.00     0.048 A 
HETATM    6  C   UNK N   1      21.190  14.516   8.605  0.00  0.00     0.030 A 
HETATM    7  C   UNK N   1      22.489  14.285   8.325  0.00  0.00     0.091 A 
HETATM    8  O   UNK N   1      23.236  13.449   9.085  0.00  0.00    -0.339 OA
HETATM    9  C   UNK N   1      23.156  14.938   7.171  0.00  0.00     0.012 A 
HETATM   10  C   UNK N   1      24.508  14.668   6.919  0.00  0.00     0.015 A 
HETATM   11  C   UNK N   1      25.160  15.268   5.842  0.00  0.00     0.001 A 
HETATM   12  C   UNK N   1      24.464  16.144   5.006  0.00  0.00     0.001 A 
HETATM   13  C   UNK N   1      23.115  16.421   5.248  0.00  0.00     0.016 A 
HETATM   14  C   UNK N   1      22.454  15.822   6.329  0.00  0.00     0.031 A 
HETATM   15  C   UNK N   1      21.032  16.100   6.602  0.00  0.00     0.233 A 
HETATM   16  O   UNK N   1      20.395  16.862   5.888  0.00  0.00    -0.283 OA
HETATM   17  C   UNK N   1      20.390  15.439   7.755  0.00  0.00     0.231 A 
HETATM   18  O   UNK N   1      19.214  15.649   8.007  0.00  0.00    -0.283 OA
ENDROOT
TORSDOF 0
ENDMDL
