REMARK  18 active torsions:
REMARK  status: ('A' for Active; 'I' for Inactive)
REMARK    1  A    between atoms: C_5  and  C_4 
REMARK    2  A    between atoms: C_6  and  C_5 
REMARK    3  A    between atoms: C_7  and  C_6 
REMARK    4  A    between atoms: C_8  and  C_7 
REMARK    5  A    between atoms: C_9  and  C_8 
REMARK    6  A    between atoms: C_16  and  C_9 
REMARK    7  A    between atoms: C_14  and  C_11 
REMARK    8  A    between atoms: O_34  and  C_11 
REMARK    9  A    between atoms: O_28  and  C_12 
REMARK   10  A    between atoms: C_13  and  N_27 
REMARK   11  A    between atoms: C_18  and  C_14 
REMARK   12  A    between atoms: C_14  and  O_29 
REMARK   13  A    between atoms: C_20  and  C_15 
REMARK   14  A    between atoms: O_34  and  C_16 
REMARK   15  A    between atoms: C_17  and  N_25 
REMARK   16  A    between atoms: C_19  and  C_18 
REMARK   17  A    between atoms: C_18  and  O_33 
REMARK   18  A    between atoms: O_32  and  C_20 
REMARK       I    between atoms: N_24  and  C_21 
REMARK       I    between atoms: N_27  and  C_21 
ROOT
HETATM    1  C   UNK N   1      14.235   3.485  -0.393  0.00  0.00     0.044 C 
HETATM    2  C   UNK N   1      14.669   4.918  -0.615  0.00  0.00     0.150 C 
HETATM    3  C   UNK N   1      12.976   3.176  -0.042  0.00  0.00     0.141 C 
HETATM    4  C   UNK N   1      13.636   5.934  -0.026  0.00  0.00     0.142 C 
HETATM    5  C   UNK N   1      12.227   5.430  -0.429  0.00  0.00     0.185 C 
HETATM    6  O   UNK N   1      12.046   4.154   0.082  0.00  0.00    -0.335 OA
ENDROOT
BRANCH   5   7
HETATM    7  C   UNK N   1      11.022   6.318  -0.009  0.00  0.00     0.183 C 
BRANCH   7   8
HETATM    8  C   UNK N   1       9.733   5.722  -0.624  0.00  0.00     0.174 C 
BRANCH   8   9
HETATM    9  C   UNK N   1       8.546   6.668  -0.585  0.00  0.00     0.213 C 
BRANCH   9  10
HETATM   10  O   UNK N   1       7.988   6.803   0.662  0.00  0.00    -0.319 OA
BRANCH  10  11
HETATM   11  C   UNK N   1       7.680   8.023   1.155  0.00  0.00     0.258 C 
HETATM   12  O   UNK N   1       8.328   9.010   0.839  0.00  0.00    -0.265 OA
BRANCH  11  13
HETATM   13  C   UNK N   1       6.387   8.190   1.880  0.00  0.00     0.111 C 
BRANCH  13  14
HETATM   14  C   UNK N   1       5.264   8.374   0.858  0.00  0.00     0.010 C 
BRANCH  14  15
HETATM   15  C   UNK N   1       5.171   7.180  -0.088  0.00  0.00     0.000 C 
BRANCH  15  16
HETATM   16  C   UNK N   1       4.319   7.510  -1.301  0.00  0.00     0.000 C 
BRANCH  16  17
HETATM   17  C   UNK N   1       2.902   7.015  -1.090  0.00  0.00    -0.000 C 
BRANCH  17  18
HETATM   18  C   UNK N   1       2.175   7.914  -0.110  0.00  0.00    -0.005 C 
HETATM   19  C   UNK N   1       1.092   7.121   0.587  0.00  0.00     0.005 C 
ENDBRANCH  17  18
ENDBRANCH  16  17
ENDBRANCH  15  16
ENDBRANCH  14  15
ENDBRANCH  13  14
ENDBRANCH  11  13
ENDBRANCH  10  11
ENDBRANCH   9  10
ENDBRANCH   8   9
BRANCH   8  20
HETATM   20  O   UNK N   1       9.393   4.504  -0.026  0.00  0.00    -0.391 OA
HETATM   21  H   UNK N   1       8.544   4.286   0.388  0.00  0.00     0.210 HD
ENDBRANCH   8  20
ENDBRANCH   7   8
BRANCH   7  22
HETATM   22  O   UNK N   1      11.193   7.623  -0.536  0.00  0.00    -0.385 OA
HETATM   23  C   UNK N   1      11.332   8.540   0.520  0.00  0.00     0.202 C 
ENDBRANCH   7  22
ENDBRANCH   5   7
BRANCH   4  24
HETATM   24  N   UNK N   1      13.853   7.257  -0.597  0.00  0.00    -0.365 N 
HETATM   25  C   UNK N   1      14.752   8.111  -0.234  0.00  0.00     0.107 C 
HETATM   26  C   UNK N   1      15.689   7.852   0.903  0.00  0.00     0.097 C 
ATOM     27  HN  UNK N   1      13.235   7.536  -1.359  1.00  0.00     0.161 HD
BRANCH  25  28
HETATM   28  O   UNK N   1      14.831   9.290  -0.877  0.00  0.00    -0.350 OA
HETATM   29  H   UNK N   1      15.569   9.653  -1.326  0.00  0.00     0.219 HD
ENDBRANCH  25  28
ENDBRANCH   4  24
BRANCH   2  30
HETATM   30  N   UNK N   1      16.008   5.202  -0.115  0.00  0.00    -0.217 N 
HETATM   31  C   UNK N   1      16.936   4.309   0.502  0.00  0.00     0.665 C 
HETATM   32  N   UNK N   1      18.050   4.771   0.933  0.00  0.00    -0.235 N 
HETATM   33  N   UNK N   1      16.706   2.915   0.556  0.00  0.00    -0.235 N 
HETATM   34  H   UNK N   1      18.785   4.207   1.264  0.00  0.00     0.174 HD
ATOM     35  HN  UNK N   1      18.182   5.782   0.933  1.00  0.00     0.174 HD
HETATM   36  H   UNK N   1      15.785   2.569   0.593  0.00  0.00     0.174 HD
HETATM   37  H   UNK N   1      17.467   2.291   0.556  0.00  0.00     0.174 HD
HETATM   38  H   UNK N   1      16.313   6.132  -0.216  0.00  0.00     0.178 HD
ENDBRANCH   2  30
BRANCH   3  39
HETATM   39  C   UNK N   1      12.590   1.774   0.208  0.00  0.00     0.200 C 
HETATM   40  O   UNK N   1      13.402   0.872   0.083  0.00  0.00    -0.645 OA
BRANCH  39  41
HETATM   41  O   UNK N   1      11.324   1.484   0.567  0.00  0.00    -0.771 OA
HETATM   42  H   UNK N   1      10.709   2.146   0.816  0.00  0.00     0.167 HD
ENDBRANCH  39  41
ENDBRANCH   3  39
TORSDOF 18
