MODEL 1
REMARK VINA RESULT:      -7.9      0.000      0.000
REMARK  9 active torsions:
REMARK  status: ('A' for Active; 'I' for Inactive)
REMARK    1  A    between atoms: C_9  and  O_12 
REMARK    2  A    between atoms: O_12  and  C_13 
REMARK    3  A    between atoms: C_16  and  O_24 
REMARK    4  A    between atoms: O_24  and  C_25 
REMARK    5  A    between atoms: C_25  and  C_26 
REMARK    6  A    between atoms: C_26  and  O_28 
REMARK    7  A    between atoms: O_28  and  C_29 
REMARK    8  A    between atoms: C_29  and  C_31 
REMARK    9  A    between atoms: C_31  and  N_33 
ROOT
HETATM    1  C   UNK N   1      28.269  17.632   6.799  0.00  0.00     0.178 A 
HETATM    2  C   UNK N   1      29.631  17.464   7.004  0.00  0.00     0.116 A 
HETATM    3  C   UNK N   1      30.641  17.164   6.116  0.00  0.00     0.006 A 
HETATM    4  C   UNK N   1      31.790  17.033   6.896  0.00  0.00     0.094 A 
HETATM    5  C   UNK N   1      31.442  17.270   8.218  0.00  0.00     0.154 A 
HETATM    6  N   UNK N   1      30.126  17.533   8.246  0.00  0.00    -0.259 N 
HETATM    7  N   UNK N   1      29.377  17.786   9.315  0.00  0.00    -0.289 N 
ATOM      8  HN  UNK N   1      29.796  17.840  10.244  1.00  0.00     0.188 HD
HETATM    9  C   UNK N   1      28.038  17.971   9.147  0.00  0.00     0.200 A 
HETATM   10  N   UNK N   1      27.493  17.875   7.899  0.00  0.00    -0.330 N 
ATOM     11  HN  UNK N   1      26.485  17.985   7.783  1.00  0.00     0.168 HD
HETATM   12  C   UNK N   1      30.508  16.977   4.641  0.00  0.00     0.054 C 
ENDROOT
BRANCH   1  13
HETATM   13  O   UNK N   1      27.734  17.455   5.563  0.00  0.00    -0.288 OA
BRANCH  13  14
HETATM   14  C   UNK N   1      26.863  18.332   5.011  0.00  0.00     0.117 A 
HETATM   15  C   UNK N   1      27.396  19.494   4.406  0.00  0.00     0.043 A 
HETATM   16  C   UNK N   1      26.573  20.376   3.688  0.00  0.00     0.033 A 
HETATM   17  C   UNK N   1      25.222  20.063   3.594  0.00  0.00     0.045 A 
HETATM   18  C   UNK N   1      24.686  18.967   4.211  0.00  0.00     0.034 A 
HETATM   19  N   UNK N   1      24.286  20.734   2.909  0.00  0.00    -0.359 N 
HETATM   20  C   UNK N   1      23.343  18.931   3.918  0.00  0.00     0.041 A 
HETATM   21  C   UNK N   1      25.467  18.085   4.949  0.00  0.00     0.162 A 
HETATM   22  C   UNK N   1      23.140  20.040   3.104  0.00  0.00     0.006 A 
HETATM   23  C   UNK N   1      21.842  20.412   2.484  0.00  0.00     0.068 C 
HETATM   24  F   UNK N   1      24.898  17.011   5.550  0.00  0.00    -0.202 F 
HETATM   25  H   UNK N   1      24.406  21.555   2.378  0.00  0.00     0.166 HD
ENDBRANCH  13  14
ENDBRANCH   1  13
BRANCH   4  26
HETATM   26  O   UNK N   1      33.038  16.714   6.489  0.00  0.00    -0.347 OA
BRANCH  26  27
HETATM   27  C   UNK N   1      34.180  17.173   7.104  0.00  0.00     0.207 C 
BRANCH  27  28
HETATM   28  C   UNK N   1      34.818  16.026   7.885  0.00  0.00     0.152 C 
HETATM   29  C   UNK N   1      34.468  14.683   7.270  0.00  0.00     0.042 C 
BRANCH  28  30
HETATM   30  O   UNK N   1      34.474  16.091   9.227  0.00  0.00    -0.313 OA
BRANCH  30  31
HETATM   31  C   UNK N   1      35.277  16.581  10.212  0.00  0.00     0.281 C 
HETATM   32  O   UNK N   1      35.596  17.762  10.227  0.00  0.00    -0.263 OA
BRANCH  31  33
HETATM   33  C   UNK N   1      35.836  15.656  11.253  0.00  0.00     0.170 C 
HETATM   34  C   UNK N   1      34.850  14.550  11.569  0.00  0.00     0.042 C 
BRANCH  33  35
HETATM   35  N   UNK N   1      37.093  15.074  10.813  0.00  0.00    -0.418 N 
HETATM   36  H   UNK N   1      37.471  14.866   9.889  0.00  0.00     0.150 HD
HETATM   37  H   UNK N   1      37.720  14.827  11.578  0.00  0.00     0.150 HD
ENDBRANCH  33  35
ENDBRANCH  31  33
ENDBRANCH  30  31
ENDBRANCH  28  30
ENDBRANCH  27  28
ENDBRANCH  26  27
ENDBRANCH   4  26
TORSDOF 9
ENDMDL
MODEL 2
REMARK VINA RESULT:      -7.8      1.812      2.313
REMARK  9 active torsions:
REMARK  status: ('A' for Active; 'I' for Inactive)
REMARK    1  A    between atoms: C_9  and  O_12 
REMARK    2  A    between atoms: O_12  and  C_13 
REMARK    3  A    between atoms: C_16  and  O_24 
REMARK    4  A    between atoms: O_24  and  C_25 
REMARK    5  A    between atoms: C_25  and  C_26 
REMARK    6  A    between atoms: C_26  and  O_28 
REMARK    7  A    between atoms: O_28  and  C_29 
REMARK    8  A    between atoms: C_29  and  C_31 
REMARK    9  A    between atoms: C_31  and  N_33 
ROOT
HETATM    1  C   UNK N   1      28.078  18.650   5.864  0.00  0.00     0.178 A 
HETATM    2  C   UNK N   1      29.140  17.878   6.311  0.00  0.00     0.116 A 
HETATM    3  C   UNK N   1      29.946  16.986   5.637  0.00  0.00     0.006 A 
HETATM    4  C   UNK N   1      30.786  16.441   6.609  0.00  0.00     0.094 A 
HETATM    5  C   UNK N   1      30.471  17.028   7.827  0.00  0.00     0.154 A 
HETATM    6  N   UNK N   1      29.472  17.898   7.607  0.00  0.00    -0.259 N 
HETATM    7  N   UNK N   1      28.847  18.652   8.508  0.00  0.00    -0.289 N 
ATOM      8  HN  UNK N   1      29.139  18.645   9.485  1.00  0.00     0.188 HD
HETATM    9  C   UNK N   1      27.810  19.433   8.099  0.00  0.00     0.200 A 
HETATM   10  N   UNK N   1      27.421  19.413   6.790  0.00  0.00    -0.330 N 
ATOM     11  HN  UNK N   1      26.624  19.979   6.496  1.00  0.00     0.168 HD
HETATM   12  C   UNK N   1      29.889  16.652   4.184  0.00  0.00     0.054 C 
ENDROOT
BRANCH   1  13
HETATM   13  O   UNK N   1      27.656  18.557   4.575  0.00  0.00    -0.288 OA
BRANCH  13  14
HETATM   14  C   UNK N   1      26.347  18.582   4.232  0.00  0.00     0.117 A 
HETATM   15  C   UNK N   1      25.536  17.504   4.655  0.00  0.00     0.043 A 
HETATM   16  C   UNK N   1      24.145  17.529   4.465  0.00  0.00     0.033 A 
HETATM   17  C   UNK N   1      23.600  18.649   3.850  0.00  0.00     0.045 A 
HETATM   18  C   UNK N   1      24.377  19.679   3.397  0.00  0.00     0.034 A 
HETATM   19  N   UNK N   1      22.300  18.895   3.632  0.00  0.00    -0.359 N 
HETATM   20  C   UNK N   1      23.544  20.630   2.856  0.00  0.00     0.041 A 
HETATM   21  C   UNK N   1      25.758  19.678   3.548  0.00  0.00     0.162 A 
HETATM   22  C   UNK N   1      22.267  20.107   3.029  0.00  0.00     0.006 A 
HETATM   23  C   UNK N   1      21.008  20.794   2.641  0.00  0.00     0.068 C 
HETATM   24  F   UNK N   1      26.495  20.716   3.081  0.00  0.00    -0.202 F 
HETATM   25  H   UNK N   1      21.535  18.319   3.861  0.00  0.00     0.166 HD
ENDBRANCH  13  14
ENDBRANCH   1  13
BRANCH   4  26
HETATM   26  O   UNK N   1      31.737  15.497   6.450  0.00  0.00    -0.347 OA
BRANCH  26  27
HETATM   27  C   UNK N   1      32.942  15.727   5.826  0.00  0.00     0.207 C 
BRANCH  27  28
HETATM   28  C   UNK N   1      33.293  17.208   5.955  0.00  0.00     0.152 C 
HETATM   29  C   UNK N   1      33.350  17.878   4.595  0.00  0.00     0.042 C 
BRANCH  28  30
HETATM   30  O   UNK N   1      34.470  17.375   6.670  0.00  0.00    -0.313 OA
BRANCH  30  31
HETATM   31  C   UNK N   1      34.541  17.805   7.960  0.00  0.00     0.281 C 
HETATM   32  O   UNK N   1      34.793  18.976   8.214  0.00  0.00    -0.263 OA
BRANCH  31  33
HETATM   33  C   UNK N   1      34.379  16.828   9.087  0.00  0.00     0.170 C 
HETATM   34  C   UNK N   1      35.027  15.502   8.742  0.00  0.00     0.042 C 
BRANCH  33  35
HETATM   35  N   UNK N   1      34.957  17.347  10.315  0.00  0.00    -0.418 N 
HETATM   36  H   UNK N   1      35.873  17.230  10.749  0.00  0.00     0.150 HD
HETATM   37  H   UNK N   1      34.324  17.944  10.846  0.00  0.00     0.150 HD
ENDBRANCH  33  35
ENDBRANCH  31  33
ENDBRANCH  30  31
ENDBRANCH  28  30
ENDBRANCH  27  28
ENDBRANCH  26  27
ENDBRANCH   4  26
TORSDOF 9
ENDMDL
MODEL 3
REMARK VINA RESULT:      -7.6      3.376      5.771
REMARK  9 active torsions:
REMARK  status: ('A' for Active; 'I' for Inactive)
REMARK    1  A    between atoms: C_9  and  O_12 
REMARK    2  A    between atoms: O_12  and  C_13 
REMARK    3  A    between atoms: C_16  and  O_24 
REMARK    4  A    between atoms: O_24  and  C_25 
REMARK    5  A    between atoms: C_25  and  C_26 
REMARK    6  A    between atoms: C_26  and  O_28 
REMARK    7  A    between atoms: O_28  and  C_29 
REMARK    8  A    between atoms: C_29  and  C_31 
REMARK    9  A    between atoms: C_31  and  N_33 
ROOT
HETATM    1  C   UNK N   1      33.114  16.868   8.003  0.00  0.00     0.178 A 
HETATM    2  C   UNK N   1      33.751  16.296   9.094  0.00  0.00     0.116 A 
HETATM    3  C   UNK N   1      33.496  15.120   9.767  0.00  0.00     0.006 A 
HETATM    4  C   UNK N   1      34.397  15.101  10.832  0.00  0.00     0.094 A 
HETATM    5  C   UNK N   1      35.170  16.251  10.760  0.00  0.00     0.154 A 
HETATM    6  N   UNK N   1      34.755  16.949   9.692  0.00  0.00    -0.259 N 
HETATM    7  N   UNK N   1      35.206  18.129   9.274  0.00  0.00    -0.289 N 
ATOM      8  HN  UNK N   1      35.981  18.589   9.753  1.00  0.00     0.188 HD
HETATM    9  C   UNK N   1      34.612  18.711   8.196  0.00  0.00     0.200 A 
HETATM   10  N   UNK N   1      33.563  18.089   7.582  0.00  0.00    -0.330 N 
ATOM     11  HN  UNK N   1      33.104  18.545   6.792  1.00  0.00     0.168 HD
HETATM   12  C   UNK N   1      32.444  14.114   9.439  0.00  0.00     0.054 C 
ENDROOT
BRANCH   1  13
HETATM   13  O   UNK N   1      32.023  16.272   7.455  0.00  0.00    -0.288 OA
BRANCH  13  14
HETATM   14  C   UNK N   1      30.819  16.885   7.374  0.00  0.00     0.117 A 
HETATM   15  C   UNK N   1      30.175  17.230   8.585  0.00  0.00     0.043 A 
HETATM   16  C   UNK N   1      28.998  17.995   8.585  0.00  0.00     0.033 A 
HETATM   17  C   UNK N   1      28.495  18.401   7.355  0.00  0.00     0.045 A 
HETATM   18  C   UNK N   1      29.083  18.038   6.174  0.00  0.00     0.034 A 
HETATM   19  N   UNK N   1      27.427  19.181   7.139  0.00  0.00    -0.359 N 
HETATM   20  C   UNK N   1      28.360  18.603   5.151  0.00  0.00     0.041 A 
HETATM   21  C   UNK N   1      30.236  17.262   6.136  0.00  0.00     0.162 A 
HETATM   22  C   UNK N   1      27.348  19.308   5.794  0.00  0.00     0.006 A 
HETATM   23  C   UNK N   1      26.321  20.134   5.108  0.00  0.00     0.068 C 
HETATM   24  F   UNK N   1      30.787  16.919   4.946  0.00  0.00    -0.202 F 
HETATM   25  H   UNK N   1      26.829  19.577   7.814  0.00  0.00     0.166 HD
ENDBRANCH  13  14
ENDBRANCH   1  13
BRANCH   4  26
HETATM   26  O   UNK N   1      34.522  14.166  11.797  0.00  0.00    -0.347 OA
BRANCH  26  27
HETATM   27  C   UNK N   1      35.733  13.727  12.280  0.00  0.00     0.207 C 
BRANCH  27  28
HETATM   28  C   UNK N   1      35.689  13.730  13.807  0.00  0.00     0.152 C 
HETATM   29  C   UNK N   1      36.924  13.069  14.392  0.00  0.00     0.042 C 
BRANCH  28  30
HETATM   30  O   UNK N   1      34.518  13.150  14.268  0.00  0.00    -0.313 OA
BRANCH  30  31
HETATM   31  C   UNK N   1      34.425  12.360  15.374  0.00  0.00     0.281 C 
HETATM   32  O   UNK N   1      34.582  12.831  16.492  0.00  0.00    -0.263 OA
BRANCH  31  33
HETATM   33  C   UNK N   1      34.196  10.884  15.224  0.00  0.00     0.170 C 
HETATM   34  C   UNK N   1      33.852  10.540  13.789  0.00  0.00     0.042 C 
BRANCH  33  35
HETATM   35  N   UNK N   1      35.367  10.130  15.637  0.00  0.00    -0.418 N 
HETATM   36  H   UNK N   1      36.281  10.414  15.991  0.00  0.00     0.150 HD
HETATM   37  H   UNK N   1      35.254   9.120  15.558  0.00  0.00     0.150 HD
ENDBRANCH  33  35
ENDBRANCH  31  33
ENDBRANCH  30  31
ENDBRANCH  28  30
ENDBRANCH  27  28
ENDBRANCH  26  27
ENDBRANCH   4  26
TORSDOF 9
ENDMDL
MODEL 4
REMARK VINA RESULT:      -7.4      2.453     10.259
REMARK  9 active torsions:
REMARK  status: ('A' for Active; 'I' for Inactive)
REMARK    1  A    between atoms: C_9  and  O_12 
REMARK    2  A    between atoms: O_12  and  C_13 
REMARK    3  A    between atoms: C_16  and  O_24 
REMARK    4  A    between atoms: O_24  and  C_25 
REMARK    5  A    between atoms: C_25  and  C_26 
REMARK    6  A    between atoms: C_26  and  O_28 
REMARK    7  A    between atoms: O_28  and  C_29 
REMARK    8  A    between atoms: C_29  and  C_31 
REMARK    9  A    between atoms: C_31  and  N_33 
ROOT
HETATM    1  C   UNK N   1      30.426  17.172   8.157  0.00  0.00     0.178 A 
HETATM    2  C   UNK N   1      29.488  17.669   7.264  0.00  0.00     0.116 A 
HETATM    3  C   UNK N   1      29.414  17.568   5.892  0.00  0.00     0.006 A 
HETATM    4  C   UNK N   1      28.308  18.335   5.525  0.00  0.00     0.094 A 
HETATM    5  C   UNK N   1      27.745  18.858   6.680  0.00  0.00     0.154 A 
HETATM    6  N   UNK N   1      28.483  18.430   7.716  0.00  0.00    -0.259 N 
HETATM    7  N   UNK N   1      28.313  18.722   9.003  0.00  0.00    -0.289 N 
ATOM      8  HN  UNK N   1      27.527  19.297   9.306  1.00  0.00     0.188 HD
HETATM    9  C   UNK N   1      29.208  18.237   9.907  0.00  0.00     0.200 A 
HETATM   10  N   UNK N   1      30.264  17.485   9.479  0.00  0.00    -0.330 N 
ATOM     11  HN  UNK N   1      30.948  17.149  10.158  1.00  0.00     0.168 HD
HETATM   12  C   UNK N   1      30.354  16.829   4.999  0.00  0.00     0.054 C 
ENDROOT
BRANCH   1  13
HETATM   13  O   UNK N   1      31.513  16.493   7.704  0.00  0.00    -0.288 OA
BRANCH  13  14
HETATM   14  C   UNK N   1      32.645  16.359   8.432  0.00  0.00     0.117 A 
HETATM   15  C   UNK N   1      33.585  17.415   8.386  0.00  0.00     0.043 A 
HETATM   16  C   UNK N   1      34.712  17.415   9.224  0.00  0.00     0.033 A 
HETATM   17  C   UNK N   1      34.865  16.345  10.096  0.00  0.00     0.045 A 
HETATM   18  C   UNK N   1      33.988  15.296  10.120  0.00  0.00     0.034 A 
HETATM   19  N   UNK N   1      35.830  16.185  11.013  0.00  0.00    -0.359 N 
HETATM   20  C   UNK N   1      34.407  14.416  11.090  0.00  0.00     0.041 A 
HETATM   21  C   UNK N   1      32.875  15.251   9.290  0.00  0.00     0.162 A 
HETATM   22  C   UNK N   1      35.547  15.010  11.622  0.00  0.00     0.006 A 
HETATM   23  C   UNK N   1      36.346  14.457  12.746  0.00  0.00     0.068 C 
HETATM   24  F   UNK N   1      32.030  14.191   9.340  0.00  0.00    -0.202 F 
HETATM   25  H   UNK N   1      36.582  16.792  11.202  0.00  0.00     0.166 HD
ENDBRANCH  13  14
ENDBRANCH   1  13
BRANCH   4  26
HETATM   26  O   UNK N   1      27.838  18.572   4.281  0.00  0.00    -0.347 OA
BRANCH  26  27
HETATM   27  C   UNK N   1      26.646  18.072   3.809  0.00  0.00     0.207 C 
BRANCH  27  28
HETATM   28  C   UNK N   1      25.761  19.234   3.365  0.00  0.00     0.152 C 
HETATM   29  C   UNK N   1      26.554  20.526   3.282  0.00  0.00     0.042 C 
BRANCH  28  30
HETATM   30  O   UNK N   1      24.653  19.354   4.190  0.00  0.00    -0.313 OA
BRANCH  30  31
HETATM   31  C   UNK N   1      23.370  19.488   3.753  0.00  0.00     0.281 C 
HETATM   32  O   UNK N   1      23.027  20.477   3.119  0.00  0.00    -0.263 OA
BRANCH  31  33
HETATM   33  C   UNK N   1      22.345  18.451   4.107  0.00  0.00     0.170 C 
HETATM   34  C   UNK N   1      22.811  17.620   5.286  0.00  0.00     0.042 C 
BRANCH  33  35
HETATM   35  N   UNK N   1      21.066  19.066   4.421  0.00  0.00    -0.418 N 
HETATM   36  H   UNK N   1      20.812  19.880   4.981  0.00  0.00     0.150 HD
HETATM   37  H   UNK N   1      20.268  18.591   4.001  0.00  0.00     0.150 HD
ENDBRANCH  33  35
ENDBRANCH  31  33
ENDBRANCH  30  31
ENDBRANCH  28  30
ENDBRANCH  27  28
ENDBRANCH  26  27
ENDBRANCH   4  26
TORSDOF 9
ENDMDL
MODEL 5
REMARK VINA RESULT:      -7.3      2.149      2.850
REMARK  9 active torsions:
REMARK  status: ('A' for Active; 'I' for Inactive)
REMARK    1  A    between atoms: C_9  and  O_12 
REMARK    2  A    between atoms: O_12  and  C_13 
REMARK    3  A    between atoms: C_16  and  O_24 
REMARK    4  A    between atoms: O_24  and  C_25 
REMARK    5  A    between atoms: C_25  and  C_26 
REMARK    6  A    between atoms: C_26  and  O_28 
REMARK    7  A    between atoms: O_28  and  C_29 
REMARK    8  A    between atoms: C_29  and  C_31 
REMARK    9  A    between atoms: C_31  and  N_33 
ROOT
HETATM    1  C   UNK N   1      29.225  17.442   4.562  0.00  0.00     0.178 A 
HETATM    2  C   UNK N   1      30.095  16.798   5.429  0.00  0.00     0.116 A 
HETATM    3  C   UNK N   1      30.241  16.903   6.795  0.00  0.00     0.006 A 
HETATM    4  C   UNK N   1      31.327  16.088   7.114  0.00  0.00     0.094 A 
HETATM    5  C   UNK N   1      31.790  15.510   5.940  0.00  0.00     0.154 A 
HETATM    6  N   UNK N   1      31.017  15.959   4.940  0.00  0.00    -0.259 N 
HETATM    7  N   UNK N   1      31.132  15.680   3.644  0.00  0.00    -0.289 N 
ATOM      8  HN  UNK N   1      31.843  15.026   3.314  1.00  0.00     0.188 HD
HETATM    9  C   UNK N   1      30.283  16.284   2.767  0.00  0.00     0.200 A 
HETATM   10  N   UNK N   1      29.352  17.171   3.227  0.00  0.00    -0.330 N 
ATOM     11  HN  UNK N   1      28.739  17.642   2.561  1.00  0.00     0.168 HD
HETATM   12  C   UNK N   1      29.429  17.750   7.717  0.00  0.00     0.054 C 
ENDROOT
BRANCH   1  13
HETATM   13  O   UNK N   1      28.359  18.380   5.028  0.00  0.00    -0.288 OA
BRANCH  13  14
HETATM   14  C   UNK N   1      27.062  18.429   4.647  0.00  0.00     0.117 A 
HETATM   15  C   UNK N   1      26.182  17.461   5.185  0.00  0.00     0.043 A 
HETATM   16  C   UNK N   1      24.799  17.534   4.953  0.00  0.00     0.033 A 
HETATM   17  C   UNK N   1      24.331  18.591   4.182  0.00  0.00     0.045 A 
HETATM   18  C   UNK N   1      25.175  19.508   3.619  0.00  0.00     0.034 A 
HETATM   19  N   UNK N   1      23.053  18.875   3.896  0.00  0.00    -0.359 N 
HETATM   20  C   UNK N   1      24.409  20.422   2.934  0.00  0.00     0.041 A 
HETATM   21  C   UNK N   1      26.551  19.454   3.808  0.00  0.00     0.162 A 
HETATM   22  C   UNK N   1      23.101  19.995   3.138  0.00  0.00     0.006 A 
HETATM   23  C   UNK N   1      21.892  20.692   2.627  0.00  0.00     0.068 C 
HETATM   24  F   UNK N   1      27.355  20.380   3.230  0.00  0.00    -0.202 F 
HETATM   25  H   UNK N   1      22.252  18.376   4.176  0.00  0.00     0.166 HD
ENDBRANCH  13  14
ENDBRANCH   1  13
BRANCH   4  26
HETATM   26  O   UNK N   1      31.880  15.879   8.328  0.00  0.00    -0.347 OA
BRANCH  26  27
HETATM   27  C   UNK N   1      32.967  16.578   8.800  0.00  0.00     0.207 C 
BRANCH  27  28
HETATM   28  C   UNK N   1      34.010  15.587   9.312  0.00  0.00     0.152 C 
HETATM   29  C   UNK N   1      33.488  14.163   9.255  0.00  0.00     0.042 C 
BRANCH  28  30
HETATM   30  O   UNK N   1      34.439  15.935  10.585  0.00  0.00    -0.313 OA
BRANCH  30  31
HETATM   31  C   UNK N   1      35.683  15.686  11.081  0.00  0.00     0.281 C 
HETATM   32  O   UNK N   1      36.637  16.373  10.745  0.00  0.00    -0.263 OA
BRANCH  31  33
HETATM   33  C   UNK N   1      35.905  14.517  11.995  0.00  0.00     0.170 C 
HETATM   34  C   UNK N   1      36.870  13.527  11.372  0.00  0.00     0.042 C 
BRANCH  33  35
HETATM   35  N   UNK N   1      36.420  14.951  13.282  0.00  0.00    -0.418 N 
HETATM   36  H   UNK N   1      36.005  15.487  14.046  0.00  0.00     0.150 HD
HETATM   37  H   UNK N   1      37.383  14.666  13.457  0.00  0.00     0.150 HD
ENDBRANCH  33  35
ENDBRANCH  31  33
ENDBRANCH  30  31
ENDBRANCH  28  30
ENDBRANCH  27  28
ENDBRANCH  26  27
ENDBRANCH   4  26
TORSDOF 9
ENDMDL
MODEL 6
REMARK VINA RESULT:      -7.1      2.295      3.215
REMARK  9 active torsions:
REMARK  status: ('A' for Active; 'I' for Inactive)
REMARK    1  A    between atoms: C_9  and  O_12 
REMARK    2  A    between atoms: O_12  and  C_13 
REMARK    3  A    between atoms: C_16  and  O_24 
REMARK    4  A    between atoms: O_24  and  C_25 
REMARK    5  A    between atoms: C_25  and  C_26 
REMARK    6  A    between atoms: C_26  and  O_28 
REMARK    7  A    between atoms: O_28  and  C_29 
REMARK    8  A    between atoms: C_29  and  C_31 
REMARK    9  A    between atoms: C_31  and  N_33 
ROOT
HETATM    1  C   UNK N   1      27.254  19.166   5.265  0.00  0.00     0.178 A 
HETATM    2  C   UNK N   1      28.216  18.222   5.592  0.00  0.00     0.116 A 
HETATM    3  C   UNK N   1      28.745  17.188   4.851  0.00  0.00     0.006 A 
HETATM    4  C   UNK N   1      29.608  16.516   5.718  0.00  0.00     0.094 A 
HETATM    5  C   UNK N   1      29.583  17.171   6.941  0.00  0.00     0.154 A 
HETATM    6  N   UNK N   1      28.733  18.203   6.827  0.00  0.00    -0.259 N 
HETATM    7  N   UNK N   1      28.389  19.074   7.773  0.00  0.00    -0.289 N 
ATOM      8  HN  UNK N   1      28.815  19.030   8.699  1.00  0.00     0.188 HD
HETATM    9  C   UNK N   1      27.458  20.023   7.480  0.00  0.00     0.200 A 
HETATM   10  N   UNK N   1      26.885  20.052   6.241  0.00  0.00    -0.330 N 
ATOM     11  HN  UNK N   1      26.167  20.747   6.038  1.00  0.00     0.168 HD
HETATM   12  C   UNK N   1      28.419  16.844   3.435  0.00  0.00     0.054 C 
ENDROOT
BRANCH   1  13
HETATM   13  O   UNK N   1      26.639  19.130   4.054  0.00  0.00    -0.288 OA
BRANCH  13  14
HETATM   14  C   UNK N   1      25.297  19.227   3.913  0.00  0.00     0.117 A 
HETATM   15  C   UNK N   1      24.785  20.383   3.281  0.00  0.00     0.043 A 
HETATM   16  C   UNK N   1      23.420  20.490   2.969  0.00  0.00     0.033 A 
HETATM   17  C   UNK N   1      22.598  19.420   3.301  0.00  0.00     0.045 A 
HETATM   18  C   UNK N   1      23.072  18.315   3.952  0.00  0.00     0.034 A 
HETATM   19  N   UNK N   1      21.289  19.297   3.037  0.00  0.00    -0.359 N 
HETATM   20  C   UNK N   1      22.023  17.442   4.122  0.00  0.00     0.041 A 
HETATM   21  C   UNK N   1      24.412  18.185   4.297  0.00  0.00     0.162 A 
HETATM   22  C   UNK N   1      20.941  18.088   3.534  0.00  0.00     0.006 A 
HETATM   23  C   UNK N   1      19.572  17.520   3.423  0.00  0.00     0.068 C 
HETATM   24  F   UNK N   1      24.844  17.075   4.945  0.00  0.00    -0.202 F 
HETATM   25  H   UNK N   1      20.708  19.947   2.580  0.00  0.00     0.166 HD
ENDBRANCH  13  14
ENDBRANCH   1  13
BRANCH   4  26
HETATM   26  O   UNK N   1      30.344  15.412   5.467  0.00  0.00    -0.347 OA
BRANCH  26  27
HETATM   27  C   UNK N   1      31.239  15.314   4.427  0.00  0.00     0.207 C 
BRANCH  27  28
HETATM   28  C   UNK N   1      32.201  16.498   4.487  0.00  0.00     0.152 C 
HETATM   29  C   UNK N   1      32.560  16.983   3.094  0.00  0.00     0.042 C 
BRANCH  28  30
HETATM   30  O   UNK N   1      33.326  16.183   5.235  0.00  0.00    -0.313 OA
BRANCH  30  31
HETATM   31  C   UNK N   1      33.749  16.875   6.329  0.00  0.00     0.281 C 
HETATM   32  O   UNK N   1      34.273  17.974   6.207  0.00  0.00    -0.263 OA
BRANCH  31  33
HETATM   33  C   UNK N   1      33.639  16.261   7.694  0.00  0.00     0.170 C 
HETATM   34  C   UNK N   1      33.363  17.325   8.737  0.00  0.00     0.042 C 
BRANCH  33  35
HETATM   35  N   UNK N   1      32.587  15.259   7.732  0.00  0.00    -0.418 N 
HETATM   36  H   UNK N   1      32.407  14.426   7.171  0.00  0.00     0.150 HD
HETATM   37  H   UNK N   1      31.893  15.420   8.461  0.00  0.00     0.150 HD
ENDBRANCH  33  35
ENDBRANCH  31  33
ENDBRANCH  30  31
ENDBRANCH  28  30
ENDBRANCH  27  28
ENDBRANCH  26  27
ENDBRANCH   4  26
TORSDOF 9
ENDMDL
MODEL 7
REMARK VINA RESULT:      -7.1      1.964      2.229
REMARK  9 active torsions:
REMARK  status: ('A' for Active; 'I' for Inactive)
REMARK    1  A    between atoms: C_9  and  O_12 
REMARK    2  A    between atoms: O_12  and  C_13 
REMARK    3  A    between atoms: C_16  and  O_24 
REMARK    4  A    between atoms: O_24  and  C_25 
REMARK    5  A    between atoms: C_25  and  C_26 
REMARK    6  A    between atoms: C_26  and  O_28 
REMARK    7  A    between atoms: O_28  and  C_29 
REMARK    8  A    between atoms: C_29  and  C_31 
REMARK    9  A    between atoms: C_31  and  N_33 
ROOT
HETATM    1  C   UNK N   1      29.145  17.512   7.122  0.00  0.00     0.178 A 
HETATM    2  C   UNK N   1      30.528  17.463   7.202  0.00  0.00     0.116 A 
HETATM    3  C   UNK N   1      31.475  17.232   6.228  0.00  0.00     0.006 A 
HETATM    4  C   UNK N   1      32.698  17.213   6.900  0.00  0.00     0.094 A 
HETATM    5  C   UNK N   1      32.452  17.446   8.246  0.00  0.00     0.154 A 
HETATM    6  N   UNK N   1      31.127  17.599   8.391  0.00  0.00    -0.259 N 
HETATM    7  N   UNK N   1      30.459  17.809   9.523  0.00  0.00    -0.289 N 
ATOM      8  HN  UNK N   1      30.956  17.917  10.408  1.00  0.00     0.188 HD
HETATM    9  C   UNK N   1      29.100  17.877   9.476  0.00  0.00     0.200 A 
HETATM   10  N   UNK N   1      28.453  17.711   8.285  0.00  0.00    -0.330 N 
ATOM     11  HN  UNK N   1      27.434  17.734   8.263  1.00  0.00     0.168 HD
HETATM   12  C   UNK N   1      31.225  17.004   4.774  0.00  0.00     0.054 C 
ENDROOT
BRANCH   1  13
HETATM   13  O   UNK N   1      28.516  17.266   5.943  0.00  0.00    -0.288 OA
BRANCH  13  14
HETATM   14  C   UNK N   1      27.620  18.123   5.400  0.00  0.00     0.117 A 
HETATM   15  C   UNK N   1      28.117  19.311   4.819  0.00  0.00     0.043 A 
HETATM   16  C   UNK N   1      27.270  20.178   4.109  0.00  0.00     0.033 A 
HETATM   17  C   UNK N   1      25.931  19.821   3.999  0.00  0.00     0.045 A 
HETATM   18  C   UNK N   1      25.429  18.697   4.593  0.00  0.00     0.034 A 
HETATM   19  N   UNK N   1      24.978  20.472   3.318  0.00  0.00    -0.359 N 
HETATM   20  C   UNK N   1      24.090  18.621   4.288  0.00  0.00     0.041 A 
HETATM   21  C   UNK N   1      26.233  17.829   5.321  0.00  0.00     0.162 A 
HETATM   22  C   UNK N   1      23.855  19.737   3.492  0.00  0.00     0.006 A 
HETATM   23  C   UNK N   1      22.550  20.075   2.868  0.00  0.00     0.068 C 
HETATM   24  F   UNK N   1      25.696  16.726   5.899  0.00  0.00    -0.202 F 
HETATM   25  H   UNK N   1      25.074  21.306   2.803  0.00  0.00     0.166 HD
ENDBRANCH  13  14
ENDBRANCH   1  13
BRANCH   4  26
HETATM   26  O   UNK N   1      33.926  16.992   6.383  0.00  0.00    -0.347 OA
BRANCH  26  27
HETATM   27  C   UNK N   1      34.313  15.797   5.823  0.00  0.00     0.207 C 
BRANCH  27  28
HETATM   28  C   UNK N   1      34.712  14.832   6.938  0.00  0.00     0.152 C 
HETATM   29  C   UNK N   1      36.176  14.447   6.831  0.00  0.00     0.042 C 
BRANCH  28  30
HETATM   30  O   UNK N   1      33.879  13.724   6.952  0.00  0.00    -0.313 OA
BRANCH  30  31
HETATM   31  C   UNK N   1      33.163  13.304   8.031  0.00  0.00     0.281 C 
HETATM   32  O   UNK N   1      32.252  13.988   8.479  0.00  0.00    -0.263 OA
BRANCH  31  33
HETATM   33  C   UNK N   1      33.531  12.025   8.725  0.00  0.00     0.170 C 
HETATM   34  C   UNK N   1      34.654  12.259   9.715  0.00  0.00     0.042 C 
BRANCH  33  35
HETATM   35  N   UNK N   1      32.385  11.458   9.416  0.00  0.00    -0.418 N 
HETATM   36  H   UNK N   1      31.410  11.329   9.144  0.00  0.00     0.150 HD
HETATM   37  H   UNK N   1      32.597  11.122  10.355  0.00  0.00     0.150 HD
ENDBRANCH  33  35
ENDBRANCH  31  33
ENDBRANCH  30  31
ENDBRANCH  28  30
ENDBRANCH  27  28
ENDBRANCH  26  27
ENDBRANCH   4  26
TORSDOF 9
ENDMDL
MODEL 8
REMARK VINA RESULT:      -6.8      2.780      4.720
REMARK  9 active torsions:
REMARK  status: ('A' for Active; 'I' for Inactive)
REMARK    1  A    between atoms: C_9  and  O_12 
REMARK    2  A    between atoms: O_12  and  C_13 
REMARK    3  A    between atoms: C_16  and  O_24 
REMARK    4  A    between atoms: O_24  and  C_25 
REMARK    5  A    between atoms: C_25  and  C_26 
REMARK    6  A    between atoms: C_26  and  O_28 
REMARK    7  A    between atoms: O_28  and  C_29 
REMARK    8  A    between atoms: C_29  and  C_31 
REMARK    9  A    between atoms: C_31  and  N_33 
ROOT
HETATM    1  C   UNK N   1      24.875  18.457   4.439  0.00  0.00     0.178 A 
HETATM    2  C   UNK N   1      26.157  18.084   4.814  0.00  0.00     0.116 A 
HETATM    3  C   UNK N   1      26.594  17.039   5.599  0.00  0.00     0.006 A 
HETATM    4  C   UNK N   1      27.975  17.209   5.704  0.00  0.00     0.094 A 
HETATM    5  C   UNK N   1      28.326  18.335   4.973  0.00  0.00     0.154 A 
HETATM    6  N   UNK N   1      27.200  18.837   4.442  0.00  0.00    -0.259 N 
HETATM    7  N   UNK N   1      27.079  19.931   3.696  0.00  0.00    -0.289 N 
ATOM      8  HN  UNK N   1      27.902  20.472   3.426  1.00  0.00     0.188 HD
HETATM    9  C   UNK N   1      25.835  20.316   3.298  0.00  0.00     0.200 A 
HETATM   10  N   UNK N   1      24.745  19.591   3.686  0.00  0.00    -0.330 N 
ATOM     11  HN  UNK N   1      23.813  19.902   3.409  1.00  0.00     0.168 HD
HETATM   12  C   UNK N   1      25.750  15.984   6.233  0.00  0.00     0.054 C 
ENDROOT
BRANCH   1  13
HETATM   13  O   UNK N   1      23.798  17.768   4.899  0.00  0.00    -0.288 OA
BRANCH  13  14
HETATM   14  C   UNK N   1      22.650  17.649   4.191  0.00  0.00     0.117 A 
HETATM   15  C   UNK N   1      21.672  18.657   4.352  0.00  0.00     0.043 A 
HETATM   16  C   UNK N   1      20.522  18.682   3.546  0.00  0.00     0.033 A 
HETATM   17  C   UNK N   1      20.386  17.684   2.589  0.00  0.00     0.045 A 
HETATM   18  C   UNK N   1      21.303  16.679   2.452  0.00  0.00     0.034 A 
HETATM   19  N   UNK N   1      19.402  17.563   1.686  0.00  0.00    -0.359 N 
HETATM   20  C   UNK N   1      20.891  15.868   1.421  0.00  0.00     0.041 A 
HETATM   21  C   UNK N   1      22.441  16.610   3.247  0.00  0.00     0.162 A 
HETATM   22  C   UNK N   1      19.713  16.457   0.971  0.00  0.00     0.006 A 
HETATM   23  C   UNK N   1      18.905  15.969  -0.176  0.00  0.00     0.068 C 
HETATM   24  F   UNK N   1      23.325  15.595   3.084  0.00  0.00    -0.202 F 
HETATM   25  H   UNK N   1      18.622  18.152   1.570  0.00  0.00     0.166 HD
ENDBRANCH  13  14
ENDBRANCH   1  13
BRANCH   4  26
HETATM   26  O   UNK N   1      28.854  16.453   6.396  0.00  0.00    -0.347 OA
BRANCH  26  27
HETATM   27  C   UNK N   1      30.219  16.553   6.257  0.00  0.00     0.207 C 
BRANCH  27  28
HETATM   28  C   UNK N   1      30.858  16.595   7.644  0.00  0.00     0.152 C 
HETATM   29  C   UNK N   1      30.468  17.858   8.389  0.00  0.00     0.042 C 
BRANCH  28  30
HETATM   30  O   UNK N   1      32.234  16.443   7.558  0.00  0.00    -0.313 OA
BRANCH  30  31
HETATM   31  C   UNK N   1      33.051  16.158   8.609  0.00  0.00     0.281 C 
HETATM   32  O   UNK N   1      32.726  15.326   9.444  0.00  0.00    -0.263 OA
BRANCH  31  33
HETATM   33  C   UNK N   1      34.333  16.917   8.789  0.00  0.00     0.170 C 
HETATM   34  C   UNK N   1      34.249  18.274   8.120  0.00  0.00     0.042 C 
BRANCH  33  35
HETATM   35  N   UNK N   1      34.644  17.090  10.198  0.00  0.00    -0.418 N 
HETATM   36  H   UNK N   1      35.491  16.925  10.743  0.00  0.00     0.150 HD
HETATM   37  H   UNK N   1      33.864  17.445  10.750  0.00  0.00     0.150 HD
ENDBRANCH  33  35
ENDBRANCH  31  33
ENDBRANCH  30  31
ENDBRANCH  28  30
ENDBRANCH  27  28
ENDBRANCH  26  27
ENDBRANCH   4  26
TORSDOF 9
ENDMDL
MODEL 9
REMARK VINA RESULT:      -6.8      3.351     10.671
REMARK  9 active torsions:
REMARK  status: ('A' for Active; 'I' for Inactive)
REMARK    1  A    between atoms: C_9  and  O_12 
REMARK    2  A    between atoms: O_12  and  C_13 
REMARK    3  A    between atoms: C_16  and  O_24 
REMARK    4  A    between atoms: O_24  and  C_25 
REMARK    5  A    between atoms: C_25  and  C_26 
REMARK    6  A    between atoms: C_26  and  O_28 
REMARK    7  A    between atoms: O_28  and  C_29 
REMARK    8  A    between atoms: C_29  and  C_31 
REMARK    9  A    between atoms: C_31  and  N_33 
ROOT
HETATM    1  C   UNK N   1      27.734  18.113   4.655  0.00  0.00     0.178 A 
HETATM    2  C   UNK N   1      26.389  17.801   4.784  0.00  0.00     0.116 A 
HETATM    3  C   UNK N   1      25.773  16.652   5.230  0.00  0.00     0.006 A 
HETATM    4  C   UNK N   1      24.407  16.874   5.057  0.00  0.00     0.094 A 
HETATM    5  C   UNK N   1      24.242  18.147   4.530  0.00  0.00     0.154 A 
HETATM    6  N   UNK N   1      25.464  18.682   4.382  0.00  0.00    -0.259 N 
HETATM    7  N   UNK N   1      25.766  19.877   3.880  0.00  0.00    -0.289 N 
ATOM      8  HN  UNK N   1      25.030  20.523   3.594  1.00  0.00     0.188 HD
HETATM    9  C   UNK N   1      27.078  20.219   3.753  0.00  0.00     0.200 A 
HETATM   10  N   UNK N   1      28.049  19.333   4.122  0.00  0.00    -0.330 N 
ATOM     11  HN  UNK N   1      29.030  19.585   3.998  1.00  0.00     0.168 HD
HETATM   12  C   UNK N   1      26.444  15.421   5.742  0.00  0.00     0.054 C 
ENDROOT
BRANCH   1  13
HETATM   13  O   UNK N   1      28.685  17.189   4.952  0.00  0.00    -0.288 OA
BRANCH  13  14
HETATM   14  C   UNK N   1      29.582  17.360   5.951  0.00  0.00     0.117 A 
HETATM   15  C   UNK N   1      29.081  17.637   7.244  0.00  0.00     0.043 A 
HETATM   16  C   UNK N   1      29.938  17.684   8.355  0.00  0.00     0.033 A 
HETATM   17  C   UNK N   1      31.289  17.445   8.137  0.00  0.00     0.045 A 
HETATM   18  C   UNK N   1      31.793  17.219   6.886  0.00  0.00     0.034 A 
HETATM   19  N   UNK N   1      32.256  17.383   9.063  0.00  0.00    -0.359 N 
HETATM   20  C   UNK N   1      33.146  17.008   7.007  0.00  0.00     0.041 A 
HETATM   21  C   UNK N   1      30.978  17.189   5.760  0.00  0.00     0.162 A 
HETATM   22  C   UNK N   1      33.388  17.112   8.373  0.00  0.00     0.006 A 
HETATM   23  C   UNK N   1      34.713  16.915   9.017  0.00  0.00     0.068 C 
HETATM   24  F   UNK N   1      31.516  16.966   4.536  0.00  0.00    -0.202 F 
HETATM   25  H   UNK N   1      32.162  17.508  10.035  0.00  0.00     0.166 HD
ENDBRANCH  13  14
ENDBRANCH   1  13
BRANCH   4  26
HETATM   26  O   UNK N   1      23.388  16.029   5.323  0.00  0.00    -0.347 OA
BRANCH  26  27
HETATM   27  C   UNK N   1      22.410  16.284   6.256  0.00  0.00     0.207 C 
BRANCH  27  28
HETATM   28  C   UNK N   1      21.086  16.529   5.535  0.00  0.00     0.152 C 
HETATM   29  C   UNK N   1      20.051  15.489   5.920  0.00  0.00     0.042 C 
BRANCH  28  30
HETATM   30  O   UNK N   1      21.277  16.593   4.163  0.00  0.00    -0.313 OA
BRANCH  30  31
HETATM   31  C   UNK N   1      20.295  16.842   3.252  0.00  0.00     0.281 C 
HETATM   32  O   UNK N   1      19.861  15.945   2.543  0.00  0.00    -0.263 OA
BRANCH  31  33
HETATM   33  C   UNK N   1      19.784  18.240   3.064  0.00  0.00     0.170 C 
HETATM   34  C   UNK N   1      20.933  19.204   2.845  0.00  0.00     0.042 C 
BRANCH  33  35
HETATM   35  N   UNK N   1      18.868  18.314   1.939  0.00  0.00    -0.418 N 
HETATM   36  H   UNK N   1      17.898  18.019   1.818  0.00  0.00     0.150 HD
HETATM   37  H   UNK N   1      19.272  18.744   1.107  0.00  0.00     0.150 HD
ENDBRANCH  33  35
ENDBRANCH  31  33
ENDBRANCH  30  31
ENDBRANCH  28  30
ENDBRANCH  27  28
ENDBRANCH  26  27
ENDBRANCH   4  26
TORSDOF 9
ENDMDL
