REMARK  7 active torsions:
REMARK  status: ('A' for Active; 'I' for Inactive)
REMARK    1  A    between atoms: C_9  and  C_22 
REMARK    2  A    between atoms: C_10  and  N_13 
REMARK    3  A    between atoms: N_13  and  C_14 
REMARK       I    between atoms: C_22  and  N_24 
REMARK    4  A    between atoms: N_24  and  O_25 
REMARK    5  A    between atoms: O_25  and  C_26 
REMARK    6  A    between atoms: C_26  and  C_27 
REMARK    7  A    between atoms: C_27  and  O_28 
ROOT
HETATM    1  C   UNK N   1       0.686   7.174   0.006  0.00  0.00     0.157 C 
HETATM    2  N   UNK N   1      -0.433   6.249   0.009  0.00  0.00    -0.345 N 
HETATM    3  C   UNK N   1      -1.746   6.580   0.012  0.00  0.00     0.183 A 
HETATM    4  N   UNK N   1      -2.530   5.470   0.011  0.00  0.00    -0.348 N 
ATOM      5  HN  UNK N   1      -3.549   5.426   0.013  1.00  0.00     0.167 HD
HETATM    6  C   UNK N   1      -1.659   4.440   0.007  0.00  0.00     0.101 A 
HETATM    7  C   UNK N   1      -0.394   4.912   0.007  0.00  0.00     0.066 A 
HETATM    8  C   UNK N   1       0.709   4.069   0.001  0.00  0.00     0.051 A 
HETATM    9  C   UNK N   1       0.494   2.671  -0.008  0.00  0.00     0.066 A 
HETATM   10  C   UNK N   1      -0.861   2.157  -0.006  0.00  0.00     0.090 A 
HETATM   11  C   UNK N   1      -1.952   3.086   0.003  0.00  0.00     0.172 A 
HETATM   12  F   UNK N   1      -3.250   2.728   0.006  0.00  0.00    -0.201 F 
ENDROOT
BRANCH  10  13
HETATM   13  N   UNK N   1      -1.029   0.731  -0.007  0.00  0.00    -0.350 N 
HETATM   14  H   UNK N   1      -0.165   0.260  -0.012  0.00  0.00     0.166 HD
BRANCH  13  15
HETATM   15  C   UNK N   1      -2.129  -0.177  -0.004  0.00  0.00     0.071 A 
HETATM   16  C   UNK N   1      -3.464   0.235  -0.003  0.00  0.00     0.034 A 
HETATM   17  C   UNK N   1      -4.504  -0.697  -0.001  0.00  0.00     0.021 A 
HETATM   18  C   UNK N   1      -4.215  -2.062   0.001  0.00  0.00     0.014 A 
HETATM   19  C   UNK N   1      -2.887  -2.491   0.000  0.00  0.00     0.063 A 
HETATM   20 Br   UNK N   1      -5.631  -3.335   0.002  0.00  0.00    -0.051 Br
HETATM   21  C   UNK N   1      -1.849  -1.555  -0.002  0.00  0.00     0.144 A 
HETATM   22  F   UNK N   1      -0.564  -1.989  -0.002  0.00  0.00    -0.204 F 
ENDBRANCH  13  15
ENDBRANCH  10  13
BRANCH   9  23
HETATM   23  C   UNK N   1       1.683   1.736  -0.034  0.00  0.00     0.277 C 
HETATM   24  O   UNK N   1       1.497   0.534  -0.123  0.00  0.00    -0.265 OA
HETATM   25  N   UNK N   1       2.970   2.160   0.036  0.00  0.00    -0.231 N 
HETATM   26  H   UNK N   1       3.680   1.480  -0.019  0.00  0.00     0.197 HD
BRANCH  25  27
HETATM   27  O   UNK N   1       3.343   3.441   0.172  0.00  0.00    -0.275 OA
BRANCH  27  28
HETATM   28  C   UNK N   1       4.620   3.500  -0.405  0.00  0.00     0.227 C 
BRANCH  28  29
HETATM   29  C   UNK N   1       5.649   2.781   0.463  0.00  0.00     0.192 C 
BRANCH  29  30
HETATM   30  O   UNK N   1       6.903   2.843  -0.142  0.00  0.00    -0.399 OA
HETATM   31  H   UNK N   1       7.377   2.109  -0.564  0.00  0.00     0.209 HD
ENDBRANCH  29  30
ENDBRANCH  28  29
ENDBRANCH  27  28
ENDBRANCH  25  27
ENDBRANCH   9  23
TORSDOF 7
