MODEL 1
REMARK VINA RESULT:      -7.8      0.000      0.000
REMARK  10 active torsions:
REMARK  status: ('A' for Active; 'I' for Inactive)
REMARK    1  A    between atoms: C_2  and  C_3 
REMARK    2  A    between atoms: C_9  and  C_12 
REMARK    3  A    between atoms: C_14  and  S_22 
REMARK    4  A    between atoms: C_18  and  O_19 
REMARK    5  A    between atoms: O_19  and  C_20 
REMARK    6  A    between atoms: S_22  and  N_25 
REMARK    7  A    between atoms: N_28  and  C_31 
REMARK    8  A    between atoms: N_35  and  C_36 
REMARK    9  A    between atoms: C_36  and  C_37 
REMARK   10  A    between atoms: C_37  and  O_38 
ROOT
HETATM    1  C   UNK N   1      26.993  16.812   5.966  0.00  0.00     0.060 A 
HETATM    2  C   UNK N   1      26.037  15.864   6.398  0.00  0.00     0.045 A 
HETATM    3  C   UNK N   1      24.889  15.623   5.629  0.00  0.00     0.091 A 
HETATM    4  C   UNK N   1      24.725  16.315   4.429  0.00  0.00     0.115 A 
HETATM    5  N   UNK N   1      25.653  17.210   4.012  0.00  0.00    -0.345 N 
ATOM      6  HN  UNK N   1      25.507  17.696   3.127  1.00  0.00     0.167 HD
HETATM    7  C   UNK N   1      26.773  17.481   4.735  0.00  0.00     0.156 A 
ENDROOT
BRANCH   1   8
HETATM    8  C   UNK N   1      28.183  17.113   6.810  0.00  0.00     0.123 A 
HETATM    9  N   UNK N   1      28.024  17.683   8.054  0.00  0.00    -0.307 N 
HETATM   10  C   UNK N   1      29.115  18.029   8.826  0.00  0.00     0.277 A 
HETATM   11  H   UNK N   1      27.117  17.847   8.400  0.00  0.00     0.170 HD
HETATM   12  C   UNK N   1      30.379  17.809   8.300  0.00  0.00     0.145 A 
HETATM   13  O   UNK N   1      28.967  18.531   9.925  0.00  0.00    -0.266 OA
HETATM   14  C   UNK N   1      30.510  17.247   7.075  0.00  0.00     0.092 A 
HETATM   15  N   UNK N   1      31.594  18.092   8.810  0.00  0.00    -0.291 N 
HETATM   16  C   UNK N   1      31.859  17.190   6.825  0.00  0.00     0.057 A 
HETATM   17  N   UNK N   1      29.447  16.887   6.323  0.00  0.00    -0.338 N 
HETATM   18  N   UNK N   1      32.494  17.716   7.900  0.00  0.00    -0.291 N 
ATOM     19  HN  UNK N   1      29.582  16.454   5.409  1.00  0.00     0.167 HD
ATOM     20  HN  UNK N   1      31.789  18.515   9.717  1.00  0.00     0.187 HD
BRANCH  16  21
HETATM   21  C   UNK N   1      32.536  16.683   5.591  0.00  0.00     0.057 C 
HETATM   22  C   UNK N   1      32.502  17.732   4.499  0.00  0.00     0.011 C 
ENDBRANCH  16  21
BRANCH  18  23
HETATM   23  C   UNK N   1      33.930  17.891   8.060  0.00  0.00     0.175 C 
BRANCH  23  24
HETATM   24  C   UNK N   1      34.482  16.871   9.041  0.00  0.00     0.188 C 
BRANCH  24  25
HETATM   25  O   UNK N   1      35.321  17.502   9.959  0.00  0.00    -0.394 OA
HETATM   26  C   UNK N   1      35.613  16.518  10.906  0.00  0.00     0.201 C 
ENDBRANCH  24  25
ENDBRANCH  23  24
ENDBRANCH  18  23
ENDBRANCH   1   8
BRANCH   7  27
HETATM   27  O   UNK N   1      27.672  18.382   4.269  0.00  0.00    -0.335 OA
BRANCH  27  28
HETATM   28  C   UNK N   1      27.345  19.695   4.020  0.00  0.00     0.173 C 
HETATM   29  C   UNK N   1      27.439  20.492   5.304  0.00  0.00     0.034 C 
ENDBRANCH  27  28
ENDBRANCH   7  27
BRANCH   3  30
HETATM   30  S   UNK N   1      23.640  14.389   6.069  0.00  0.00     0.245 S 
HETATM   31  O   UNK N   1      22.536  14.229   5.014  0.00  0.00    -0.206 OA
HETATM   32  O   UNK N   1      22.818  15.066   7.180  0.00  0.00    -0.206 OA
BRANCH  30  33
HETATM   33  N   UNK N   1      23.936  12.781   6.793  0.00  0.00    -0.203 NA
HETATM   34  C   UNK N   1      22.705  11.998   6.998  0.00  0.00     0.138 C 
HETATM   35  C   UNK N   1      21.999  12.306   8.332  0.00  0.00     0.287 C 
HETATM   36  N   UNK N   1      22.940  12.201   9.443  0.00  0.00     0.090 N 
HETATM   37  C   UNK N   1      23.935  13.245   9.241  0.00  0.00     0.287 C 
HETATM   38  C   UNK N   1      24.764  12.889   8.008  0.00  0.00     0.138 C 
BRANCH  36  39
HETATM   39  C   UNK N   1      22.212  12.478  10.676  0.00  0.00     0.268 C 
HETATM   40  C   UNK N   1      22.977  11.957  11.886  0.00  0.00     0.037 C 
ENDBRANCH  36  39
ENDBRANCH  30  33
ENDBRANCH   3  30
TORSDOF 10
ENDMDL
MODEL 2
REMARK VINA RESULT:      -7.8      3.087      4.028
REMARK  10 active torsions:
REMARK  status: ('A' for Active; 'I' for Inactive)
REMARK    1  A    between atoms: C_2  and  C_3 
REMARK    2  A    between atoms: C_9  and  C_12 
REMARK    3  A    between atoms: C_14  and  S_22 
REMARK    4  A    between atoms: C_18  and  O_19 
REMARK    5  A    between atoms: O_19  and  C_20 
REMARK    6  A    between atoms: S_22  and  N_25 
REMARK    7  A    between atoms: N_28  and  C_31 
REMARK    8  A    between atoms: N_35  and  C_36 
REMARK    9  A    between atoms: C_36  and  C_37 
REMARK   10  A    between atoms: C_37  and  O_38 
ROOT
HETATM    1  C   UNK N   1      27.338  17.960   5.991  0.00  0.00     0.060 A 
HETATM    2  C   UNK N   1      26.575  16.802   5.718  0.00  0.00     0.045 A 
HETATM    3  C   UNK N   1      25.375  16.904   4.998  0.00  0.00     0.091 A 
HETATM    4  C   UNK N   1      24.968  18.158   4.542  0.00  0.00     0.115 A 
HETATM    5  N   UNK N   1      25.713  19.262   4.794  0.00  0.00    -0.345 N 
ATOM      6  HN  UNK N   1      25.391  20.165   4.442  1.00  0.00     0.167 HD
HETATM    7  C   UNK N   1      26.875  19.206   5.498  0.00  0.00     0.156 A 
ENDROOT
BRANCH   1   8
HETATM    8  C   UNK N   1      28.582  17.862   6.806  0.00  0.00     0.123 A 
HETATM    9  N   UNK N   1      28.601  18.334   8.100  0.00  0.00    -0.307 N 
HETATM   10  C   UNK N   1      29.758  18.313   8.851  0.00  0.00     0.277 A 
HETATM   11  H   UNK N   1      27.775  18.695   8.497  0.00  0.00     0.170 HD
HETATM   12  C   UNK N   1      30.910  17.823   8.256  0.00  0.00     0.145 A 
HETATM   13  O   UNK N   1      29.767  18.731   9.995  0.00  0.00    -0.266 OA
HETATM   14  C   UNK N   1      30.867  17.363   6.983  0.00  0.00     0.092 A 
HETATM   15  N   UNK N   1      32.167  17.732   8.735  0.00  0.00    -0.291 N 
HETATM   16  C   UNK N   1      32.148  16.982   6.670  0.00  0.00     0.057 A 
HETATM   17  N   UNK N   1      29.733  17.363   6.249  0.00  0.00    -0.338 N 
HETATM   18  N   UNK N   1      32.919  17.223   7.759  0.00  0.00    -0.291 N 
ATOM     19  HN  UNK N   1      29.732  16.997   5.296  1.00  0.00     0.167 HD
ATOM     20  HN  UNK N   1      32.482  18.003   9.666  1.00  0.00     0.187 HD
BRANCH  16  21
HETATM   21  C   UNK N   1      32.646  16.434   5.371  0.00  0.00     0.057 C 
HETATM   22  C   UNK N   1      32.857  17.553   4.371  0.00  0.00     0.011 C 
ENDBRANCH  16  21
BRANCH  18  23
HETATM   23  C   UNK N   1      34.354  17.004   7.871  0.00  0.00     0.175 C 
BRANCH  23  24
HETATM   24  C   UNK N   1      34.677  16.260   9.157  0.00  0.00     0.188 C 
BRANCH  24  25
HETATM   25  O   UNK N   1      34.942  17.172  10.178  0.00  0.00    -0.394 OA
HETATM   26  C   UNK N   1      35.471  16.399  11.213  0.00  0.00     0.201 C 
ENDBRANCH  24  25
ENDBRANCH  23  24
ENDBRANCH  18  23
ENDBRANCH   1   8
BRANCH   7  27
HETATM   27  O   UNK N   1      27.584  20.341   5.716  0.00  0.00    -0.335 OA
BRANCH  27  28
HETATM   28  C   UNK N   1      26.987  21.534   6.053  0.00  0.00     0.173 C 
HETATM   29  C   UNK N   1      26.323  21.404   7.408  0.00  0.00     0.034 C 
ENDBRANCH  27  28
ENDBRANCH   7  27
BRANCH   3  30
HETATM   30  S   UNK N   1      24.361  15.474   4.549  0.00  0.00     0.245 S 
HETATM   31  O   UNK N   1      22.874  15.809   4.363  0.00  0.00    -0.206 OA
HETATM   32  O   UNK N   1      24.265  14.658   5.851  0.00  0.00    -0.206 OA
BRANCH  30  33
HETATM   33  N   UNK N   1      24.780  14.194   3.374  0.00  0.00    -0.203 NA
HETATM   34  C   UNK N   1      25.880  13.323   3.825  0.00  0.00     0.138 C 
HETATM   35  C   UNK N   1      27.277  13.880   3.493  0.00  0.00     0.287 C 
HETATM   36  N   UNK N   1      27.364  14.231   2.079  0.00  0.00     0.090 N 
HETATM   37  C   UNK N   1      26.415  15.315   1.863  0.00  0.00     0.287 C 
HETATM   38  C   UNK N   1      25.001  14.758   2.029  0.00  0.00     0.138 C 
BRANCH  36  39
HETATM   39  C   UNK N   1      28.710  14.727   1.821  0.00  0.00     0.268 C 
HETATM   40  C   UNK N   1      29.205  15.580   2.983  0.00  0.00     0.037 C 
ENDBRANCH  36  39
ENDBRANCH  30  33
ENDBRANCH   3  30
TORSDOF 10
ENDMDL
MODEL 3
REMARK VINA RESULT:      -7.7     13.186     15.776
REMARK  10 active torsions:
REMARK  status: ('A' for Active; 'I' for Inactive)
REMARK    1  A    between atoms: C_2  and  C_3 
REMARK    2  A    between atoms: C_9  and  C_12 
REMARK    3  A    between atoms: C_14  and  S_22 
REMARK    4  A    between atoms: C_18  and  O_19 
REMARK    5  A    between atoms: O_19  and  C_20 
REMARK    6  A    between atoms: S_22  and  N_25 
REMARK    7  A    between atoms: N_28  and  C_31 
REMARK    8  A    between atoms: N_35  and  C_36 
REMARK    9  A    between atoms: C_36  and  C_37 
REMARK   10  A    between atoms: C_37  and  O_38 
ROOT
HETATM    1  C   UNK N   1      27.566  24.120  -4.982  0.00  0.00     0.060 A 
HETATM    2  C   UNK N   1      27.316  25.398  -4.431  0.00  0.00     0.045 A 
HETATM    3  C   UNK N   1      26.316  26.216  -4.979  0.00  0.00     0.091 A 
HETATM    4  C   UNK N   1      25.568  25.737  -6.054  0.00  0.00     0.115 A 
HETATM    5  N   UNK N   1      25.802  24.505  -6.567  0.00  0.00    -0.345 N 
ATOM      6  HN  UNK N   1      25.233  24.180  -7.350  1.00  0.00     0.167 HD
HETATM    7  C   UNK N   1      26.769  23.686  -6.072  0.00  0.00     0.156 A 
ENDROOT
BRANCH   1   8
HETATM    8  C   UNK N   1      28.666  23.274  -4.440  0.00  0.00     0.123 A 
HETATM    9  N   UNK N   1      29.082  23.429  -3.137  0.00  0.00    -0.307 N 
HETATM   10  C   UNK N   1      30.141  22.701  -2.633  0.00  0.00     0.277 A 
HETATM   11  H   UNK N   1      28.618  24.072  -2.553  0.00  0.00     0.170 HD
HETATM   12  C   UNK N   1      30.791  21.824  -3.488  0.00  0.00     0.145 A 
HETATM   13  O   UNK N   1      30.504  22.844  -1.480  0.00  0.00    -0.266 OA
HETATM   14  C   UNK N   1      30.362  21.686  -4.765  0.00  0.00     0.092 A 
HETATM   15  N   UNK N   1      31.865  21.038  -3.276  0.00  0.00    -0.291 N 
HETATM   16  C   UNK N   1      31.212  20.786  -5.358  0.00  0.00     0.057 A 
HETATM   17  N   UNK N   1      29.314  22.381  -5.258  0.00  0.00    -0.338 N 
HETATM   18  N   UNK N   1      32.120  20.410  -4.424  0.00  0.00    -0.291 N 
ATOM     19  HN  UNK N   1      29.009  22.244  -6.223  1.00  0.00     0.167 HD
ATOM     20  HN  UNK N   1      32.384  20.942  -2.403  1.00  0.00     0.187 HD
BRANCH  16  21
HETATM   21  C   UNK N   1      31.192  20.311  -6.776  0.00  0.00     0.057 C 
HETATM   22  C   UNK N   1      29.889  19.599  -7.078  0.00  0.00     0.011 C 
ENDBRANCH  16  21
BRANCH  18  23
HETATM   23  C   UNK N   1      33.234  19.494  -4.618  0.00  0.00     0.175 C 
BRANCH  23  24
HETATM   24  C   UNK N   1      34.531  20.129  -4.144  0.00  0.00     0.188 C 
BRANCH  24  25
HETATM   25  O   UNK N   1      35.607  19.297  -4.451  0.00  0.00    -0.394 OA
HETATM   26  C   UNK N   1      35.022  18.084  -4.818  0.00  0.00     0.201 C 
ENDBRANCH  24  25
ENDBRANCH  23  24
ENDBRANCH  18  23
ENDBRANCH   1   8
BRANCH   7  27
HETATM   27  O   UNK N   1      26.957  22.461  -6.619  0.00  0.00    -0.335 OA
BRANCH  27  28
HETATM   28  C   UNK N   1      26.630  22.174  -7.925  0.00  0.00     0.173 C 
HETATM   29  C   UNK N   1      25.525  21.138  -7.954  0.00  0.00     0.034 C 
ENDBRANCH  27  28
ENDBRANCH   7  27
BRANCH   3  30
HETATM   30  S   UNK N   1      25.884  27.840  -4.307  0.00  0.00     0.245 S 
HETATM   31  O   UNK N   1      25.395  27.792  -2.852  0.00  0.00    -0.206 OA
HETATM   32  O   UNK N   1      24.554  28.190  -4.997  0.00  0.00    -0.206 OA
BRANCH  30  33
HETATM   33  N   UNK N   1      26.794  29.364  -4.525  0.00  0.00    -0.203 NA
HETATM   34  C   UNK N   1      28.052  29.191  -5.272  0.00  0.00     0.138 C 
HETATM   35  C   UNK N   1      29.240  28.780  -4.383  0.00  0.00     0.287 C 
HETATM   36  N   UNK N   1      29.365  29.688  -3.247  0.00  0.00     0.090 N 
HETATM   37  C   UNK N   1      28.160  29.517  -2.446  0.00  0.00     0.287 C 
HETATM   38  C   UNK N   1      26.974  30.063  -3.239  0.00  0.00     0.138 C 
BRANCH  36  39
HETATM   39  C   UNK N   1      30.517  29.265  -2.458  0.00  0.00     0.268 C 
HETATM   40  C   UNK N   1      31.023  27.906  -2.926  0.00  0.00     0.037 C 
ENDBRANCH  36  39
ENDBRANCH  30  33
ENDBRANCH   3  30
TORSDOF 10
ENDMDL
MODEL 4
REMARK VINA RESULT:      -7.7      2.099      2.508
REMARK  10 active torsions:
REMARK  status: ('A' for Active; 'I' for Inactive)
REMARK    1  A    between atoms: C_2  and  C_3 
REMARK    2  A    between atoms: C_9  and  C_12 
REMARK    3  A    between atoms: C_14  and  S_22 
REMARK    4  A    between atoms: C_18  and  O_19 
REMARK    5  A    between atoms: O_19  and  C_20 
REMARK    6  A    between atoms: S_22  and  N_25 
REMARK    7  A    between atoms: N_28  and  C_31 
REMARK    8  A    between atoms: N_35  and  C_36 
REMARK    9  A    between atoms: C_36  and  C_37 
REMARK   10  A    between atoms: C_37  and  O_38 
ROOT
HETATM    1  C   UNK N   1      26.898  16.912   5.931  0.00  0.00     0.060 A 
HETATM    2  C   UNK N   1      25.900  16.005   6.353  0.00  0.00     0.045 A 
HETATM    3  C   UNK N   1      24.747  15.815   5.575  0.00  0.00     0.091 A 
HETATM    4  C   UNK N   1      24.621  16.517   4.376  0.00  0.00     0.115 A 
HETATM    5  N   UNK N   1      25.589  17.373   3.969  0.00  0.00    -0.345 N 
ATOM      6  HN  UNK N   1      25.470  17.868   3.085  1.00  0.00     0.167 HD
HETATM    7  C   UNK N   1      26.715  17.594   4.700  0.00  0.00     0.156 A 
ENDROOT
BRANCH   1   8
HETATM    8  C   UNK N   1      28.094  17.161   6.783  0.00  0.00     0.123 A 
HETATM    9  N   UNK N   1      27.950  17.722   8.033  0.00  0.00    -0.307 N 
HETATM   10  C   UNK N   1      29.048  18.020   8.813  0.00  0.00     0.277 A 
HETATM   11  H   UNK N   1      27.047  17.916   8.376  0.00  0.00     0.170 HD
HETATM   12  C   UNK N   1      30.306  17.759   8.292  0.00  0.00     0.145 A 
HETATM   13  O   UNK N   1      28.913  18.516   9.917  0.00  0.00    -0.266 OA
HETATM   14  C   UNK N   1      30.423  17.205   7.061  0.00  0.00     0.092 A 
HETATM   15  N   UNK N   1      31.528  17.991   8.810  0.00  0.00    -0.291 N 
HETATM   16  C   UNK N   1      31.770  17.101   6.816  0.00  0.00     0.057 A 
HETATM   17  N   UNK N   1      29.351  16.893   6.300  0.00  0.00    -0.338 N 
HETATM   18  N   UNK N   1      32.418  17.591   7.901  0.00  0.00    -0.291 N 
ATOM     19  HN  UNK N   1      29.475  16.465   5.382  1.00  0.00     0.167 HD
ATOM     20  HN  UNK N   1      31.734  18.396   9.723  1.00  0.00     0.187 HD
BRANCH  16  21
HETATM   21  C   UNK N   1      32.434  16.582   5.581  0.00  0.00     0.057 C 
HETATM   22  C   UNK N   1      32.570  17.684   4.550  0.00  0.00     0.011 C 
ENDBRANCH  16  21
BRANCH  18  23
HETATM   23  C   UNK N   1      33.859  17.711   8.069  0.00  0.00     0.175 C 
BRANCH  23  24
HETATM   24  C   UNK N   1      34.354  16.724   9.112  0.00  0.00     0.188 C 
BRANCH  24  25
HETATM   25  O   UNK N   1      35.065  17.399  10.104  0.00  0.00    -0.394 OA
HETATM   26  C   UNK N   1      35.673  16.390  10.853  0.00  0.00     0.201 C 
ENDBRANCH  24  25
ENDBRANCH  23  24
ENDBRANCH  18  23
ENDBRANCH   1   8
BRANCH   7  27
HETATM   27  O   UNK N   1      27.654  18.457   4.243  0.00  0.00    -0.335 OA
BRANCH  27  28
HETATM   28  C   UNK N   1      27.391  19.789   4.018  0.00  0.00     0.173 C 
HETATM   29  C   UNK N   1      27.496  20.552   5.322  0.00  0.00     0.034 C 
ENDBRANCH  27  28
ENDBRANCH   7  27
BRANCH   3  30
HETATM   30  S   UNK N   1      23.444  14.634   6.003  0.00  0.00     0.245 S 
HETATM   31  O   UNK N   1      23.622  13.999   7.390  0.00  0.00    -0.206 OA
HETATM   32  O   UNK N   1      23.752  13.403   5.132  0.00  0.00    -0.206 OA
BRANCH  30  33
HETATM   33  N   UNK N   1      21.691  14.827   5.715  0.00  0.00    -0.203 NA
HETATM   34  C   UNK N   1      21.298  16.213   5.406  0.00  0.00     0.138 C 
HETATM   35  C   UNK N   1      21.037  17.069   6.659  0.00  0.00     0.287 C 
HETATM   36  N   UNK N   1      20.103  16.393   7.553  0.00  0.00     0.090 N 
HETATM   37  C   UNK N   1      20.768  15.177   8.003  0.00  0.00     0.287 C 
HETATM   38  C   UNK N   1      20.903  14.232   6.810  0.00  0.00     0.138 C 
BRANCH  36  39
HETATM   39  C   UNK N   1      19.877  17.258   8.705  0.00  0.00     0.268 C 
HETATM   40  C   UNK N   1      18.400  17.282   9.082  0.00  0.00     0.037 C 
ENDBRANCH  36  39
ENDBRANCH  30  33
ENDBRANCH   3  30
TORSDOF 10
ENDMDL
MODEL 5
REMARK VINA RESULT:      -7.6      4.223      9.233
REMARK  10 active torsions:
REMARK  status: ('A' for Active; 'I' for Inactive)
REMARK    1  A    between atoms: C_2  and  C_3 
REMARK    2  A    between atoms: C_9  and  C_12 
REMARK    3  A    between atoms: C_14  and  S_22 
REMARK    4  A    between atoms: C_18  and  O_19 
REMARK    5  A    between atoms: O_19  and  C_20 
REMARK    6  A    between atoms: S_22  and  N_25 
REMARK    7  A    between atoms: N_28  and  C_31 
REMARK    8  A    between atoms: N_35  and  C_36 
REMARK    9  A    between atoms: C_36  and  C_37 
REMARK   10  A    between atoms: C_37  and  O_38 
ROOT
HETATM    1  C   UNK N   1      31.141  16.692   7.101  0.00  0.00     0.060 A 
HETATM    2  C   UNK N   1      32.176  15.799   6.741  0.00  0.00     0.045 A 
HETATM    3  C   UNK N   1      33.380  15.792   7.461  0.00  0.00     0.091 A 
HETATM    4  C   UNK N   1      33.523  16.661   8.543  0.00  0.00     0.115 A 
HETATM    5  N   UNK N   1      32.521  17.504   8.892  0.00  0.00    -0.345 N 
ATOM      6  HN  UNK N   1      32.654  18.124   9.691  1.00  0.00     0.167 HD
HETATM    7  C   UNK N   1      31.343  17.549   8.212  0.00  0.00     0.156 A 
ENDROOT
BRANCH   1   8
HETATM    8  C   UNK N   1      29.884  16.743   6.301  0.00  0.00     0.123 A 
HETATM    9  N   UNK N   1      29.347  15.587   5.781  0.00  0.00    -0.307 N 
HETATM   10  C   UNK N   1      28.220  15.618   4.985  0.00  0.00     0.277 A 
HETATM   11  H   UNK N   1      29.773  14.722   5.980  0.00  0.00     0.170 HD
HETATM   12  C   UNK N   1      27.658  16.854   4.703  0.00  0.00     0.145 A 
HETATM   13  O   UNK N   1      27.750  14.592   4.529  0.00  0.00    -0.266 OA
HETATM   14  C   UNK N   1      28.204  17.977   5.227  0.00  0.00     0.092 A 
HETATM   15  N   UNK N   1      26.603  17.173   3.928  0.00  0.00    -0.291 N 
HETATM   16  C   UNK N   1      27.456  19.024   4.747  0.00  0.00     0.057 A 
HETATM   17  N   UNK N   1      29.294  17.952   6.023  0.00  0.00    -0.338 N 
HETATM   18  N   UNK N   1      26.488  18.501   3.955  0.00  0.00    -0.291 N 
ATOM     19  HN  UNK N   1      29.673  18.816   6.411  1.00  0.00     0.167 HD
ATOM     20  HN  UNK N   1      26.006  16.523   3.416  1.00  0.00     0.187 HD
BRANCH  16  21
HETATM   21  C   UNK N   1      27.662  20.484   5.001  0.00  0.00     0.057 C 
HETATM   22  C   UNK N   1      26.973  20.900   6.284  0.00  0.00     0.011 C 
ENDBRANCH  16  21
BRANCH  18  23
HETATM   23  C   UNK N   1      25.484  19.244   3.207  0.00  0.00     0.175 C 
BRANCH  23  24
HETATM   24  C   UNK N   1      24.216  19.397   4.030  0.00  0.00     0.188 C 
BRANCH  24  25
HETATM   25  O   UNK N   1      24.144  18.380   4.982  0.00  0.00    -0.394 OA
HETATM   26  C   UNK N   1      22.861  17.849   4.836  0.00  0.00     0.201 C 
ENDBRANCH  24  25
ENDBRANCH  23  24
ENDBRANCH  18  23
ENDBRANCH   1   8
BRANCH   7  27
HETATM   27  O   UNK N   1      30.372  18.408   8.608  0.00  0.00    -0.335 OA
BRANCH  27  28
HETATM   28  C   UNK N   1      29.614  18.201   9.738  0.00  0.00     0.173 C 
HETATM   29  C   UNK N   1      28.188  17.884   9.340  0.00  0.00     0.034 C 
ENDBRANCH  27  28
ENDBRANCH   7  27
BRANCH   3  30
HETATM   30  S   UNK N   1      34.738  14.646   7.114  0.00  0.00     0.245 S 
HETATM   31  O   UNK N   1      35.889  15.281   6.320  0.00  0.00    -0.206 OA
HETATM   32  O   UNK N   1      34.175  13.716   6.025  0.00  0.00    -0.206 OA
BRANCH  30  33
HETATM   33  N   UNK N   1      35.448  13.458   8.245  0.00  0.00    -0.203 NA
HETATM   34  C   UNK N   1      34.511  13.015   9.292  0.00  0.00     0.138 C 
HETATM   35  C   UNK N   1      34.480  13.944  10.520  0.00  0.00     0.287 C 
HETATM   36  N   UNK N   1      35.832  14.175  11.018  0.00  0.00     0.090 N 
HETATM   37  C   UNK N   1      36.545  14.889   9.966  0.00  0.00     0.287 C 
HETATM   38  C   UNK N   1      36.734  13.940   8.784  0.00  0.00     0.138 C 
BRANCH  36  39
HETATM   39  C   UNK N   1      35.737  15.039  12.190  0.00  0.00     0.268 C 
HETATM   40  C   UNK N   1      36.290  14.338  13.425  0.00  0.00     0.037 C 
ENDBRANCH  36  39
ENDBRANCH  30  33
ENDBRANCH   3  30
TORSDOF 10
ENDMDL
MODEL 6
REMARK VINA RESULT:      -7.5      2.176      3.316
REMARK  10 active torsions:
REMARK  status: ('A' for Active; 'I' for Inactive)
REMARK    1  A    between atoms: C_2  and  C_3 
REMARK    2  A    between atoms: C_9  and  C_12 
REMARK    3  A    between atoms: C_14  and  S_22 
REMARK    4  A    between atoms: C_18  and  O_19 
REMARK    5  A    between atoms: O_19  and  C_20 
REMARK    6  A    between atoms: S_22  and  N_25 
REMARK    7  A    between atoms: N_28  and  C_31 
REMARK    8  A    between atoms: N_35  and  C_36 
REMARK    9  A    between atoms: C_36  and  C_37 
REMARK   10  A    between atoms: C_37  and  O_38 
ROOT
HETATM    1  C   UNK N   1      27.219  16.924   6.437  0.00  0.00     0.060 A 
HETATM    2  C   UNK N   1      26.415  15.821   6.806  0.00  0.00     0.045 A 
HETATM    3  C   UNK N   1      25.198  15.588   6.147  0.00  0.00     0.091 A 
HETATM    4  C   UNK N   1      24.815  16.445   5.116  0.00  0.00     0.115 A 
HETATM    5  N   UNK N   1      25.598  17.490   4.757  0.00  0.00    -0.345 N 
ATOM      6  HN  UNK N   1      25.292  18.097   3.995  1.00  0.00     0.167 HD
HETATM    7  C   UNK N   1      26.779  17.758   5.378  0.00  0.00     0.156 A 
ENDROOT
BRANCH   1   8
HETATM    8  C   UNK N   1      28.483  17.208   7.174  0.00  0.00     0.123 A 
HETATM    9  N   UNK N   1      28.443  17.829   8.402  0.00  0.00    -0.307 N 
HETATM   10  C   UNK N   1      29.603  18.160   9.073  0.00  0.00     0.277 A 
HETATM   11  H   UNK N   1      27.573  18.042   8.810  0.00  0.00     0.170 HD
HETATM   12  C   UNK N   1      30.813  17.871   8.460  0.00  0.00     0.145 A 
HETATM   13  O   UNK N   1      29.561  18.708  10.159  0.00  0.00    -0.266 OA
HETATM   14  C   UNK N   1      30.826  17.259   7.252  0.00  0.00     0.092 A 
HETATM   15  N   UNK N   1      32.074  18.124   8.862  0.00  0.00    -0.291 N 
HETATM   16  C   UNK N   1      32.148  17.139   6.900  0.00  0.00     0.057 A 
HETATM   17  N   UNK N   1      29.695  16.914   6.600  0.00  0.00    -0.338 N 
HETATM   18  N   UNK N   1      32.885  17.679   7.902  0.00  0.00    -0.291 N 
ATOM     19  HN  UNK N   1      29.742  16.443   5.696  1.00  0.00     0.167 HD
ATOM     20  HN  UNK N   1      32.355  18.571   9.735  1.00  0.00     0.187 HD
BRANCH  16  21
HETATM   21  C   UNK N   1      32.707  16.560   5.639  0.00  0.00     0.057 C 
HETATM   22  C   UNK N   1      32.714  17.599   4.537  0.00  0.00     0.011 C 
ENDBRANCH  16  21
BRANCH  18  23
HETATM   23  C   UNK N   1      34.335  17.802   7.942  0.00  0.00     0.175 C 
BRANCH  23  24
HETATM   24  C   UNK N   1      34.925  16.797   8.918  0.00  0.00     0.188 C 
BRANCH  24  25
HETATM   25  O   UNK N   1      34.895  17.319  10.211  0.00  0.00    -0.394 OA
HETATM   26  C   UNK N   1      35.539  16.358  10.994  0.00  0.00     0.201 C 
ENDBRANCH  24  25
ENDBRANCH  23  24
ENDBRANCH  18  23
ENDBRANCH   1   8
BRANCH   7  27
HETATM   27  O   UNK N   1      27.526  18.814   4.974  0.00  0.00    -0.335 OA
BRANCH  27  28
HETATM   28  C   UNK N   1      27.027  20.095   4.912  0.00  0.00     0.173 C 
HETATM   29  C   UNK N   1      27.521  20.889   6.104  0.00  0.00     0.034 C 
ENDBRANCH  27  28
ENDBRANCH   7  27
BRANCH   3  30
HETATM   30  S   UNK N   1      24.130  14.172   6.508  0.00  0.00     0.245 S 
HETATM   31  O   UNK N   1      22.764  14.565   7.089  0.00  0.00    -0.206 OA
HETATM   32  O   UNK N   1      24.755  13.540   7.765  0.00  0.00    -0.206 OA
BRANCH  30  33
HETATM   33  N   UNK N   1      23.888  12.727   5.483  0.00  0.00    -0.203 NA
HETATM   34  C   UNK N   1      25.124  12.260   4.831  0.00  0.00     0.138 C 
HETATM   35  C   UNK N   1      25.421  12.974   3.499  0.00  0.00     0.287 C 
HETATM   36  N   UNK N   1      24.254  12.925   2.623  0.00  0.00     0.090 N 
HETATM   37  C   UNK N   1      23.207  13.689   3.287  0.00  0.00     0.287 C 
HETATM   38  C   UNK N   1      22.773  12.926   4.538  0.00  0.00     0.138 C 
BRANCH  36  39
HETATM   39  C   UNK N   1      24.603  13.593   1.374  0.00  0.00     0.268 C 
HETATM   40  C   UNK N   1      23.395  13.674   0.448  0.00  0.00     0.037 C 
ENDBRANCH  36  39
ENDBRANCH  30  33
ENDBRANCH   3  30
TORSDOF 10
ENDMDL
MODEL 7
REMARK VINA RESULT:      -7.4      4.877      9.234
REMARK  10 active torsions:
REMARK  status: ('A' for Active; 'I' for Inactive)
REMARK    1  A    between atoms: C_2  and  C_3 
REMARK    2  A    between atoms: C_9  and  C_12 
REMARK    3  A    between atoms: C_14  and  S_22 
REMARK    4  A    between atoms: C_18  and  O_19 
REMARK    5  A    between atoms: O_19  and  C_20 
REMARK    6  A    between atoms: S_22  and  N_25 
REMARK    7  A    between atoms: N_28  and  C_31 
REMARK    8  A    between atoms: N_35  and  C_36 
REMARK    9  A    between atoms: C_36  and  C_37 
REMARK   10  A    between atoms: C_37  and  O_38 
ROOT
HETATM    1  C   UNK N   1      32.967  16.342   7.917  0.00  0.00     0.060 A 
HETATM    2  C   UNK N   1      33.368  15.737   9.130  0.00  0.00     0.045 A 
HETATM    3  C   UNK N   1      34.600  15.071   9.210  0.00  0.00     0.091 A 
HETATM    4  C   UNK N   1      35.422  15.039   8.084  0.00  0.00     0.115 A 
HETATM    5  N   UNK N   1      35.039  15.635   6.929  0.00  0.00    -0.345 N 
ATOM      6  HN  UNK N   1      35.665  15.598   6.123  1.00  0.00     0.167 HD
HETATM    7  C   UNK N   1      33.847  16.280   6.807  0.00  0.00     0.156 A 
ENDROOT
BRANCH   1   8
HETATM    8  C   UNK N   1      31.633  16.998   7.813  0.00  0.00     0.123 A 
HETATM    9  N   UNK N   1      31.060  17.584   8.920  0.00  0.00    -0.307 N 
HETATM   10  C   UNK N   1      29.799  18.140   8.862  0.00  0.00     0.277 A 
HETATM   11  H   UNK N   1      31.558  17.605   9.769  0.00  0.00     0.170 HD
HETATM   12  C   UNK N   1      29.113  18.072   7.659  0.00  0.00     0.145 A 
HETATM   13  O   UNK N   1      29.299  18.657   9.845  0.00  0.00    -0.266 OA
HETATM   14  C   UNK N   1      29.698  17.492   6.583  0.00  0.00     0.092 A 
HETATM   15  N   UNK N   1      27.871  18.485   7.340  0.00  0.00    -0.291 N 
HETATM   16  C   UNK N   1      28.773  17.549   5.570  0.00  0.00     0.057 A 
HETATM   17  N   UNK N   1      30.940  16.963   6.628  0.00  0.00    -0.338 N 
HETATM   18  N   UNK N   1      27.667  18.158   6.064  0.00  0.00    -0.291 N 
ATOM     19  HN  UNK N   1      31.355  16.545   5.795  1.00  0.00     0.167 HD
ATOM     20  HN  UNK N   1      27.211  18.957   7.958  1.00  0.00     0.187 HD
BRANCH  16  21
HETATM   21  C   UNK N   1      28.911  17.016   4.179  0.00  0.00     0.057 C 
HETATM   22  C   UNK N   1      28.810  15.504   4.178  0.00  0.00     0.011 C 
ENDBRANCH  16  21
BRANCH  18  23
HETATM   23  C   UNK N   1      26.421  18.402   5.352  0.00  0.00     0.175 C 
BRANCH  23  24
HETATM   24  C   UNK N   1      26.109  19.889   5.327  0.00  0.00     0.188 C 
BRANCH  24  25
HETATM   25  O   UNK N   1      27.295  20.623   5.336  0.00  0.00    -0.394 OA
HETATM   26  C   UNK N   1      27.041  21.695   6.193  0.00  0.00     0.201 C 
ENDBRANCH  24  25
ENDBRANCH  23  24
ENDBRANCH  18  23
ENDBRANCH   1   8
BRANCH   7  27
HETATM   27  O   UNK N   1      33.516  16.863   5.630  0.00  0.00    -0.335 OA
BRANCH  27  28
HETATM   28  C   UNK N   1      33.483  16.169   4.442  0.00  0.00     0.173 C 
HETATM   29  C   UNK N   1      32.725  16.974   3.407  0.00  0.00     0.034 C 
ENDBRANCH  27  28
ENDBRANCH   7  27
BRANCH   3  30
HETATM   30  S   UNK N   1      35.225  14.319  10.733  0.00  0.00     0.245 S 
HETATM   31  O   UNK N   1      34.303  14.525  11.943  0.00  0.00    -0.206 OA
HETATM   32  O   UNK N   1      36.387  15.235  11.155  0.00  0.00    -0.206 OA
BRANCH  30  33
HETATM   33  N   UNK N   1      35.983  12.708  10.896  0.00  0.00    -0.203 NA
HETATM   34  C   UNK N   1      35.026  11.644  11.246  0.00  0.00     0.138 C 
HETATM   35  C   UNK N   1      34.778  11.518  12.760  0.00  0.00     0.287 C 
HETATM   36  N   UNK N   1      36.044  11.410  13.478  0.00  0.00     0.090 N 
HETATM   37  C   UNK N   1      36.746  12.670  13.268  0.00  0.00     0.287 C 
HETATM   38  C   UNK N   1      37.149  12.758  11.797  0.00  0.00     0.138 C 
BRANCH  36  39
HETATM   39  C   UNK N   1      35.746  11.270  14.898  0.00  0.00     0.268 C 
HETATM   40  C   UNK N   1      34.915  12.446  15.396  0.00  0.00     0.037 C 
ENDBRANCH  36  39
ENDBRANCH  30  33
ENDBRANCH   3  30
TORSDOF 10
ENDMDL
MODEL 8
REMARK VINA RESULT:      -7.3      4.418      8.868
REMARK  10 active torsions:
REMARK  status: ('A' for Active; 'I' for Inactive)
REMARK    1  A    between atoms: C_2  and  C_3 
REMARK    2  A    between atoms: C_9  and  C_12 
REMARK    3  A    between atoms: C_14  and  S_22 
REMARK    4  A    between atoms: C_18  and  O_19 
REMARK    5  A    between atoms: O_19  and  C_20 
REMARK    6  A    between atoms: S_22  and  N_25 
REMARK    7  A    between atoms: N_28  and  C_31 
REMARK    8  A    between atoms: N_35  and  C_36 
REMARK    9  A    between atoms: C_36  and  C_37 
REMARK   10  A    between atoms: C_37  and  O_38 
ROOT
HETATM    1  C   UNK N   1      30.768  17.123   6.906  0.00  0.00     0.060 A 
HETATM    2  C   UNK N   1      31.823  16.346   6.376  0.00  0.00     0.045 A 
HETATM    3  C   UNK N   1      32.966  16.092   7.150  0.00  0.00     0.091 A 
HETATM    4  C   UNK N   1      33.027  16.599   8.448  0.00  0.00     0.115 A 
HETATM    5  N   UNK N   1      32.004  17.329   8.955  0.00  0.00    -0.345 N 
ATOM      6  HN  UNK N   1      32.077  17.682   9.910  1.00  0.00     0.167 HD
HETATM    7  C   UNK N   1      30.885  17.607   8.234  0.00  0.00     0.156 A 
ENDROOT
BRANCH   1   8
HETATM    8  C   UNK N   1      29.579  17.444   6.066  0.00  0.00     0.123 A 
HETATM    9  N   UNK N   1      29.147  16.553   5.109  0.00  0.00    -0.307 N 
HETATM   10  C   UNK N   1      28.089  16.856   4.277  0.00  0.00     0.277 A 
HETATM   11  H   UNK N   1      29.601  15.684   5.015  0.00  0.00     0.170 HD
HETATM   12  C   UNK N   1      27.488  18.098   4.417  0.00  0.00     0.145 A 
HETATM   13  O   UNK N   1      27.711  16.064   3.433  0.00  0.00    -0.266 OA
HETATM   14  C   UNK N   1      27.930  18.957   5.366  0.00  0.00     0.092 A 
HETATM   15  N   UNK N   1      26.484  18.663   3.717  0.00  0.00    -0.291 N 
HETATM   16  C   UNK N   1      27.170  20.093   5.237  0.00  0.00     0.057 A 
HETATM   17  N   UNK N   1      28.952  18.658   6.197  0.00  0.00    -0.338 N 
HETATM   18  N   UNK N   1      26.298  19.884   4.220  0.00  0.00    -0.291 N 
ATOM     19  HN  UNK N   1      29.252  19.324   6.910  1.00  0.00     0.167 HD
ATOM     20  HN  UNK N   1      25.965  18.238   2.948  1.00  0.00     0.187 HD
BRANCH  16  21
HETATM   21  C   UNK N   1      27.279  21.358   6.027  0.00  0.00     0.057 C 
HETATM   22  C   UNK N   1      26.330  21.327   7.208  0.00  0.00     0.011 C 
ENDBRANCH  16  21
BRANCH  18  23
HETATM   23  C   UNK N   1      25.321  20.833   3.706  0.00  0.00     0.175 C 
BRANCH  23  24
HETATM   24  C   UNK N   1      24.132  20.098   3.111  0.00  0.00     0.188 C 
BRANCH  24  25
HETATM   25  O   UNK N   1      23.102  21.000   2.845  0.00  0.00    -0.394 OA
HETATM   26  C   UNK N   1      21.944  20.220   2.827  0.00  0.00     0.201 C 
ENDBRANCH  24  25
ENDBRANCH  23  24
ENDBRANCH  18  23
ENDBRANCH   1   8
BRANCH   7  27
HETATM   27  O   UNK N   1      29.890  18.338   8.793  0.00  0.00    -0.335 OA
BRANCH  27  28
HETATM   28  C   UNK N   1      29.132  17.877   9.845  0.00  0.00     0.173 C 
HETATM   29  C   UNK N   1      27.866  17.236   9.316  0.00  0.00     0.034 C 
ENDBRANCH  27  28
ENDBRANCH   7  27
BRANCH   3  30
HETATM   30  S   UNK N   1      34.341  15.062   6.581  0.00  0.00     0.245 S 
HETATM   31  O   UNK N   1      35.298  14.640   7.705  0.00  0.00    -0.206 OA
HETATM   32  O   UNK N   1      35.262  16.043   5.834  0.00  0.00    -0.206 OA
BRANCH  30  33
HETATM   33  N   UNK N   1      34.253  13.715   5.409  0.00  0.00    -0.203 NA
HETATM   34  C   UNK N   1      34.182  14.163   4.008  0.00  0.00     0.138 C 
HETATM   35  C   UNK N   1      32.748  14.472   3.537  0.00  0.00     0.287 C 
HETATM   36  N   UNK N   1      31.863  13.349   3.827  0.00  0.00     0.090 N 
HETATM   37  C   UNK N   1      31.813  13.226   5.278  0.00  0.00     0.287 C 
HETATM   38  C   UNK N   1      33.184  12.765   5.770  0.00  0.00     0.138 C 
BRANCH  36  39
HETATM   39  C   UNK N   1      30.531  13.689   3.339  0.00  0.00     0.268 C 
HETATM   40  C   UNK N   1      29.456  13.027   4.192  0.00  0.00     0.037 C 
ENDBRANCH  36  39
ENDBRANCH  30  33
ENDBRANCH   3  30
TORSDOF 10
ENDMDL
MODEL 9
REMARK VINA RESULT:      -7.2      2.306      3.830
REMARK  10 active torsions:
REMARK  status: ('A' for Active; 'I' for Inactive)
REMARK    1  A    between atoms: C_2  and  C_3 
REMARK    2  A    between atoms: C_9  and  C_12 
REMARK    3  A    between atoms: C_14  and  S_22 
REMARK    4  A    between atoms: C_18  and  O_19 
REMARK    5  A    between atoms: O_19  and  C_20 
REMARK    6  A    between atoms: S_22  and  N_25 
REMARK    7  A    between atoms: N_28  and  C_31 
REMARK    8  A    between atoms: N_35  and  C_36 
REMARK    9  A    between atoms: C_36  and  C_37 
REMARK   10  A    between atoms: C_37  and  O_38 
ROOT
HETATM    1  C   UNK N   1      23.928  16.690   5.275  0.00  0.00     0.060 A 
HETATM    2  C   UNK N   1      23.051  15.612   5.531  0.00  0.00     0.045 A 
HETATM    3  C   UNK N   1      21.669  15.837   5.624  0.00  0.00     0.091 A 
HETATM    4  C   UNK N   1      21.184  17.131   5.437  0.00  0.00     0.115 A 
HETATM    5  N   UNK N   1      22.029  18.157   5.176  0.00  0.00    -0.345 N 
ATOM      6  HN  UNK N   1      21.642  19.092   5.040  1.00  0.00     0.167 HD
HETATM    7  C   UNK N   1      23.375  17.983   5.090  0.00  0.00     0.156 A 
ENDROOT
BRANCH   1   8
HETATM    8  C   UNK N   1      25.401  16.465   5.234  0.00  0.00     0.123 A 
HETATM    9  N   UNK N   1      25.921  15.416   4.509  0.00  0.00    -0.307 N 
HETATM   10  C   UNK N   1      27.275  15.150   4.509  0.00  0.00     0.277 A 
HETATM   11  H   UNK N   1      25.317  14.845   3.981  0.00  0.00     0.170 HD
HETATM   12  C   UNK N   1      28.096  15.956   5.283  0.00  0.00     0.145 A 
HETATM   13  O   UNK N   1      27.728  14.221   3.865  0.00  0.00    -0.266 OA
HETATM   14  C   UNK N   1      27.561  16.983   5.986  0.00  0.00     0.092 A 
HETATM   15  N   UNK N   1      29.424  15.892   5.500  0.00  0.00    -0.291 N 
HETATM   16  C   UNK N   1      28.604  17.564   6.665  0.00  0.00     0.057 A 
HETATM   17  N   UNK N   1      26.239  17.261   5.975  0.00  0.00    -0.338 N 
HETATM   18  N   UNK N   1      29.727  16.874   6.349  0.00  0.00    -0.291 N 
ATOM     19  HN  UNK N   1      25.871  18.050   6.507  1.00  0.00     0.167 HD
ATOM     20  HN  UNK N   1      30.074  15.220   5.093  1.00  0.00     0.187 HD
BRANCH  16  21
HETATM   21  C   UNK N   1      28.544  18.721   7.611  0.00  0.00     0.057 C 
HETATM   22  C   UNK N   1      28.247  18.239   9.017  0.00  0.00     0.011 C 
ENDBRANCH  16  21
BRANCH  18  23
HETATM   23  C   UNK N   1      31.067  17.117   6.865  0.00  0.00     0.175 C 
BRANCH  23  24
HETATM   24  C   UNK N   1      31.392  16.134   7.978  0.00  0.00     0.188 C 
BRANCH  24  25
HETATM   25  O   UNK N   1      32.474  16.602   8.722  0.00  0.00    -0.394 OA
HETATM   26  C   UNK N   1      32.679  17.906   8.267  0.00  0.00     0.201 C 
ENDBRANCH  24  25
ENDBRANCH  23  24
ENDBRANCH  18  23
ENDBRANCH   1   8
BRANCH   7  27
HETATM   27  O   UNK N   1      24.174  19.044   4.821  0.00  0.00    -0.335 OA
BRANCH  27  28
HETATM   28  C   UNK N   1      24.178  19.679   3.600  0.00  0.00     0.173 C 
HETATM   29  C   UNK N   1      25.601  20.026   3.215  0.00  0.00     0.034 C 
ENDBRANCH  27  28
ENDBRANCH   7  27
BRANCH   3  30
HETATM   30  S   UNK N   1      20.464  14.513   5.889  0.00  0.00     0.245 S 
HETATM   31  O   UNK N   1      20.071  13.773   4.603  0.00  0.00    -0.206 OA
HETATM   32  O   UNK N   1      19.142  15.256   6.154  0.00  0.00    -0.206 OA
BRANCH  30  33
HETATM   33  N   UNK N   1      20.460  13.323   7.223  0.00  0.00    -0.203 NA
HETATM   34  C   UNK N   1      20.897  13.888   8.511  0.00  0.00     0.138 C 
HETATM   35  C   UNK N   1      22.426  13.874   8.699  0.00  0.00     0.287 C 
HETATM   36  N   UNK N   1      22.958  12.539   8.446  0.00  0.00     0.090 N 
HETATM   37  C   UNK N   1      22.703  12.251   7.041  0.00  0.00     0.287 C 
HETATM   38  C   UNK N   1      21.195  12.101   6.847  0.00  0.00     0.138 C 
BRANCH  36  39
HETATM   39  C   UNK N   1      24.400  12.582   8.662  0.00  0.00     0.268 C 
HETATM   40  C   UNK N   1      25.086  13.402   7.576  0.00  0.00     0.037 C 
ENDBRANCH  36  39
ENDBRANCH  30  33
ENDBRANCH   3  30
TORSDOF 10
ENDMDL
