REMARK  4 active torsions:
REMARK  status: ('A' for Active; 'I' for Inactive)
REMARK    1  A    between atoms: C_6  and  C_2 
REMARK    2  A    between atoms: C_8  and  C_6 
REMARK    3  A    between atoms: N_11  and  C_6 
REMARK    4  A    between atoms: O_13  and  C_8 
ROOT
HETATM    1  C   UNK N   1      -1.303   0.888   0.000  0.00  0.00     0.161 C 
ENDROOT
BRANCH   1   2
HETATM    2  C   UNK N   1      -1.918   2.314  -0.000  0.00  0.00     0.029 C 
HETATM    3  C   UNK N   1      -1.091   3.575   0.000  0.00  0.00     0.007 C 
ENDBRANCH   1   2
BRANCH   1   4
HETATM    4  C   UNK N   1      -2.377  -0.204   0.000  0.00  0.00     0.132 C 
HETATM    5  N   UNK N   1      -2.079  -1.450   0.000  0.00  0.00    -0.382 N 
HETATM    6  H   UNK N   1      -2.794  -2.127   0.000  0.00  0.00     0.158 HD
ATOM      7  HN  UNK N   1      -1.102  -1.741   0.000  1.00  0.00     0.158 HD
BRANCH   4   8
HETATM    8  O   UNK N   1      -3.678   0.146  -0.000  0.00  0.00    -0.348 OA
HETATM    9  H   UNK N   1      -3.920   1.051  -0.000  0.00  0.00     0.219 HD
ENDBRANCH   4   8
ENDBRANCH   1   4
BRANCH   1  10
HETATM   10  N   UNK N   1       0.135   0.504  -0.000  0.00  0.00    -0.340 N 
HETATM   11  C   UNK N   1       0.524  -0.882  -0.000  0.00  0.00     0.127 A 
HETATM   12  C   UNK N   1       2.054  -0.901  -0.000  0.00  0.00     0.029 A 
HETATM   13  C   UNK N   1       2.512   0.554  -0.000  0.00  0.00     0.104 A 
HETATM   14  C   UNK N   1       1.233   1.291  -0.000  0.00  0.00     0.220 A 
HETATM   15  O   UNK N   1       1.211   2.506   0.000  0.00  0.00    -0.273 OA
ENDBRANCH   1  10
TORSDOF 4
