REMARK  16 active torsions:
REMARK  status: ('A' for Active; 'I' for Inactive)
REMARK    1  A    between atoms: C_2  and  N_30 
REMARK       I    between atoms: C_5  and  N_10 
REMARK    2  A    between atoms: C_8  and  N_9 
REMARK    3  A    between atoms: N_10  and  C_11 
REMARK    4  A    between atoms: C_12  and  C_11 
REMARK    5  A    between atoms: C_15  and  C_18 
REMARK    6  A    between atoms: C_18  and  N_19 
REMARK    7  A    between atoms: N_19  and  C_20 
REMARK    8  A    between atoms: C_20  and  C_21 
REMARK    9  A    between atoms: C_21  and  C_22 
REMARK   10  A    between atoms: C_22  and  N_23 
REMARK   11  A    between atoms: N_23  and  C_24 
REMARK   12  A    between atoms: N_33  and  C_36 
REMARK   13  A    between atoms: C_36  and  C_37 
REMARK   14  A    between atoms: C_37  and  P_38 
REMARK   15  A    between atoms: P_38  and  O_40 
REMARK   16  A    between atoms: P_38  and  O_41 
ROOT
HETATM    1  C   UNK N   1      -1.767  -9.360   0.043  0.00  0.00     0.097 A 
HETATM    2  C   UNK N   1      -1.632  -7.985   0.266  0.00  0.00     0.122 A 
HETATM    3  N   UNK N   1      -0.630  -7.312  -0.351  0.00  0.00    -0.177 N 
ATOM      4  HN  UNK N   1      -0.542  -6.306  -0.204  1.00  0.00     0.185 HD
HETATM    5  C   UNK N   1       0.255  -7.941  -1.157  0.00  0.00     0.681 A 
HETATM    6  N   UNK N   1       0.164  -9.282  -1.357  0.00  0.00    -0.177 N 
ATOM      7  HN  UNK N   1       0.856  -9.756  -1.938  1.00  0.00     0.185 HD
HETATM    8  C   UNK N   1      -0.844  -9.996  -0.788  0.00  0.00     0.118 A 
HETATM    9  N   UNK N   1       1.353  -7.210  -1.651  0.00  0.00    -0.226 N 
HETATM   10  H   UNK N   1       1.208  -6.488  -2.305  0.00  0.00     0.177 HD
ENDROOT
BRANCH   9  11
HETATM   11  C   UNK N   1       2.689  -7.515  -1.202  0.00  0.00     0.142 C 
BRANCH  11  12
HETATM   12  C   UNK N   1       2.753  -7.589   0.336  0.00  0.00     0.004 C 
HETATM   13  C   UNK N   1       1.877  -6.551   1.065  0.00  0.00     0.007 C 
HETATM   14  C   UNK N   1       2.453  -5.146   0.938  0.00  0.00     0.007 C 
HETATM   15  C   UNK N   1       3.922  -5.083   1.376  0.00  0.00     0.003 C 
HETATM   16  C   UNK N   1       4.499  -6.441   1.815  0.00  0.00     0.007 C 
HETATM   17  C   UNK N   1       4.211  -7.556   0.800  0.00  0.00     0.007 C 
BRANCH  15  18
HETATM   18  C   UNK N   1       4.775  -4.386   0.320  0.00  0.00     0.118 C 
BRANCH  18  19
HETATM   19  N   UNK N   1       4.657  -5.049  -0.970  0.00  0.00    -0.421 N 
HETATM   20  H   UNK N   1       3.795  -5.392  -1.395  0.00  0.00     0.153 HD
BRANCH  19  21
HETATM   21  C   UNK N   1       5.988  -5.135  -1.544  0.00  0.00     0.115 C 
BRANCH  21  22
HETATM   22  C   UNK N   1       6.576  -6.513  -1.294  0.00  0.00     0.038 C 
BRANCH  22  23
HETATM   23  C   UNK N   1       7.169  -6.598   0.103  0.00  0.00     0.115 C 
BRANCH  23  24
HETATM   24  N   UNK N   1       8.576  -6.945  -0.007  0.00  0.00    -0.417 N 
HETATM   25  H   UNK N   1       8.927  -7.849  -0.324  0.00  0.00     0.153 HD
BRANCH  24  26
HETATM   26  C   UNK N   1       9.420  -5.822   0.398  0.00  0.00     0.076 C 
HETATM   27  C   UNK N   1       9.059  -4.535  -0.363  0.00  0.00     0.024 C 
HETATM   28  C   UNK N   1      10.004  -3.403   0.013  0.00  0.00     0.002 C 
HETATM   29  C   UNK N   1      11.430  -3.799  -0.345  0.00  0.00     0.000 C 
HETATM   30  C   UNK N   1      11.824  -5.056   0.424  0.00  0.00     0.002 C 
HETATM   31  C   UNK N   1      10.870  -6.201   0.096  0.00  0.00     0.024 C 
ENDBRANCH  24  26
ENDBRANCH  23  24
ENDBRANCH  22  23
ENDBRANCH  21  22
ENDBRANCH  19  21
ENDBRANCH  18  19
ENDBRANCH  15  18
ENDBRANCH  11  12
ENDBRANCH   9  11
BRANCH   2  32
HETATM   32  N   UNK N   1      -2.541  -7.274   1.098  0.00  0.00    -0.363 N 
HETATM   33  C   UNK N   1      -3.832  -7.825   1.387  0.00  0.00     0.154 C 
HETATM   34  C   UNK N   1      -4.779  -7.269   0.326  0.00  0.00     0.292 C 
HETATM   35  N   UNK N   1      -4.715  -5.799   0.211  0.00  0.00     0.092 N 
HETATM   36  C   UNK N   1      -3.342  -5.267   0.137  0.00  0.00     0.292 C 
HETATM   37  C   UNK N   1      -2.430  -5.848   1.204  0.00  0.00     0.154 C 
BRANCH  35  38
HETATM   38  C   UNK N   1      -5.264  -5.505  -1.104  0.00  0.00     0.284 C 
BRANCH  38  39
HETATM   39  C   UNK N   1      -6.447  -4.551  -1.054  0.00  0.00     0.155 C 
BRANCH  39  40
HETATM   40  P   UNK N   1      -6.137  -3.082   0.049  0.00  0.00     0.237 P 
HETATM   41  O   UNK N   1      -7.185  -1.978  -0.249  0.00  0.00    -0.653 OA
BRANCH  40  42
HETATM   42  O   UNK N   1      -4.609  -2.284  -0.149  0.00  0.00    -0.329 OA
HETATM   43  H   UNK N   1      -3.795  -2.801  -0.260  0.00  0.00     0.220 HD
ENDBRANCH  40  42
BRANCH  40  44
HETATM   44  O   UNK N   1      -6.342  -3.406   1.741  0.00  0.00    -0.329 OA
HETATM   45  H   UNK N   1      -6.556  -3.397   2.688  0.00  0.00     0.220 HD
ENDBRANCH  40  44
ENDBRANCH  39  40
ENDBRANCH  38  39
ENDBRANCH  35  38
ENDBRANCH   2  32
BRANCH   8  46
HETATM   46  N   UNK N   1      -0.945 -11.380  -1.023  0.00  0.00    -0.385 N 
HETATM   47  H   UNK N   1      -1.819 -11.803  -1.187  0.00  0.00     0.157 HD
HETATM   48  H   UNK N   1      -0.131 -11.933  -1.023  0.00  0.00     0.157 HD
ENDBRANCH   8  46
TORSDOF 16
