MODEL 1
REMARK VINA RESULT:      -8.6      0.000      0.000
REMARK  3 active torsions:
REMARK  status: ('A' for Active; 'I' for Inactive)
REMARK    1  A    between atoms: C_5  and  N_18 
REMARK    2  A    between atoms: C_7  and  C_8 
REMARK       I    between atoms: N_18  and  C_19 
REMARK       I    between atoms: C_19  and  N_21 
REMARK    3  A    between atoms: N_21  and  C_22 
ROOT
HETATM    1  C   UNK N   1      30.942  17.464   8.026  0.00  0.00     0.036 A 
HETATM    2  C   UNK N   1      29.761  17.766   8.687  0.00  0.00     0.031 A 
HETATM    3  C   UNK N   1      28.571  17.855   7.981  0.00  0.00     0.025 A 
HETATM    4  C   UNK N   1      28.555  17.645   6.608  0.00  0.00     0.044 A 
HETATM    5  C   UNK N   1      29.720  17.262   5.931  0.00  0.00     0.025 A 
HETATM    6  C   UNK N   1      30.921  17.177   6.638  0.00  0.00     0.031 A 
HETATM    7  C   UNK N   1      27.342  17.851   5.897  0.00  0.00     0.099 C 
HETATM    8  N   UNK N   1      26.371  18.010   5.293  0.00  0.00    -0.191 NA
ENDROOT
BRANCH   1   9
HETATM    9  N   UNK N   1      32.170  17.707   8.696  0.00  0.00    -0.309 N 
HETATM   10  C   UNK N   1      33.113  16.733   8.694  0.00  0.00     0.321 C 
HETATM   11  N   UNK N   1      34.200  16.797   9.506  0.00  0.00    -0.338 N 
HETATM   12  O   UNK N   1      32.946  15.731   8.004  0.00  0.00    -0.247 OA
HETATM   13  H   UNK N   1      34.500  17.638   9.919  0.00  0.00     0.164 HD
HETATM   14  H   UNK N   1      32.332  18.565   9.152  0.00  0.00     0.170 HD
BRANCH  11  15
HETATM   15  C   UNK N   1      34.884  15.543   9.720  0.00  0.00     0.090 C 
HETATM   16  C   UNK N   1      35.569  14.924   8.519  0.00  0.00     0.055 C 
HETATM   17  C   UNK N   1      36.625  13.860   8.933  0.00  0.00     0.275 C 
HETATM   18  N   UNK N   1      36.669  13.448  10.358  0.00  0.00     0.096 NA
HETATM   19  C   UNK N   1      38.072  13.124  10.580  0.00  0.00     0.310 C 
HETATM   20  C   UNK N   1      36.413  14.527  11.327  0.00  0.00     0.291 C 
HETATM   21  C   UNK N   1      35.896  15.819  10.796  0.00  0.00     0.069 C 
BRANCH  20  22
HETATM   22  C   UNK N   1      36.115  14.145  12.754  0.00  0.00     0.116 A 
HETATM   23  N   UNK N   1      36.715  14.671  13.862  0.00  0.00    -0.342 N 
HETATM   24  C   UNK N   1      36.148  13.995  14.879  0.00  0.00     0.060 A 
HETATM   25  H   UNK N   1      37.400  15.377  13.907  0.00  0.00     0.167 HD
HETATM   26  C   UNK N   1      36.383  14.113  16.249  0.00  0.00     0.032 A 
HETATM   27  C   UNK N   1      35.253  13.097  14.384  0.00  0.00     0.060 A 
HETATM   28  C   UNK N   1      35.662  13.254  17.107  0.00  0.00     0.002 A 
HETATM   29  C   UNK N   1      34.731  12.326  16.580  0.00  0.00     0.002 A 
HETATM   30  C   UNK N   1      34.516  12.247  15.194  0.00  0.00     0.032 A 
HETATM   31  N   UNK N   1      35.225  13.171  13.052  0.00  0.00    -0.342 N 
ATOM     32  HN  UNK N   1      34.662  12.617  12.406  1.00  0.00     0.167 HD
ENDBRANCH  20  22
ENDBRANCH  11  15
ENDBRANCH   1   9
TORSDOF 3
ENDMDL
MODEL 2
REMARK VINA RESULT:      -8.5      4.052      8.696
REMARK  3 active torsions:
REMARK  status: ('A' for Active; 'I' for Inactive)
REMARK    1  A    between atoms: C_5  and  N_18 
REMARK    2  A    between atoms: C_7  and  C_8 
REMARK       I    between atoms: N_18  and  C_19 
REMARK       I    between atoms: C_19  and  N_21 
REMARK    3  A    between atoms: N_21  and  C_22 
ROOT
HETATM    1  C   UNK N   1      36.638  13.165  15.440  0.00  0.00     0.036 A 
HETATM    2  C   UNK N   1      35.810  13.452  16.515  0.00  0.00     0.031 A 
HETATM    3  C   UNK N   1      35.253  12.425  17.261  0.00  0.00     0.025 A 
HETATM    4  C   UNK N   1      35.518  11.101  16.933  0.00  0.00     0.044 A 
HETATM    5  C   UNK N   1      36.412  10.786  15.902  0.00  0.00     0.025 A 
HETATM    6  C   UNK N   1      36.970  11.818  15.146  0.00  0.00     0.031 A 
HETATM    7  C   UNK N   1      34.846  10.071  17.646  0.00  0.00     0.099 C 
HETATM    8  N   UNK N   1      34.316   9.213  18.207  0.00  0.00    -0.191 NA
ENDROOT
BRANCH   1   9
HETATM    9  N   UNK N   1      36.915  14.199  14.508  0.00  0.00    -0.309 N 
HETATM   10  C   UNK N   1      36.042  14.406  13.492  0.00  0.00     0.321 C 
HETATM   11  N   UNK N   1      36.357  15.202  12.438  0.00  0.00    -0.338 N 
HETATM   12  O   UNK N   1      34.975  13.799  13.479  0.00  0.00    -0.247 OA
HETATM   13  H   UNK N   1      37.083  15.866  12.478  0.00  0.00     0.164 HD
HETATM   14  H   UNK N   1      37.724  14.753  14.598  0.00  0.00     0.170 HD
BRANCH  11  15
HETATM   15  C   UNK N   1      35.550  15.009  11.256  0.00  0.00     0.090 C 
HETATM   16  C   UNK N   1      35.293  16.228  10.395  0.00  0.00     0.055 C 
HETATM   17  C   UNK N   1      34.825  15.844   8.963  0.00  0.00     0.275 C 
HETATM   18  N   UNK N   1      34.494  14.422   8.702  0.00  0.00     0.096 NA
HETATM   19  C   UNK N   1      34.841  14.238   7.299  0.00  0.00     0.310 C 
HETATM   20  C   UNK N   1      35.352  13.444   9.393  0.00  0.00     0.291 C 
HETATM   21  C   UNK N   1      36.265  13.960  10.452  0.00  0.00     0.069 C 
BRANCH  20  22
HETATM   22  C   UNK N   1      34.893  12.011   9.451  0.00  0.00     0.116 A 
HETATM   23  N   UNK N   1      35.406  10.980   8.717  0.00  0.00    -0.342 N 
HETATM   24  C   UNK N   1      34.655   9.925   9.088  0.00  0.00     0.060 A 
HETATM   25  H   UNK N   1      36.147  11.002   8.069  0.00  0.00     0.167 HD
HETATM   26  C   UNK N   1      34.727   8.601   8.653  0.00  0.00     0.032 A 
HETATM   27  C   UNK N   1      33.729  10.326  10.002  0.00  0.00     0.060 A 
HETATM   28  C   UNK N   1      33.792   7.690   9.191  0.00  0.00     0.002 A 
HETATM   29  C   UNK N   1      32.836   8.118  10.144  0.00  0.00     0.002 A 
HETATM   30  C   UNK N   1      32.804   9.459  10.563  0.00  0.00     0.032 A 
HETATM   31  N   UNK N   1      33.858  11.633  10.235  0.00  0.00    -0.342 N 
ATOM     32  HN  UNK N   1      33.301  12.214  10.862  1.00  0.00     0.167 HD
ENDBRANCH  20  22
ENDBRANCH  11  15
ENDBRANCH   1   9
TORSDOF 3
ENDMDL
MODEL 3
REMARK VINA RESULT:      -8.4      1.619      2.738
REMARK  3 active torsions:
REMARK  status: ('A' for Active; 'I' for Inactive)
REMARK    1  A    between atoms: C_5  and  N_18 
REMARK    2  A    between atoms: C_7  and  C_8 
REMARK       I    between atoms: N_18  and  C_19 
REMARK       I    between atoms: C_19  and  N_21 
REMARK    3  A    between atoms: N_21  and  C_22 
ROOT
HETATM    1  C   UNK N   1      33.611  16.983   7.814  0.00  0.00     0.036 A 
HETATM    2  C   UNK N   1      33.387  16.886   6.449  0.00  0.00     0.031 A 
HETATM    3  C   UNK N   1      32.101  16.990   5.944  0.00  0.00     0.025 A 
HETATM    4  C   UNK N   1      31.027  17.188   6.803  0.00  0.00     0.044 A 
HETATM    5  C   UNK N   1      31.235  17.367   8.176  0.00  0.00     0.025 A 
HETATM    6  C   UNK N   1      32.529  17.257   8.688  0.00  0.00     0.031 A 
HETATM    7  C   UNK N   1      29.711  17.181   6.267  0.00  0.00     0.099 C 
HETATM    8  N   UNK N   1      28.630  17.180   5.862  0.00  0.00    -0.191 NA
ENDROOT
BRANCH   1   9
HETATM    9  N   UNK N   1      34.861  16.544   8.325  0.00  0.00    -0.309 N 
HETATM   10  C   UNK N   1      34.957  15.281   8.807  0.00  0.00     0.321 C 
HETATM   11  N   UNK N   1      36.036  14.875   9.524  0.00  0.00    -0.338 N 
HETATM   12  O   UNK N   1      34.014  14.507   8.664  0.00  0.00    -0.247 OA
HETATM   13  H   UNK N   1      36.894  15.356   9.501  0.00  0.00     0.164 HD
HETATM   14  H   UNK N   1      35.641  17.145   8.329  0.00  0.00     0.170 HD
BRANCH  11  15
HETATM   15  C   UNK N   1      35.836  13.687  10.320  0.00  0.00     0.090 C 
HETATM   16  C   UNK N   1      35.775  12.367   9.578  0.00  0.00     0.055 C 
HETATM   17  C   UNK N   1      36.013  11.155  10.522  0.00  0.00     0.275 C 
HETATM   18  N   UNK N   1      36.047  11.412  11.983  0.00  0.00     0.096 NA
HETATM   19  C   UNK N   1      36.971  10.407  12.489  0.00  0.00     0.310 C 
HETATM   20  C   UNK N   1      36.680  12.683  12.378  0.00  0.00     0.291 C 
HETATM   21  C   UNK N   1      36.976  13.667  11.300  0.00  0.00     0.069 C 
BRANCH  20  22
HETATM   22  C   UNK N   1      36.468  13.175  13.786  0.00  0.00     0.116 A 
HETATM   23  N   UNK N   1      35.536  12.701  14.665  0.00  0.00    -0.342 N 
HETATM   24  C   UNK N   1      35.713  13.470  15.757  0.00  0.00     0.060 A 
HETATM   25  H   UNK N   1      34.889  11.971  14.532  0.00  0.00     0.167 HD
HETATM   26  C   UNK N   1      35.027  13.437  16.971  0.00  0.00     0.032 A 
HETATM   27  C   UNK N   1      36.707  14.369  15.522  0.00  0.00     0.060 A 
HETATM   28  C   UNK N   1      35.399  14.384  17.951  0.00  0.00     0.002 A 
HETATM   29  C   UNK N   1      36.438  15.312  17.697  0.00  0.00     0.002 A 
HETATM   30  C   UNK N   1      37.111  15.304  16.463  0.00  0.00     0.032 A 
HETATM   31  N   UNK N   1      37.187  14.204  14.289  0.00  0.00    -0.342 N 
ATOM     32  HN  UNK N   1      37.928  14.736  13.829  1.00  0.00     0.167 HD
ENDBRANCH  20  22
ENDBRANCH  11  15
ENDBRANCH   1   9
TORSDOF 3
ENDMDL
MODEL 4
REMARK VINA RESULT:      -8.3      6.914     10.496
REMARK  3 active torsions:
REMARK  status: ('A' for Active; 'I' for Inactive)
REMARK    1  A    between atoms: C_5  and  N_18 
REMARK    2  A    between atoms: C_7  and  C_8 
REMARK       I    between atoms: N_18  and  C_19 
REMARK       I    between atoms: C_19  and  N_21 
REMARK    3  A    between atoms: N_21  and  C_22 
ROOT
HETATM    1  C   UNK N   1      23.010  12.600   8.688  0.00  0.00     0.036 A 
HETATM    2  C   UNK N   1      24.262  12.414   9.254  0.00  0.00     0.031 A 
HETATM    3  C   UNK N   1      24.387  12.206  10.618  0.00  0.00     0.025 A 
HETATM    4  C   UNK N   1      23.259  12.187  11.428  0.00  0.00     0.044 A 
HETATM    5  C   UNK N   1      21.978  12.294  10.871  0.00  0.00     0.025 A 
HETATM    6  C   UNK N   1      21.850  12.509   9.497  0.00  0.00     0.031 A 
HETATM    7  C   UNK N   1      23.427  12.082  12.836  0.00  0.00     0.099 C 
HETATM    8  N   UNK N   1      23.532  11.998  13.982  0.00  0.00    -0.191 NA
ENDROOT
BRANCH   1   9
HETATM    9  N   UNK N   1      22.936  13.135   7.375  0.00  0.00    -0.309 N 
HETATM   10  C   UNK N   1      24.054  13.125   6.607  0.00  0.00     0.321 C 
HETATM   11  N   UNK N   1      24.124  13.829   5.448  0.00  0.00    -0.338 N 
HETATM   12  O   UNK N   1      25.054  12.534   7.005  0.00  0.00    -0.247 OA
HETATM   13  H   UNK N   1      23.322  14.145   4.975  0.00  0.00     0.164 HD
HETATM   14  H   UNK N   1      22.091  13.506   7.030  0.00  0.00     0.170 HD
BRANCH  11  15
HETATM   15  C   UNK N   1      25.460  14.078   4.959  0.00  0.00     0.090 C 
HETATM   16  C   UNK N   1      25.778  13.592   3.560  0.00  0.00     0.055 C 
HETATM   17  C   UNK N   1      27.039  14.287   2.973  0.00  0.00     0.275 C 
HETATM   18  N   UNK N   1      27.854  15.126   3.885  0.00  0.00     0.096 NA
HETATM   19  C   UNK N   1      28.400  16.156   3.012  0.00  0.00     0.310 C 
HETATM   20  C   UNK N   1      27.085  15.897   4.878  0.00  0.00     0.291 C 
HETATM   21  C   UNK N   1      25.640  15.568   5.032  0.00  0.00     0.069 C 
BRANCH  20  22
HETATM   22  C   UNK N   1      27.830  16.507   6.036  0.00  0.00     0.116 A 
HETATM   23  N   UNK N   1      27.264  17.171   7.087  0.00  0.00    -0.342 N 
HETATM   24  C   UNK N   1      28.323  17.552   7.827  0.00  0.00     0.060 A 
HETATM   25  H   UNK N   1      26.309  17.332   7.262  0.00  0.00     0.167 HD
HETATM   26  C   UNK N   1      28.344  18.273   9.021  0.00  0.00     0.032 A 
HETATM   27  C   UNK N   1      29.470  17.134   7.226  0.00  0.00     0.060 A 
HETATM   28  C   UNK N   1      29.608  18.564   9.580  0.00  0.00     0.002 A 
HETATM   29  C   UNK N   1      30.794  18.121   8.947  0.00  0.00     0.002 A 
HETATM   30  C   UNK N   1      30.728  17.387   7.751  0.00  0.00     0.032 A 
HETATM   31  N   UNK N   1      29.181  16.484   6.097  0.00  0.00    -0.342 N 
ATOM     32  HN  UNK N   1      29.832  16.067   5.431  1.00  0.00     0.167 HD
ENDBRANCH  20  22
ENDBRANCH  11  15
ENDBRANCH   1   9
TORSDOF 3
ENDMDL
MODEL 5
REMARK VINA RESULT:      -8.1      3.637      9.291
REMARK  3 active torsions:
REMARK  status: ('A' for Active; 'I' for Inactive)
REMARK    1  A    between atoms: C_5  and  N_18 
REMARK    2  A    between atoms: C_7  and  C_8 
REMARK       I    between atoms: N_18  and  C_19 
REMARK       I    between atoms: C_19  and  N_21 
REMARK    3  A    between atoms: N_21  and  C_22 
ROOT
HETATM    1  C   UNK N   1      35.535  11.688  15.249  0.00  0.00     0.036 A 
HETATM    2  C   UNK N   1      35.120  12.987  15.503  0.00  0.00     0.031 A 
HETATM    3  C   UNK N   1      34.997  13.436  16.808  0.00  0.00     0.025 A 
HETATM    4  C   UNK N   1      35.285  12.588  17.869  0.00  0.00     0.044 A 
HETATM    5  C   UNK N   1      35.781  11.298  17.639  0.00  0.00     0.025 A 
HETATM    6  C   UNK N   1      35.900  10.841  16.325  0.00  0.00     0.031 A 
HETATM    7  C   UNK N   1      35.045  13.043  19.194  0.00  0.00     0.099 C 
HETATM    8  N   UNK N   1      34.860  13.383  20.282  0.00  0.00    -0.191 NA
ENDROOT
BRANCH   1   9
HETATM    9  N   UNK N   1      35.331  11.158  13.947  0.00  0.00    -0.309 N 
HETATM   10  C   UNK N   1      36.232  11.453  12.979  0.00  0.00     0.321 C 
HETATM   11  N   UNK N   1      35.981  11.188  11.671  0.00  0.00    -0.338 N 
HETATM   12  O   UNK N   1      37.266  12.047  13.276  0.00  0.00    -0.247 OA
HETATM   13  H   UNK N   1      35.291  10.546  11.387  0.00  0.00     0.164 HD
HETATM   14  H   UNK N   1      34.552  10.587  13.753  0.00  0.00     0.170 HD
BRANCH  11  15
HETATM   15  C   UNK N   1      36.798  11.914  10.727  0.00  0.00     0.090 C 
HETATM   16  C   UNK N   1      38.149  11.316  10.390  0.00  0.00     0.055 C 
HETATM   17  C   UNK N   1      38.733  11.899   9.072  0.00  0.00     0.275 C 
HETATM   18  N   UNK N   1      38.039  13.060   8.462  0.00  0.00     0.096 NA
HETATM   19  C   UNK N   1      38.270  12.889   7.034  0.00  0.00     0.310 C 
HETATM   20  C   UNK N   1      36.571  13.037   8.573  0.00  0.00     0.291 C 
HETATM   21  C   UNK N   1      35.966  12.023   9.480  0.00  0.00     0.069 C 
BRANCH  20  22
HETATM   22  C   UNK N   1      35.816  14.309   8.282  0.00  0.00     0.116 A 
HETATM   23  N   UNK N   1      35.440  15.241   9.207  0.00  0.00    -0.342 N 
HETATM   24  C   UNK N   1      34.772  16.156   8.478  0.00  0.00     0.060 A 
HETATM   25  H   UNK N   1      35.614  15.243  10.176  0.00  0.00     0.167 HD
HETATM   26  C   UNK N   1      34.155  17.333   8.902  0.00  0.00     0.032 A 
HETATM   27  C   UNK N   1      34.751  15.769   7.173  0.00  0.00     0.060 A 
HETATM   28  C   UNK N   1      33.494  18.108   7.923  0.00  0.00     0.002 A 
HETATM   29  C   UNK N   1      33.482  17.696   6.567  0.00  0.00     0.002 A 
HETATM   30  C   UNK N   1      34.126  16.509   6.181  0.00  0.00     0.032 A 
HETATM   31  N   UNK N   1      35.393  14.608   7.033  0.00  0.00    -0.342 N 
ATOM     32  HN  UNK N   1      35.532  14.069   6.178  1.00  0.00     0.167 HD
ENDBRANCH  20  22
ENDBRANCH  11  15
ENDBRANCH   1   9
TORSDOF 3
ENDMDL
MODEL 6
REMARK VINA RESULT:      -8.0     10.507     14.865
REMARK  3 active torsions:
REMARK  status: ('A' for Active; 'I' for Inactive)
REMARK    1  A    between atoms: C_5  and  N_18 
REMARK    2  A    between atoms: C_7  and  C_8 
REMARK       I    between atoms: N_18  and  C_19 
REMARK       I    between atoms: C_19  and  N_21 
REMARK    3  A    between atoms: N_21  and  C_22 
ROOT
HETATM    1  C   UNK N   1      20.977  13.789   9.350  0.00  0.00     0.036 A 
HETATM    2  C   UNK N   1      22.357  13.836   9.217  0.00  0.00     0.031 A 
HETATM    3  C   UNK N   1      23.168  13.193  10.139  0.00  0.00     0.025 A 
HETATM    4  C   UNK N   1      22.605  12.503  11.204  0.00  0.00     0.044 A 
HETATM    5  C   UNK N   1      21.214  12.376  11.317  0.00  0.00     0.025 A 
HETATM    6  C   UNK N   1      20.395  13.026  10.393  0.00  0.00     0.031 A 
HETATM    7  C   UNK N   1      23.463  11.949  12.192  0.00  0.00     0.099 C 
HETATM    8  N   UNK N   1      24.134  11.487  13.011  0.00  0.00    -0.191 NA
ENDROOT
BRANCH   1   9
HETATM    9  N   UNK N   1      20.197  14.714   8.607  0.00  0.00    -0.309 N 
HETATM   10  C   UNK N   1      20.253  14.669   7.254  0.00  0.00     0.321 C 
HETATM   11  N   UNK N   1      19.732  15.662   6.488  0.00  0.00    -0.338 N 
HETATM   12  O   UNK N   1      20.857  13.751   6.704  0.00  0.00    -0.247 OA
HETATM   13  H   UNK N   1      19.071  16.303   6.836  0.00  0.00     0.164 HD
HETATM   14  H   UNK N   1      19.627  15.374   9.066  0.00  0.00     0.170 HD
BRANCH  11  15
HETATM   15  C   UNK N   1      20.216  15.711   5.129  0.00  0.00     0.090 C 
HETATM   16  C   UNK N   1      19.367  15.030   4.075  0.00  0.00     0.055 C 
HETATM   17  C   UNK N   1      19.716  15.516   2.640  0.00  0.00     0.275 C 
HETATM   18  N   UNK N   1      20.918  16.369   2.472  0.00  0.00     0.096 NA
HETATM   19  C   UNK N   1      20.580  17.225   1.343  0.00  0.00     0.310 C 
HETATM   20  C   UNK N   1      21.159  17.329   3.564  0.00  0.00     0.291 C 
HETATM   21  C   UNK N   1      20.351  17.173   4.806  0.00  0.00     0.069 C 
BRANCH  20  22
HETATM   22  C   UNK N   1      22.509  17.993   3.642  0.00  0.00     0.116 A 
HETATM   23  N   UNK N   1      22.761  19.316   3.414  0.00  0.00    -0.342 N 
HETATM   24  C   UNK N   1      24.096  19.413   3.565  0.00  0.00     0.060 A 
HETATM   25  H   UNK N   1      22.119  20.029   3.192  0.00  0.00     0.167 HD
HETATM   26  C   UNK N   1      24.912  20.538   3.443  0.00  0.00     0.032 A 
HETATM   27  C   UNK N   1      24.609  18.188   3.863  0.00  0.00     0.060 A 
HETATM   28  C   UNK N   1      26.300  20.356   3.630  0.00  0.00     0.002 A 
HETATM   29  C   UNK N   1      26.822  19.077   3.942  0.00  0.00     0.002 A 
HETATM   30  C   UNK N   1      25.963  17.971   4.067  0.00  0.00     0.032 A 
HETATM   31  N   UNK N   1      23.630  17.283   3.906  0.00  0.00    -0.342 N 
ATOM     32  HN  UNK N   1      23.709  16.284   4.095  1.00  0.00     0.167 HD
ENDBRANCH  20  22
ENDBRANCH  11  15
ENDBRANCH   1   9
TORSDOF 3
ENDMDL
MODEL 7
REMARK VINA RESULT:      -8.0      6.379     11.314
REMARK  3 active torsions:
REMARK  status: ('A' for Active; 'I' for Inactive)
REMARK    1  A    between atoms: C_5  and  N_18 
REMARK    2  A    between atoms: C_7  and  C_8 
REMARK       I    between atoms: N_18  and  C_19 
REMARK       I    between atoms: C_19  and  N_21 
REMARK    3  A    between atoms: N_21  and  C_22 
ROOT
HETATM    1  C   UNK N   1      30.752  16.467   4.068  0.00  0.00     0.036 A 
HETATM    2  C   UNK N   1      31.773  17.287   3.611  0.00  0.00     0.031 A 
HETATM    3  C   UNK N   1      32.799  17.663   4.463  0.00  0.00     0.025 A 
HETATM    4  C   UNK N   1      32.809  17.225   5.781  0.00  0.00     0.044 A 
HETATM    5  C   UNK N   1      31.833  16.333   6.245  0.00  0.00     0.025 A 
HETATM    6  C   UNK N   1      30.795  15.957   5.390  0.00  0.00     0.031 A 
HETATM    7  C   UNK N   1      33.814  17.715   6.659  0.00  0.00     0.099 C 
HETATM    8  N   UNK N   1      34.617  18.096   7.396  0.00  0.00    -0.191 NA
ENDROOT
BRANCH   1   9
HETATM    9  N   UNK N   1      29.564  16.375   3.295  0.00  0.00    -0.309 N 
HETATM   10  C   UNK N   1      28.480  17.088   3.687  0.00  0.00     0.321 C 
HETATM   11  N   UNK N   1      27.254  16.868   3.148  0.00  0.00    -0.338 N 
HETATM   12  O   UNK N   1      28.588  17.896   4.606  0.00  0.00    -0.247 OA
HETATM   13  H   UNK N   1      27.132  16.401   2.290  0.00  0.00     0.164 HD
HETATM   14  H   UNK N   1      29.530  15.806   2.493  0.00  0.00     0.170 HD
BRANCH  11  15
HETATM   15  C   UNK N   1      26.141  17.367   3.921  0.00  0.00     0.090 C 
HETATM   16  C   UNK N   1      25.585  18.720   3.527  0.00  0.00     0.055 C 
HETATM   17  C   UNK N   1      24.156  18.952   4.094  0.00  0.00     0.275 C 
HETATM   18  N   UNK N   1      23.634  17.971   5.077  0.00  0.00     0.096 NA
HETATM   19  C   UNK N   1      22.197  17.973   4.836  0.00  0.00     0.310 C 
HETATM   20  C   UNK N   1      24.018  16.571   4.824  0.00  0.00     0.291 C 
HETATM   21  C   UNK N   1      25.068  16.322   3.798  0.00  0.00     0.069 C 
BRANCH  20  22
HETATM   22  C   UNK N   1      23.815  15.568   5.930  0.00  0.00     0.116 A 
HETATM   23  N   UNK N   1      22.612  15.187   6.451  0.00  0.00    -0.342 N 
HETATM   24  C   UNK N   1      22.949  14.316   7.421  0.00  0.00     0.060 A 
HETATM   25  H   UNK N   1      21.711  15.480   6.181  0.00  0.00     0.167 HD
HETATM   26  C   UNK N   1      22.119  13.611   8.293  0.00  0.00     0.032 A 
HETATM   27  C   UNK N   1      24.304  14.198   7.473  0.00  0.00     0.060 A 
HETATM   28  C   UNK N   1      22.741  12.773   9.245  0.00  0.00     0.002 A 
HETATM   29  C   UNK N   1      24.152  12.656   9.287  0.00  0.00     0.002 A 
HETATM   30  C   UNK N   1      24.951  13.375   8.382  0.00  0.00     0.032 A 
HETATM   31  N   UNK N   1      24.865  14.983   6.551  0.00  0.00    -0.342 N 
ATOM     32  HN  UNK N   1      25.859  15.111   6.360  1.00  0.00     0.167 HD
ENDBRANCH  20  22
ENDBRANCH  11  15
ENDBRANCH   1   9
TORSDOF 3
ENDMDL
MODEL 8
REMARK VINA RESULT:      -7.9     16.703     20.451
REMARK  3 active torsions:
REMARK  status: ('A' for Active; 'I' for Inactive)
REMARK    1  A    between atoms: C_5  and  N_18 
REMARK    2  A    between atoms: C_7  and  C_8 
REMARK       I    between atoms: N_18  and  C_19 
REMARK       I    between atoms: C_19  and  N_21 
REMARK    3  A    between atoms: N_21  and  C_22 
ROOT
HETATM    1  C   UNK N   1      25.972  27.015  -6.484  0.00  0.00     0.036 A 
HETATM    2  C   UNK N   1      27.102  27.813  -6.578  0.00  0.00     0.031 A 
HETATM    3  C   UNK N   1      27.341  28.797  -5.631  0.00  0.00     0.025 A 
HETATM    4  C   UNK N   1      26.448  28.993  -4.586  0.00  0.00     0.044 A 
HETATM    5  C   UNK N   1      25.341  28.150  -4.425  0.00  0.00     0.025 A 
HETATM    6  C   UNK N   1      25.095  27.161  -5.380  0.00  0.00     0.031 A 
HETATM    7  C   UNK N   1      26.662  30.080  -3.695  0.00  0.00     0.099 C 
HETATM    8  N   UNK N   1      26.810  30.954  -2.956  0.00  0.00    -0.191 NA
ENDROOT
BRANCH   1   9
HETATM    9  N   UNK N   1      25.582  26.262  -7.623  0.00  0.00    -0.309 N 
HETATM   10  C   UNK N   1      25.828  24.929  -7.633  0.00  0.00     0.321 C 
HETATM   11  N   UNK N   1      25.708  24.194  -8.768  0.00  0.00    -0.338 N 
HETATM   12  O   UNK N   1      26.247  24.384  -6.615  0.00  0.00    -0.247 OA
HETATM   13  H   UNK N   1      25.192  24.507  -9.546  0.00  0.00     0.164 HD
HETATM   14  H   UNK N   1      25.143  26.699  -8.388  0.00  0.00     0.170 HD
BRANCH  11  15
HETATM   15  C   UNK N   1      26.387  22.920  -8.753  0.00  0.00     0.090 C 
HETATM   16  C   UNK N   1      26.155  22.006  -9.939  0.00  0.00     0.055 C 
HETATM   17  C   UNK N   1      27.246  20.904 -10.049  0.00  0.00     0.275 C 
HETATM   18  N   UNK N   1      28.197  20.756  -8.920  0.00  0.00     0.096 NA
HETATM   19  C   UNK N   1      29.422  20.293  -9.558  0.00  0.00     0.310 C 
HETATM   20  C   UNK N   1      28.605  22.019  -8.280  0.00  0.00     0.291 C 
HETATM   21  C   UNK N   1      27.850  23.249  -8.645  0.00  0.00     0.069 C 
BRANCH  20  22
HETATM   22  C   UNK N   1      29.294  21.947  -6.942  0.00  0.00     0.116 A 
HETATM   23  N   UNK N   1      30.226  21.019  -6.574  0.00  0.00    -0.342 N 
HETATM   24  C   UNK N   1      30.509  21.345  -5.297  0.00  0.00     0.060 A 
HETATM   25  H   UNK N   1      30.603  20.287  -7.113  0.00  0.00     0.167 HD
HETATM   26  C   UNK N   1      31.396  20.732  -4.413  0.00  0.00     0.032 A 
HETATM   27  C   UNK N   1      29.761  22.420  -4.928  0.00  0.00     0.060 A 
HETATM   28  C   UNK N   1      31.482  21.266  -3.108  0.00  0.00     0.002 A 
HETATM   29  C   UNK N   1      30.702  22.387  -2.736  0.00  0.00     0.002 A 
HETATM   30  C   UNK N   1      29.828  22.982  -3.662  0.00  0.00     0.032 A 
HETATM   31  N   UNK N   1      28.986  22.806  -5.943  0.00  0.00    -0.342 N 
ATOM     32  HN  UNK N   1      28.315  23.574  -5.961  1.00  0.00     0.167 HD
ENDBRANCH  20  22
ENDBRANCH  11  15
ENDBRANCH   1   9
TORSDOF 3
ENDMDL
MODEL 9
REMARK VINA RESULT:      -7.8      7.855     12.804
REMARK  3 active torsions:
REMARK  status: ('A' for Active; 'I' for Inactive)
REMARK    1  A    between atoms: C_5  and  N_18 
REMARK    2  A    between atoms: C_7  and  C_8 
REMARK       I    between atoms: N_18  and  C_19 
REMARK       I    between atoms: C_19  and  N_21 
REMARK    3  A    between atoms: N_21  and  C_22 
ROOT
HETATM    1  C   UNK N   1      26.763  18.769   4.992  0.00  0.00     0.036 A 
HETATM    2  C   UNK N   1      27.094  19.948   5.643  0.00  0.00     0.031 A 
HETATM    3  C   UNK N   1      27.806  19.912   6.832  0.00  0.00     0.025 A 
HETATM    4  C   UNK N   1      28.188  18.694   7.380  0.00  0.00     0.044 A 
HETATM    5  C   UNK N   1      27.934  17.495   6.703  0.00  0.00     0.025 A 
HETATM    6  C   UNK N   1      27.213  17.528   5.508  0.00  0.00     0.031 A 
HETATM    7  C   UNK N   1      28.820  18.685   8.654  0.00  0.00     0.099 C 
HETATM    8  N   UNK N   1      29.335  18.645   9.686  0.00  0.00    -0.191 NA
ENDROOT
BRANCH   1   9
HETATM    9  N   UNK N   1      25.766  18.814   3.982  0.00  0.00    -0.309 N 
HETATM   10  C   UNK N   1      24.467  18.690   4.348  0.00  0.00     0.321 C 
HETATM   11  N   UNK N   1      23.488  18.482   3.430  0.00  0.00    -0.338 N 
HETATM   12  O   UNK N   1      24.173  18.684   5.540  0.00  0.00    -0.247 OA
HETATM   13  H   UNK N   1      23.613  18.679   2.474  0.00  0.00     0.164 HD
HETATM   14  H   UNK N   1      26.014  18.933   3.036  0.00  0.00     0.170 HD
BRANCH  11  15
HETATM   15  C   UNK N   1      22.251  17.955   3.956  0.00  0.00     0.090 C 
HETATM   16  C   UNK N   1      20.982  18.316   3.213  0.00  0.00     0.055 C 
HETATM   17  C   UNK N   1      19.806  17.363   3.568  0.00  0.00     0.275 C 
HETATM   18  N   UNK N   1      20.000  16.413   4.691  0.00  0.00     0.096 NA
HETATM   19  C   UNK N   1      19.188  15.264   4.315  0.00  0.00     0.310 C 
HETATM   20  C   UNK N   1      21.356  15.848   4.801  0.00  0.00     0.291 C 
HETATM   21  C   UNK N   1      22.426  16.462   3.967  0.00  0.00     0.069 C 
BRANCH  20  22
HETATM   22  C   UNK N   1      21.731  15.145   6.080  0.00  0.00     0.116 A 
HETATM   23  N   UNK N   1      22.748  14.245   6.226  0.00  0.00    -0.342 N 
HETATM   24  C   UNK N   1      22.659  13.877   7.519  0.00  0.00     0.060 A 
HETATM   25  H   UNK N   1      23.392  13.938   5.548  0.00  0.00     0.167 HD
HETATM   26  C   UNK N   1      23.448  12.970   8.228  0.00  0.00     0.032 A 
HETATM   27  C   UNK N   1      21.621  14.532   8.107  0.00  0.00     0.060 A 
HETATM   28  C   UNK N   1      23.119  12.746   9.583  0.00  0.00     0.002 A 
HETATM   29  C   UNK N   1      22.038  13.436  10.185  0.00  0.00     0.002 A 
HETATM   30  C   UNK N   1      21.277  14.350   9.438  0.00  0.00     0.032 A 
HETATM   31  N   UNK N   1      21.021  15.325   7.217  0.00  0.00    -0.342 N 
ATOM     32  HN  UNK N   1      20.212  15.928   7.363  1.00  0.00     0.167 HD
ENDBRANCH  20  22
ENDBRANCH  11  15
ENDBRANCH   1   9
TORSDOF 3
ENDMDL
