MODEL 1
REMARK VINA RESULT:      -7.2      0.000      0.000
REMARK  13 active torsions:
REMARK  status: ('A' for Active; 'I' for Inactive)
REMARK    1  A    between atoms: C_3  and  O_2 
REMARK    2  A    between atoms: C_3  and  N_26 
REMARK    3  A    between atoms: C_8  and  C_23 
REMARK    4  A    between atoms: C_9  and  C_12 
REMARK    5  A    between atoms: C_12  and  S_13 
REMARK    6  A    between atoms: S_13  and  C_14 
REMARK    7  A    between atoms: N_19  and  C_20 
REMARK    8  A    between atoms: C_20  and  C_21 
REMARK    9  A    between atoms: C_21  and  O_22 
REMARK   10  A    between atoms: C_23  and  O_25 
REMARK       I    between atoms: N_26  and  C_27 
REMARK   11  A    between atoms: C_27  and  C_29 
REMARK   12  A    between atoms: C_29  and  S_30 
REMARK   13  A    between atoms: S_30  and  C_31 
ROOT
HETATM    1  C   UNK N   1      21.296  17.441   4.319  0.00  0.00     0.265 A 
HETATM    2  C   UNK N   1      22.916  17.252   4.123  0.00  0.00     0.297 A 
HETATM    3  N   UNK N   1      22.938  18.640   3.817  0.00  0.00    -0.274 N 
HETATM    4  C   UNK N   1      21.674  18.859   4.014  0.00  0.00     0.287 A 
HETATM    5  O   UNK N   1      21.071  19.921   3.951  0.00  0.00    -0.267 OA
HETATM    6  C   UNK N   1      24.114  19.377   3.600  0.00  0.00     0.119 C 
HETATM    7  C   UNK N   1      25.220  18.824   4.152  0.00  0.00    -0.013 C 
HETATM    8  C   UNK N   1      25.074  17.497   4.922  0.00  0.00     0.208 C 
HETATM    9  O   UNK N   1      23.731  17.126   5.267  0.00  0.00    -0.356 OA
ENDROOT
BRANCH   7  10
HETATM   10  C   UNK N   1      26.572  19.458   4.071  0.00  0.00     0.121 C 
BRANCH  10  11
HETATM   11  S   UNK N   1      27.025  20.085   5.721  0.00  0.00    -0.087 SA
BRANCH  11  12
HETATM   12  C   UNK N   1      28.239  18.795   5.965  0.00  0.00     0.172 A 
HETATM   13  N   UNK N   1      28.860  18.141   4.970  0.00  0.00    -0.265 N 
HETATM   14  N   UNK N   1      29.678  17.280   5.565  0.00  0.00    -0.007 NA
ATOM     15  HN  UNK N   1      28.730  18.275   3.967  1.00  0.00     0.186 HD
HETATM   16  N   UNK N   1      29.568  17.401   6.882  0.00  0.00    -0.004 NA
HETATM   17  N   UNK N   1      28.676  18.340   7.147  0.00  0.00    -0.254 N 
BRANCH  17  18
HETATM   18  C   UNK N   1      28.285  18.774   8.479  0.00  0.00     0.174 C 
BRANCH  18  19
HETATM   19  C   UNK N   1      28.813  17.805   9.519  0.00  0.00     0.185 C 
BRANCH  19  20
HETATM   20  O   UNK N   1      29.642  18.485  10.410  0.00  0.00    -0.399 OA
HETATM   21  H   UNK N   1      29.313  18.827  11.256  0.00  0.00     0.209 HD
ENDBRANCH  19  20
ENDBRANCH  18  19
ENDBRANCH  17  18
ENDBRANCH  11  12
ENDBRANCH  10  11
ENDBRANCH   7  10
BRANCH   6  22
HETATM   22  C   UNK N   1      24.100  20.641   2.797  0.00  0.00     0.194 C 
HETATM   23  O   UNK N   1      24.844  20.786   1.840  0.00  0.00    -0.645 OA
BRANCH  22  24
HETATM   24  O   UNK N   1      23.184  21.592   3.060  0.00  0.00    -0.772 OA
HETATM   25  H   UNK N   1      22.338  21.587   2.657  0.00  0.00     0.167 HD
ENDBRANCH  22  24
ENDBRANCH   6  22
BRANCH   1  26
HETATM   26  O   UNK N   1      20.582  16.877   3.242  0.00  0.00    -0.354 OA
HETATM   27  C   UNK N   1      21.319  15.792   2.738  0.00  0.00     0.205 C 
ENDBRANCH   1  26
BRANCH   1  28
HETATM   28  N   UNK N   1      20.731  17.019   5.605  0.00  0.00    -0.317 N 
HETATM   29  C   UNK N   1      20.759  17.620   6.823  0.00  0.00     0.229 C 
HETATM   30  O   UNK N   1      21.260  18.719   6.984  0.00  0.00    -0.273 OA
HETATM   31  H   UNK N   1      20.253  16.159   5.582  0.00  0.00     0.166 HD
BRANCH  29  32
HETATM   32  C   UNK N   1      20.199  16.891   8.005  0.00  0.00     0.182 C 
BRANCH  32  33
HETATM   33  S   UNK N   1      19.411  18.074   9.146  0.00  0.00    -0.091 SA
BRANCH  33  34
HETATM   34  C   UNK N   1      17.902  17.067   9.268  0.00  0.00     0.416 C 
HETATM   35  F   UNK N   1      16.976  17.694  10.078  0.00  0.00    -0.203 F 
HETATM   36  F   UNK N   1      18.202  15.811   9.760  0.00  0.00    -0.203 F 
ENDBRANCH  33  34
ENDBRANCH  32  33
ENDBRANCH  29  32
ENDBRANCH   1  28
TORSDOF 13
ENDMDL
MODEL 2
REMARK VINA RESULT:      -7.2      1.332      1.610
REMARK  13 active torsions:
REMARK  status: ('A' for Active; 'I' for Inactive)
REMARK    1  A    between atoms: C_3  and  O_2 
REMARK    2  A    between atoms: C_3  and  N_26 
REMARK    3  A    between atoms: C_8  and  C_23 
REMARK    4  A    between atoms: C_9  and  C_12 
REMARK    5  A    between atoms: C_12  and  S_13 
REMARK    6  A    between atoms: S_13  and  C_14 
REMARK    7  A    between atoms: N_19  and  C_20 
REMARK    8  A    between atoms: C_20  and  C_21 
REMARK    9  A    between atoms: C_21  and  O_22 
REMARK   10  A    between atoms: C_23  and  O_25 
REMARK       I    between atoms: N_26  and  C_27 
REMARK   11  A    between atoms: C_27  and  C_29 
REMARK   12  A    between atoms: C_29  and  S_30 
REMARK   13  A    between atoms: S_30  and  C_31 
ROOT
HETATM    1  C   UNK N   1      21.366  17.331   4.256  0.00  0.00     0.265 A 
HETATM    2  C   UNK N   1      22.991  17.186   4.070  0.00  0.00     0.297 A 
HETATM    3  N   UNK N   1      22.980  18.578   3.787  0.00  0.00    -0.274 N 
HETATM    4  C   UNK N   1      21.709  18.762   3.978  0.00  0.00     0.287 A 
HETATM    5  O   UNK N   1      21.080  19.809   3.927  0.00  0.00    -0.267 OA
HETATM    6  C   UNK N   1      24.139  19.349   3.591  0.00  0.00     0.119 C 
HETATM    7  C   UNK N   1      25.254  18.815   4.143  0.00  0.00    -0.013 C 
HETATM    8  C   UNK N   1      25.136  17.471   4.890  0.00  0.00     0.208 C 
HETATM    9  O   UNK N   1      23.800  17.061   5.219  0.00  0.00    -0.356 OA
ENDROOT
BRANCH   7  10
HETATM   10  C   UNK N   1      26.590  19.484   4.084  0.00  0.00     0.121 C 
BRANCH  10  11
HETATM   11  S   UNK N   1      27.226  19.675   5.780  0.00  0.00    -0.087 SA
BRANCH  11  12
HETATM   12  C   UNK N   1      28.532  18.484   5.510  0.00  0.00     0.172 A 
HETATM   13  N   UNK N   1      28.900  18.024   4.302  0.00  0.00    -0.265 N 
HETATM   14  N   UNK N   1      29.894  17.175   4.532  0.00  0.00    -0.007 NA
ATOM     15  HN  UNK N   1      28.499  18.274   3.398  1.00  0.00     0.186 HD
HETATM   16  N   UNK N   1      30.134  17.114   5.836  0.00  0.00    -0.004 NA
HETATM   17  N   UNK N   1      29.294  17.923   6.458  0.00  0.00    -0.254 N 
BRANCH  17  18
HETATM   18  C   UNK N   1      29.249  18.143   7.895  0.00  0.00     0.174 C 
BRANCH  18  19
HETATM   19  C   UNK N   1      28.120  17.340   8.511  0.00  0.00     0.185 C 
BRANCH  19  20
HETATM   20  O   UNK N   1      27.398  18.150   9.387  0.00  0.00    -0.399 OA
HETATM   21  H   UNK N   1      27.819  18.871   9.882  0.00  0.00     0.209 HD
ENDBRANCH  19  20
ENDBRANCH  18  19
ENDBRANCH  17  18
ENDBRANCH  11  12
ENDBRANCH  10  11
ENDBRANCH   7  10
BRANCH   6  22
HETATM   22  C   UNK N   1      24.098  20.625   2.809  0.00  0.00     0.194 C 
HETATM   23  O   UNK N   1      24.833  20.798   1.849  0.00  0.00    -0.645 OA
BRANCH  22  24
HETATM   24  O   UNK N   1      23.169  21.556   3.094  0.00  0.00    -0.772 OA
HETATM   25  H   UNK N   1      23.300  22.195   3.767  0.00  0.00     0.167 HD
ENDBRANCH  22  24
ENDBRANCH   6  22
BRANCH   1  26
HETATM   26  O   UNK N   1      20.674  16.767   3.165  0.00  0.00    -0.354 OA
HETATM   27  C   UNK N   1      21.233  15.507   2.886  0.00  0.00     0.205 C 
ENDBRANCH   1  26
BRANCH   1  28
HETATM   28  N   UNK N   1      20.801  16.873   5.530  0.00  0.00    -0.317 N 
HETATM   29  C   UNK N   1      20.823  17.444   6.763  0.00  0.00     0.229 C 
HETATM   30  O   UNK N   1      21.316  18.542   6.952  0.00  0.00    -0.273 OA
HETATM   31  H   UNK N   1      20.330  16.010   5.486  0.00  0.00     0.166 HD
BRANCH  29  32
HETATM   32  C   UNK N   1      20.267  16.683   7.926  0.00  0.00     0.182 C 
BRANCH  32  33
HETATM   33  S   UNK N   1      20.691  14.917   7.770  0.00  0.00    -0.091 SA
BRANCH  33  34
HETATM   34  C   UNK N   1      20.652  14.671   9.571  0.00  0.00     0.416 C 
HETATM   35  F   UNK N   1      21.678  13.830   9.958  0.00  0.00    -0.203 F 
HETATM   36  F   UNK N   1      19.431  14.153   9.959  0.00  0.00    -0.203 F 
ENDBRANCH  33  34
ENDBRANCH  32  33
ENDBRANCH  29  32
ENDBRANCH   1  28
TORSDOF 13
ENDMDL
MODEL 3
REMARK VINA RESULT:      -7.1      4.776      8.441
REMARK  13 active torsions:
REMARK  status: ('A' for Active; 'I' for Inactive)
REMARK    1  A    between atoms: C_3  and  O_2 
REMARK    2  A    between atoms: C_3  and  N_26 
REMARK    3  A    between atoms: C_8  and  C_23 
REMARK    4  A    between atoms: C_9  and  C_12 
REMARK    5  A    between atoms: C_12  and  S_13 
REMARK    6  A    between atoms: S_13  and  C_14 
REMARK    7  A    between atoms: N_19  and  C_20 
REMARK    8  A    between atoms: C_20  and  C_21 
REMARK    9  A    between atoms: C_21  and  O_22 
REMARK   10  A    between atoms: C_23  and  O_25 
REMARK       I    between atoms: N_26  and  C_27 
REMARK   11  A    between atoms: C_27  and  C_29 
REMARK   12  A    between atoms: C_29  and  S_30 
REMARK   13  A    between atoms: S_30  and  C_31 
ROOT
HETATM    1  C   UNK N   1      26.210  19.792   3.965  0.00  0.00     0.265 A 
HETATM    2  C   UNK N   1      24.811  19.347   4.702  0.00  0.00     0.297 A 
HETATM    3  N   UNK N   1      24.159  19.880   3.558  0.00  0.00    -0.274 N 
HETATM    4  C   UNK N   1      25.233  20.200   2.904  0.00  0.00     0.287 A 
HETATM    5  O   UNK N   1      25.323  20.676   1.782  0.00  0.00    -0.267 OA
HETATM    6  C   UNK N   1      22.774  19.791   3.331  0.00  0.00     0.119 C 
HETATM    7  C   UNK N   1      22.171  18.781   4.003  0.00  0.00    -0.013 C 
HETATM    8  C   UNK N   1      23.033  17.882   4.911  0.00  0.00     0.208 C 
HETATM    9  O   UNK N   1      24.451  17.984   4.716  0.00  0.00    -0.356 OA
ENDROOT
BRANCH   7  10
HETATM   10  C   UNK N   1      20.711  18.484   3.881  0.00  0.00     0.121 C 
BRANCH  10  11
HETATM   11  S   UNK N   1      20.485  16.679   3.787  0.00  0.00    -0.087 SA
BRANCH  11  12
HETATM   12  C   UNK N   1      20.353  16.708   2.004  0.00  0.00     0.172 A 
HETATM   13  N   UNK N   1      20.207  17.826   1.273  0.00  0.00    -0.265 N 
HETATM   14  N   UNK N   1      20.156  17.421   0.010  0.00  0.00    -0.007 NA
ATOM     15  HN  UNK N   1      20.148  18.784   1.617  1.00  0.00     0.186 HD
HETATM   16  N   UNK N   1      20.269  16.100  -0.039  0.00  0.00    -0.004 NA
HETATM   17  N   UNK N   1      20.391  15.641   1.195  0.00  0.00    -0.254 N 
BRANCH  17  18
HETATM   18  C   UNK N   1      20.551  14.242   1.558  0.00  0.00     0.174 C 
BRANCH  18  19
HETATM   19  C   UNK N   1      21.686  13.623   0.766  0.00  0.00     0.185 C 
BRANCH  19  20
HETATM   20  O   UNK N   1      22.725  14.546   0.646  0.00  0.00    -0.399 OA
HETATM   21  H   UNK N   1      23.654  14.286   0.749  0.00  0.00     0.209 HD
ENDBRANCH  19  20
ENDBRANCH  18  19
ENDBRANCH  17  18
ENDBRANCH  11  12
ENDBRANCH  10  11
ENDBRANCH   7  10
BRANCH   6  22
HETATM   22  C   UNK N   1      22.071  20.766   2.440  0.00  0.00     0.194 C 
HETATM   23  O   UNK N   1      21.585  20.411   1.378  0.00  0.00    -0.645 OA
BRANCH  22  24
HETATM   24  O   UNK N   1      21.872  22.031   2.856  0.00  0.00    -0.772 OA
HETATM   25  H   UNK N   1      21.746  22.239   3.761  0.00  0.00     0.167 HD
ENDBRANCH  22  24
ENDBRANCH   6  22
BRANCH   1  26
HETATM   26  O   UNK N   1      26.775  20.927   4.581  0.00  0.00    -0.354 OA
HETATM   27  C   UNK N   1      26.319  20.986   5.910  0.00  0.00     0.205 C 
ENDBRANCH   1  26
BRANCH   1  28
HETATM   28  N   UNK N   1      27.217  18.744   3.769  0.00  0.00    -0.317 N 
HETATM   29  C   UNK N   1      27.890  17.982   4.672  0.00  0.00     0.229 C 
HETATM   30  O   UNK N   1      27.662  18.055   5.866  0.00  0.00    -0.273 OA
HETATM   31  H   UNK N   1      27.445  18.563   2.829  0.00  0.00     0.166 HD
BRANCH  29  32
HETATM   32  C   UNK N   1      28.968  17.064   4.187  0.00  0.00     0.182 C 
BRANCH  32  33
HETATM   33  S   UNK N   1      29.651  16.117   5.587  0.00  0.00    -0.091 SA
BRANCH  33  34
HETATM   34  C   UNK N   1      31.268  16.935   5.450  0.00  0.00     0.416 C 
HETATM   35  F   UNK N   1      31.607  17.524   6.652  0.00  0.00    -0.203 F 
HETATM   36  F   UNK N   1      31.246  17.878   4.440  0.00  0.00    -0.203 F 
ENDBRANCH  33  34
ENDBRANCH  32  33
ENDBRANCH  29  32
ENDBRANCH   1  28
TORSDOF 13
ENDMDL
MODEL 4
REMARK VINA RESULT:      -7.1      4.170      6.917
REMARK  13 active torsions:
REMARK  status: ('A' for Active; 'I' for Inactive)
REMARK    1  A    between atoms: C_3  and  O_2 
REMARK    2  A    between atoms: C_3  and  N_26 
REMARK    3  A    between atoms: C_8  and  C_23 
REMARK    4  A    between atoms: C_9  and  C_12 
REMARK    5  A    between atoms: C_12  and  S_13 
REMARK    6  A    between atoms: S_13  and  C_14 
REMARK    7  A    between atoms: N_19  and  C_20 
REMARK    8  A    between atoms: C_20  and  C_21 
REMARK    9  A    between atoms: C_21  and  O_22 
REMARK   10  A    between atoms: C_23  and  O_25 
REMARK       I    between atoms: N_26  and  C_27 
REMARK   11  A    between atoms: C_27  and  C_29 
REMARK   12  A    between atoms: C_29  and  S_30 
REMARK   13  A    between atoms: S_30  and  C_31 
ROOT
HETATM    1  C   UNK N   1      27.455  19.383   5.922  0.00  0.00     0.265 A 
HETATM    2  C   UNK N   1      28.595  18.358   5.332  0.00  0.00     0.297 A 
HETATM    3  N   UNK N   1      28.976  18.165   6.688  0.00  0.00    -0.274 N 
HETATM    4  C   UNK N   1      28.059  18.918   7.213  0.00  0.00     0.287 A 
HETATM    5  O   UNK N   1      27.833  19.122   8.397  0.00  0.00    -0.267 OA
HETATM    6  C   UNK N   1      29.944  17.236   7.106  0.00  0.00     0.119 C 
HETATM    7  C   UNK N   1      30.148  16.223   6.231  0.00  0.00    -0.013 C 
HETATM    8  C   UNK N   1      29.334  16.205   4.922  0.00  0.00     0.208 C 
HETATM    9  O   UNK N   1      28.197  17.080   4.888  0.00  0.00    -0.356 OA
ENDROOT
BRANCH   7  10
HETATM   10  C   UNK N   1      31.108  15.107   6.491  0.00  0.00     0.121 C 
BRANCH  10  11
HETATM   11  S   UNK N   1      32.395  15.127   5.202  0.00  0.00    -0.087 SA
BRANCH  11  12
HETATM   12  C   UNK N   1      33.414  16.270   6.124  0.00  0.00     0.172 A 
HETATM   13  N   UNK N   1      33.485  17.590   5.880  0.00  0.00    -0.265 N 
HETATM   14  N   UNK N   1      34.335  18.074   6.777  0.00  0.00    -0.007 NA
ATOM     15  HN  UNK N   1      32.990  18.111   5.156  1.00  0.00     0.186 HD
HETATM   16  N   UNK N   1      34.772  17.089   7.551  0.00  0.00    -0.004 NA
HETATM   17  N   UNK N   1      34.209  15.960   7.157  0.00  0.00    -0.254 N 
BRANCH  17  18
HETATM   18  C   UNK N   1      34.426  14.656   7.764  0.00  0.00     0.174 C 
BRANCH  18  19
HETATM   19  C   UNK N   1      33.896  14.648   9.185  0.00  0.00     0.185 C 
BRANCH  19  20
HETATM   20  O   UNK N   1      33.227  15.845   9.438  0.00  0.00    -0.399 OA
HETATM   21  H   UNK N   1      33.119  16.525   8.755  0.00  0.00     0.209 HD
ENDBRANCH  19  20
ENDBRANCH  18  19
ENDBRANCH  17  18
ENDBRANCH  11  12
ENDBRANCH  10  11
ENDBRANCH   7  10
BRANCH   6  22
HETATM   22  C   UNK N   1      30.678  17.410   8.399  0.00  0.00     0.194 C 
HETATM   23  O   UNK N   1      30.299  16.853   9.418  0.00  0.00    -0.645 OA
BRANCH  22  24
HETATM   24  O   UNK N   1      31.832  18.101   8.427  0.00  0.00    -0.772 OA
HETATM   25  H   UNK N   1      32.569  17.811   8.927  0.00  0.00     0.167 HD
ENDBRANCH  22  24
ENDBRANCH   6  22
BRANCH   1  26
HETATM   26  O   UNK N   1      27.798  20.728   5.672  0.00  0.00    -0.354 OA
HETATM   27  C   UNK N   1      26.887  21.554   6.353  0.00  0.00     0.205 C 
ENDBRANCH   1  26
BRANCH   1  28
HETATM   28  N   UNK N   1      26.064  19.115   5.544  0.00  0.00    -0.317 N 
HETATM   29  C   UNK N   1      25.449  19.173   4.334  0.00  0.00     0.229 C 
HETATM   30  O   UNK N   1      26.066  19.425   3.314  0.00  0.00    -0.273 OA
HETATM   31  H   UNK N   1      25.478  18.851   6.290  0.00  0.00     0.166 HD
BRANCH  29  32
HETATM   32  C   UNK N   1      23.968  18.967   4.261  0.00  0.00     0.182 C 
BRANCH  32  33
HETATM   33  S   UNK N   1      23.237  20.138   3.072  0.00  0.00    -0.091 SA
BRANCH  33  34
HETATM   34  C   UNK N   1      21.588  19.389   3.232  0.00  0.00     0.416 C 
HETATM   35  F   UNK N   1      20.692  20.313   3.733  0.00  0.00    -0.203 F 
HETATM   36  F   UNK N   1      21.643  18.278   4.052  0.00  0.00    -0.203 F 
ENDBRANCH  33  34
ENDBRANCH  32  33
ENDBRANCH  29  32
ENDBRANCH   1  28
TORSDOF 13
ENDMDL
MODEL 5
REMARK VINA RESULT:      -7.0      9.714     14.153
REMARK  13 active torsions:
REMARK  status: ('A' for Active; 'I' for Inactive)
REMARK    1  A    between atoms: C_3  and  O_2 
REMARK    2  A    between atoms: C_3  and  N_26 
REMARK    3  A    between atoms: C_8  and  C_23 
REMARK    4  A    between atoms: C_9  and  C_12 
REMARK    5  A    between atoms: C_12  and  S_13 
REMARK    6  A    between atoms: S_13  and  C_14 
REMARK    7  A    between atoms: N_19  and  C_20 
REMARK    8  A    between atoms: C_20  and  C_21 
REMARK    9  A    between atoms: C_21  and  O_22 
REMARK   10  A    between atoms: C_23  and  O_25 
REMARK       I    between atoms: N_26  and  C_27 
REMARK   11  A    between atoms: C_27  and  C_29 
REMARK   12  A    between atoms: C_29  and  S_30 
REMARK   13  A    between atoms: S_30  and  C_31 
ROOT
HETATM    1  C   UNK N   1      36.842  13.168  11.655  0.00  0.00     0.265 A 
HETATM    2  C   UNK N   1      36.513  14.554  10.837  0.00  0.00     0.297 A 
HETATM    3  N   UNK N   1      35.376  13.866  10.333  0.00  0.00    -0.274 N 
HETATM    4  C   UNK N   1      35.555  12.767  11.000  0.00  0.00     0.287 A 
HETATM    5  O   UNK N   1      34.844  11.773  11.025  0.00  0.00    -0.267 OA
HETATM    6  C   UNK N   1      34.388  14.463   9.532  0.00  0.00     0.119 C 
HETATM    7  C   UNK N   1      34.321  15.811   9.654  0.00  0.00    -0.013 C 
HETATM    8  C   UNK N   1      35.301  16.512  10.615  0.00  0.00     0.208 C 
HETATM    9  O   UNK N   1      35.981  15.653  11.542  0.00  0.00    -0.356 OA
ENDROOT
BRANCH   7  10
HETATM   10  C   UNK N   1      33.321  16.644   8.919  0.00  0.00     0.121 C 
BRANCH  10  11
HETATM   11  S   UNK N   1      34.206  17.744   7.768  0.00  0.00    -0.087 SA
BRANCH  11  12
HETATM   12  C   UNK N   1      33.969  16.627   6.393  0.00  0.00     0.172 A 
HETATM   13  N   UNK N   1      34.906  15.779   5.935  0.00  0.00    -0.265 N 
HETATM   14  N   UNK N   1      34.338  15.133   4.924  0.00  0.00    -0.007 NA
ATOM     15  HN  UNK N   1      35.854  15.658   6.290  1.00  0.00     0.186 HD
HETATM   16  N   UNK N   1      33.094  15.564   4.763  0.00  0.00    -0.004 NA
HETATM   17  N   UNK N   1      32.849  16.495   5.670  0.00  0.00    -0.254 N 
BRANCH  17  18
HETATM   18  C   UNK N   1      31.589  17.203   5.826  0.00  0.00     0.174 C 
BRANCH  18  19
HETATM   19  C   UNK N   1      30.864  17.280   4.496  0.00  0.00     0.185 C 
BRANCH  19  20
HETATM   20  O   UNK N   1      31.648  17.981   3.580  0.00  0.00    -0.399 OA
HETATM   21  H   UNK N   1      32.547  17.697   3.353  0.00  0.00     0.209 HD
ENDBRANCH  19  20
ENDBRANCH  18  19
ENDBRANCH  17  18
ENDBRANCH  11  12
ENDBRANCH  10  11
ENDBRANCH   7  10
BRANCH   6  22
HETATM   22  C   UNK N   1      33.530  13.644   8.618  0.00  0.00     0.194 C 
HETATM   23  O   UNK N   1      33.957  13.243   7.547  0.00  0.00    -0.645 OA
BRANCH  22  24
HETATM   24  O   UNK N   1      32.309  13.248   9.021  0.00  0.00    -0.772 OA
HETATM   25  H   UNK N   1      31.936  13.542   9.829  0.00  0.00     0.167 HD
ENDBRANCH  22  24
ENDBRANCH   6  22
BRANCH   1  26
HETATM   26  O   UNK N   1      37.927  12.478  11.078  0.00  0.00    -0.354 OA
HETATM   27  C   UNK N   1      38.648  13.377  10.271  0.00  0.00     0.205 C 
ENDBRANCH   1  26
BRANCH   1  28
HETATM   28  N   UNK N   1      37.002  13.280  13.109  0.00  0.00    -0.317 N 
HETATM   29  C   UNK N   1      36.077  13.445  14.091  0.00  0.00     0.229 C 
HETATM   30  O   UNK N   1      34.883  13.460  13.850  0.00  0.00    -0.273 OA
HETATM   31  H   UNK N   1      37.933  13.229  13.425  0.00  0.00     0.166 HD
BRANCH  29  32
HETATM   32  C   UNK N   1      36.542  13.657  15.498  0.00  0.00     0.182 C 
BRANCH  32  33
HETATM   33  S   UNK N   1      35.653  12.530  16.621  0.00  0.00    -0.091 SA
BRANCH  33  34
HETATM   34  C   UNK N   1      35.172  13.890  17.727  0.00  0.00     0.416 C 
HETATM   35  F   UNK N   1      36.139  14.876  17.718  0.00  0.00    -0.203 F 
HETATM   36  F   UNK N   1      34.976  13.419  19.011  0.00  0.00    -0.203 F 
ENDBRANCH  33  34
ENDBRANCH  32  33
ENDBRANCH  29  32
ENDBRANCH   1  28
TORSDOF 13
ENDMDL
MODEL 6
REMARK VINA RESULT:      -6.9     12.809     16.012
REMARK  13 active torsions:
REMARK  status: ('A' for Active; 'I' for Inactive)
REMARK    1  A    between atoms: C_3  and  O_2 
REMARK    2  A    between atoms: C_3  and  N_26 
REMARK    3  A    between atoms: C_8  and  C_23 
REMARK    4  A    between atoms: C_9  and  C_12 
REMARK    5  A    between atoms: C_12  and  S_13 
REMARK    6  A    between atoms: S_13  and  C_14 
REMARK    7  A    between atoms: N_19  and  C_20 
REMARK    8  A    between atoms: C_20  and  C_21 
REMARK    9  A    between atoms: C_21  and  O_22 
REMARK   10  A    between atoms: C_23  and  O_25 
REMARK       I    between atoms: N_26  and  C_27 
REMARK   11  A    between atoms: C_27  and  C_29 
REMARK   12  A    between atoms: C_29  and  S_30 
REMARK   13  A    between atoms: S_30  and  C_31 
ROOT
HETATM    1  C   UNK N   1      27.048  24.751  -4.123  0.00  0.00     0.265 A 
HETATM    2  C   UNK N   1      27.905  23.702  -5.053  0.00  0.00     0.297 A 
HETATM    3  N   UNK N   1      26.747  23.646  -5.876  0.00  0.00    -0.274 N 
HETATM    4  C   UNK N   1      26.046  24.512  -5.211  0.00  0.00     0.287 A 
HETATM    5  O   UNK N   1      24.929  24.940  -5.469  0.00  0.00    -0.267 OA
HETATM    6  C   UNK N   1      26.685  22.954  -7.098  0.00  0.00     0.119 C 
HETATM    7  C   UNK N   1      27.893  22.746  -7.674  0.00  0.00    -0.013 C 
HETATM    8  C   UNK N   1      29.152  23.264  -6.952  0.00  0.00     0.208 C 
HETATM    9  O   UNK N   1      28.917  24.207  -5.895  0.00  0.00    -0.356 OA
ENDROOT
BRANCH   7  10
HETATM   10  C   UNK N   1      28.056  22.060  -8.992  0.00  0.00     0.121 C 
BRANCH  10  11
HETATM   11  S   UNK N   1      28.778  23.237 -10.180  0.00  0.00    -0.087 SA
BRANCH  11  12
HETATM   12  C   UNK N   1      27.170  23.779 -10.743  0.00  0.00     0.172 A 
HETATM   13  N   UNK N   1      26.256  22.976 -11.313  0.00  0.00    -0.265 N 
HETATM   14  N   UNK N   1      25.212  23.753 -11.575  0.00  0.00    -0.007 NA
ATOM     15  HN  UNK N   1      26.346  21.979 -11.506  1.00  0.00     0.186 HD
HETATM   16  N   UNK N   1      25.470  24.993 -11.177  0.00  0.00    -0.004 NA
HETATM   17  N   UNK N   1      26.686  25.025 -10.658  0.00  0.00    -0.254 N 
BRANCH  17  18
HETATM   18  C   UNK N   1      27.328  26.204 -10.099  0.00  0.00     0.174 C 
BRANCH  18  19
HETATM   19  C   UNK N   1      27.061  26.287  -8.609  0.00  0.00     0.185 C 
BRANCH  19  20
HETATM   20  O   UNK N   1      25.716  26.012  -8.362  0.00  0.00    -0.399 OA
HETATM   21  H   UNK N   1      25.290  25.206  -8.693  0.00  0.00     0.209 HD
ENDBRANCH  19  20
ENDBRANCH  18  19
ENDBRANCH  17  18
ENDBRANCH  11  12
ENDBRANCH  10  11
ENDBRANCH   7  10
BRANCH   6  22
HETATM   22  C   UNK N   1      25.378  22.484  -7.657  0.00  0.00     0.194 C 
HETATM   23  O   UNK N   1      24.850  21.462  -7.247  0.00  0.00    -0.645 OA
BRANCH  22  24
HETATM   24  O   UNK N   1      24.717  23.246  -8.547  0.00  0.00    -0.772 OA
HETATM   25  H   UNK N   1      24.097  22.879  -9.147  0.00  0.00     0.167 HD
ENDBRANCH  22  24
ENDBRANCH   6  22
BRANCH   1  26
HETATM   26  O   UNK N   1      26.629  24.144  -2.922  0.00  0.00    -0.354 OA
HETATM   27  C   UNK N   1      27.747  23.557  -2.305  0.00  0.00     0.205 C 
ENDBRANCH   1  26
BRANCH   1  28
HETATM   28  N   UNK N   1      27.659  26.059  -3.867  0.00  0.00    -0.317 N 
HETATM   29  C   UNK N   1      27.130  27.195  -3.342  0.00  0.00     0.229 C 
HETATM   30  O   UNK N   1      25.985  27.237  -2.930  0.00  0.00    -0.273 OA
HETATM   31  H   UNK N   1      28.609  26.126  -4.118  0.00  0.00     0.166 HD
BRANCH  29  32
HETATM   32  C   UNK N   1      27.964  28.438  -3.313  0.00  0.00     0.182 C 
BRANCH  32  33
HETATM   33  S   UNK N   1      27.189  29.729  -4.341  0.00  0.00    -0.091 SA
BRANCH  33  34
HETATM   34  C   UNK N   1      27.385  28.745  -5.857  0.00  0.00     0.416 C 
HETATM   35  F   UNK N   1      27.826  29.547  -6.891  0.00  0.00    -0.203 F 
HETATM   36  F   UNK N   1      26.189  28.139  -6.193  0.00  0.00    -0.203 F 
ENDBRANCH  33  34
ENDBRANCH  32  33
ENDBRANCH  29  32
ENDBRANCH   1  28
TORSDOF 13
ENDMDL
MODEL 7
REMARK VINA RESULT:      -6.9      4.272      8.267
REMARK  13 active torsions:
REMARK  status: ('A' for Active; 'I' for Inactive)
REMARK    1  A    between atoms: C_3  and  O_2 
REMARK    2  A    between atoms: C_3  and  N_26 
REMARK    3  A    between atoms: C_8  and  C_23 
REMARK    4  A    between atoms: C_9  and  C_12 
REMARK    5  A    between atoms: C_12  and  S_13 
REMARK    6  A    between atoms: S_13  and  C_14 
REMARK    7  A    between atoms: N_19  and  C_20 
REMARK    8  A    between atoms: C_20  and  C_21 
REMARK    9  A    between atoms: C_21  and  O_22 
REMARK   10  A    between atoms: C_23  and  O_25 
REMARK       I    between atoms: N_26  and  C_27 
REMARK   11  A    between atoms: C_27  and  C_29 
REMARK   12  A    between atoms: C_29  and  S_30 
REMARK   13  A    between atoms: S_30  and  C_31 
ROOT
HETATM    1  C   UNK N   1      25.976  18.459   4.380  0.00  0.00     0.265 A 
HETATM    2  C   UNK N   1      24.337  18.403   4.297  0.00  0.00     0.297 A 
HETATM    3  N   UNK N   1      24.507  17.062   3.860  0.00  0.00    -0.274 N 
HETATM    4  C   UNK N   1      25.800  17.030   3.962  0.00  0.00     0.287 A 
HETATM    5  O   UNK N   1      26.553  16.088   3.762  0.00  0.00    -0.267 OA
HETATM    6  C   UNK N   1      23.445  16.167   3.640  0.00  0.00     0.119 C 
HETATM    7  C   UNK N   1      22.309  16.487   4.305  0.00  0.00    -0.013 C 
HETATM    8  C   UNK N   1      22.305  17.749   5.190  0.00  0.00     0.208 C 
HETATM    9  O   UNK N   1      23.596  18.298   5.493  0.00  0.00    -0.356 OA
ENDROOT
BRANCH   7  10
HETATM   10  C   UNK N   1      21.069  15.655   4.241  0.00  0.00     0.121 C 
BRANCH  10  11
HETATM   11  S   UNK N   1      19.643  16.749   3.950  0.00  0.00    -0.087 SA
BRANCH  11  12
HETATM   12  C   UNK N   1      20.006  16.893   2.206  0.00  0.00     0.172 A 
HETATM   13  N   UNK N   1      20.089  15.852   1.361  0.00  0.00    -0.265 N 
HETATM   14  N   UNK N   1      20.365  16.378   0.173  0.00  0.00    -0.007 NA
ATOM     15  HN  UNK N   1      19.966  14.865   1.584  1.00  0.00     0.186 HD
HETATM   16  N   UNK N   1      20.448  17.698   0.281  0.00  0.00    -0.004 NA
HETATM   17  N   UNK N   1      20.228  18.034   1.540  0.00  0.00    -0.254 N 
BRANCH  17  18
HETATM   18  C   UNK N   1      20.221  19.394   2.057  0.00  0.00     0.174 C 
BRANCH  18  19
HETATM   19  C   UNK N   1      21.139  20.271   1.228  0.00  0.00     0.185 C 
BRANCH  19  20
HETATM   20  O   UNK N   1      20.531  20.557   0.006  0.00  0.00    -0.399 OA
HETATM   21  H   UNK N   1      21.042  20.860  -0.760  0.00  0.00     0.209 HD
ENDBRANCH  19  20
ENDBRANCH  18  19
ENDBRANCH  17  18
ENDBRANCH  11  12
ENDBRANCH  10  11
ENDBRANCH   7  10
BRANCH   6  22
HETATM   22  C   UNK N   1      23.596  14.996   2.719  0.00  0.00     0.194 C 
HETATM   23  O   UNK N   1      23.091  15.001   1.608  0.00  0.00    -0.645 OA
BRANCH  22  24
HETATM   24  O   UNK N   1      24.386  13.965   3.070  0.00  0.00    -0.772 OA
HETATM   25  H   UNK N   1      25.261  14.096   3.377  0.00  0.00     0.167 HD
ENDBRANCH  22  24
ENDBRANCH   6  22
BRANCH   1  26
HETATM   26  O   UNK N   1      26.517  19.221   3.324  0.00  0.00    -0.354 OA
HETATM   27  C   UNK N   1      25.703  20.351   3.129  0.00  0.00     0.205 C 
ENDBRANCH   1  26
BRANCH   1  28
HETATM   28  N   UNK N   1      26.561  18.852   5.667  0.00  0.00    -0.317 N 
HETATM   29  C   UNK N   1      27.840  18.772   6.119  0.00  0.00     0.229 C 
HETATM   30  O   UNK N   1      28.746  18.376   5.408  0.00  0.00    -0.273 OA
HETATM   31  H   UNK N   1      25.921  19.237   6.308  0.00  0.00     0.166 HD
BRANCH  29  32
HETATM   32  C   UNK N   1      28.131  19.138   7.541  0.00  0.00     0.182 C 
BRANCH  32  33
HETATM   33  S   UNK N   1      28.076  17.648   8.588  0.00  0.00    -0.091 SA
BRANCH  33  34
HETATM   34  C   UNK N   1      29.875  17.670   8.847  0.00  0.00     0.416 C 
HETATM   35  F   UNK N   1      30.531  17.450   7.651  0.00  0.00    -0.203 F 
HETATM   36  F   UNK N   1      30.239  16.716   9.778  0.00  0.00    -0.203 F 
ENDBRANCH  33  34
ENDBRANCH  32  33
ENDBRANCH  29  32
ENDBRANCH   1  28
TORSDOF 13
ENDMDL
MODEL 8
REMARK VINA RESULT:      -6.8     10.644     15.135
REMARK  13 active torsions:
REMARK  status: ('A' for Active; 'I' for Inactive)
REMARK    1  A    between atoms: C_3  and  O_2 
REMARK    2  A    between atoms: C_3  and  N_26 
REMARK    3  A    between atoms: C_8  and  C_23 
REMARK    4  A    between atoms: C_9  and  C_12 
REMARK    5  A    between atoms: C_12  and  S_13 
REMARK    6  A    between atoms: S_13  and  C_14 
REMARK    7  A    between atoms: N_19  and  C_20 
REMARK    8  A    between atoms: C_20  and  C_21 
REMARK    9  A    between atoms: C_21  and  O_22 
REMARK   10  A    between atoms: C_23  and  O_25 
REMARK       I    between atoms: N_26  and  C_27 
REMARK   11  A    between atoms: C_27  and  C_29 
REMARK   12  A    between atoms: C_29  and  S_30 
REMARK   13  A    between atoms: S_30  and  C_31 
ROOT
HETATM    1  C   UNK N   1      35.372  12.763  14.078  0.00  0.00     0.265 A 
HETATM    2  C   UNK N   1      34.807  12.635  12.540  0.00  0.00     0.297 A 
HETATM    3  N   UNK N   1      35.408  13.904  12.323  0.00  0.00    -0.274 N 
HETATM    4  C   UNK N   1      35.926  14.033  13.506  0.00  0.00     0.287 A 
HETATM    5  O   UNK N   1      36.631  14.937  13.930  0.00  0.00    -0.267 OA
HETATM    6  C   UNK N   1      35.470  14.540  11.071  0.00  0.00     0.119 C 
HETATM    7  C   UNK N   1      35.358  13.694  10.019  0.00  0.00    -0.013 C 
HETATM    8  C   UNK N   1      35.176  12.189  10.301  0.00  0.00     0.208 C 
HETATM    9  O   UNK N   1      35.466  11.770  11.642  0.00  0.00    -0.356 OA
ENDROOT
BRANCH   7  10
HETATM   10  C   UNK N   1      35.431  14.152   8.598  0.00  0.00     0.121 C 
BRANCH  10  11
HETATM   11  S   UNK N   1      33.739  14.296   7.940  0.00  0.00    -0.087 SA
BRANCH  11  12
HETATM   12  C   UNK N   1      34.036  15.944   7.315  0.00  0.00     0.172 A 
HETATM   13  N   UNK N   1      34.363  16.998   8.081  0.00  0.00    -0.265 N 
HETATM   14  N   UNK N   1      34.502  18.018   7.243  0.00  0.00    -0.007 NA
ATOM     15  HN  UNK N   1      34.480  17.011   9.094  1.00  0.00     0.186 HD
HETATM   16  N   UNK N   1      34.271  17.609   6.003  0.00  0.00    -0.004 NA
HETATM   17  N   UNK N   1      33.979  16.320   6.030  0.00  0.00    -0.254 N 
BRANCH  17  18
HETATM   18  C   UNK N   1      33.675  15.503   4.866  0.00  0.00     0.174 C 
BRANCH  18  19
HETATM   19  C   UNK N   1      32.440  16.033   4.165  0.00  0.00     0.185 C 
BRANCH  19  20
HETATM   20  O   UNK N   1      31.703  16.819   5.051  0.00  0.00    -0.399 OA
HETATM   21  H   UNK N   1      31.879  17.766   5.162  0.00  0.00     0.209 HD
ENDBRANCH  19  20
ENDBRANCH  18  19
ENDBRANCH  17  18
ENDBRANCH  11  12
ENDBRANCH  10  11
ENDBRANCH   7  10
BRANCH   6  22
HETATM   22  C   UNK N   1      35.618  16.025  10.962  0.00  0.00     0.194 C 
HETATM   23  O   UNK N   1      36.716  16.540  10.822  0.00  0.00    -0.645 OA
BRANCH  22  24
HETATM   24  O   UNK N   1      34.522  16.806  10.909  0.00  0.00    -0.772 OA
HETATM   25  H   UNK N   1      34.479  17.626  11.360  0.00  0.00     0.167 HD
ENDBRANCH  22  24
ENDBRANCH   6  22
BRANCH   1  26
HETATM   26  O   UNK N   1      34.328  13.042  14.984  0.00  0.00    -0.354 OA
HETATM   27  C   UNK N   1      34.889  13.267  16.254  0.00  0.00     0.205 C 
ENDBRANCH   1  26
BRANCH   1  28
HETATM   28  N   UNK N   1      36.215  11.667  14.567  0.00  0.00    -0.317 N 
HETATM   29  C   UNK N   1      35.919  10.363  14.808  0.00  0.00     0.229 C 
HETATM   30  O   UNK N   1      34.819   9.900  14.563  0.00  0.00    -0.273 OA
HETATM   31  H   UNK N   1      37.149  11.918  14.753  0.00  0.00     0.166 HD
BRANCH  29  32
HETATM   32  C   UNK N   1      36.959   9.486  15.433  0.00  0.00     0.182 C 
BRANCH  32  33
HETATM   33  S   UNK N   1      36.269   8.655  16.901  0.00  0.00    -0.091 SA
BRANCH  33  34
HETATM   34  C   UNK N   1      36.225  10.204  17.851  0.00  0.00     0.416 C 
HETATM   35  F   UNK N   1      36.980  10.079  19.001  0.00  0.00    -0.203 F 
HETATM   36  F   UNK N   1      34.921  10.539  18.164  0.00  0.00    -0.203 F 
ENDBRANCH  33  34
ENDBRANCH  32  33
ENDBRANCH  29  32
ENDBRANCH   1  28
TORSDOF 13
ENDMDL
MODEL 9
REMARK VINA RESULT:      -6.7      7.555     11.767
REMARK  13 active torsions:
REMARK  status: ('A' for Active; 'I' for Inactive)
REMARK    1  A    between atoms: C_3  and  O_2 
REMARK    2  A    between atoms: C_3  and  N_26 
REMARK    3  A    between atoms: C_8  and  C_23 
REMARK    4  A    between atoms: C_9  and  C_12 
REMARK    5  A    between atoms: C_12  and  S_13 
REMARK    6  A    between atoms: S_13  and  C_14 
REMARK    7  A    between atoms: N_19  and  C_20 
REMARK    8  A    between atoms: C_20  and  C_21 
REMARK    9  A    between atoms: C_21  and  O_22 
REMARK   10  A    between atoms: C_23  and  O_25 
REMARK       I    between atoms: N_26  and  C_27 
REMARK   11  A    between atoms: C_27  and  C_29 
REMARK   12  A    between atoms: C_29  and  S_30 
REMARK   13  A    between atoms: S_30  and  C_31 
ROOT
HETATM    1  C   UNK N   1      33.174  16.995   6.767  0.00  0.00     0.265 A 
HETATM    2  C   UNK N   1      33.528  15.482   7.301  0.00  0.00     0.297 A 
HETATM    3  N   UNK N   1      34.092  16.126   8.436  0.00  0.00    -0.274 N 
HETATM    4  C   UNK N   1      33.786  17.339   8.091  0.00  0.00     0.287 A 
HETATM    5  O   UNK N   1      33.975  18.374   8.714  0.00  0.00    -0.267 OA
HETATM    6  C   UNK N   1      34.589  15.444   9.560  0.00  0.00     0.119 C 
HETATM    7  C   UNK N   1      34.082  14.197   9.714  0.00  0.00    -0.013 C 
HETATM    8  C   UNK N   1      33.063  13.683   8.679  0.00  0.00     0.208 C 
HETATM    9  O   UNK N   1      32.490  14.684   7.824  0.00  0.00    -0.356 OA
ENDROOT
BRANCH   7  10
HETATM   10  C   UNK N   1      34.447  13.309  10.860  0.00  0.00     0.121 C 
BRANCH  10  11
HETATM   11  S   UNK N   1      35.138  11.757  10.202  0.00  0.00    -0.087 SA
BRANCH  11  12
HETATM   12  C   UNK N   1      36.794  12.425  10.141  0.00  0.00     0.172 A 
HETATM   13  N   UNK N   1      37.313  13.071   9.083  0.00  0.00    -0.265 N 
HETATM   14  N   UNK N   1      38.546  13.408   9.440  0.00  0.00    -0.007 NA
ATOM     15  HN  UNK N   1      36.855  13.261   8.191  1.00  0.00     0.186 HD
HETATM   16  N   UNK N   1      38.781  12.988  10.676  0.00  0.00    -0.004 NA
HETATM   17  N   UNK N   1      37.701  12.374  11.126  0.00  0.00    -0.254 N 
BRANCH  17  18
HETATM   18  C   UNK N   1      37.560  11.784  12.448  0.00  0.00     0.174 C 
BRANCH  18  19
HETATM   19  C   UNK N   1      36.849  12.750  13.377  0.00  0.00     0.185 C 
BRANCH  19  20
HETATM   20  O   UNK N   1      37.057  14.056  12.937  0.00  0.00    -0.399 OA
HETATM   21  H   UNK N   1      36.354  14.724  12.966  0.00  0.00     0.209 HD
ENDBRANCH  19  20
ENDBRANCH  18  19
ENDBRANCH  17  18
ENDBRANCH  11  12
ENDBRANCH  10  11
ENDBRANCH   7  10
BRANCH   6  22
HETATM   22  C   UNK N   1      35.609  16.070  10.459  0.00  0.00     0.194 C 
HETATM   23  O   UNK N   1      35.284  16.895  11.299  0.00  0.00    -0.645 OA
BRANCH  22  24
HETATM   24  O   UNK N   1      36.886  15.647  10.422  0.00  0.00    -0.772 OA
HETATM   25  H   UNK N   1      37.598  16.240  10.280  0.00  0.00     0.167 HD
ENDBRANCH  22  24
ENDBRANCH   6  22
BRANCH   1  26
HETATM   26  O   UNK N   1      34.028  17.378   5.712  0.00  0.00    -0.354 OA
HETATM   27  C   UNK N   1      33.808  16.514   4.625  0.00  0.00     0.205 C 
ENDBRANCH   1  26
BRANCH   1  28
HETATM   28  N   UNK N   1      31.772  17.268   6.435  0.00  0.00    -0.317 N 
HETATM   29  C   UNK N   1      30.694  17.462   7.240  0.00  0.00     0.229 C 
HETATM   30  O   UNK N   1      30.797  17.490   8.453  0.00  0.00    -0.273 OA
HETATM   31  H   UNK N   1      31.579  17.319   5.471  0.00  0.00     0.166 HD
BRANCH  29  32
HETATM   32  C   UNK N   1      29.339  17.599   6.618  0.00  0.00     0.182 C 
BRANCH  32  33
HETATM   33  S   UNK N   1      28.285  18.664   7.656  0.00  0.00    -0.091 SA
BRANCH  33  34
HETATM   34  C   UNK N   1      27.688  19.603   6.219  0.00  0.00     0.416 C 
HETATM   35  F   UNK N   1      28.467  19.327   5.112  0.00  0.00    -0.203 F 
HETATM   36  F   UNK N   1      27.701  20.958   6.491  0.00  0.00    -0.203 F 
ENDBRANCH  33  34
ENDBRANCH  32  33
ENDBRANCH  29  32
ENDBRANCH   1  28
TORSDOF 13
ENDMDL
