MODEL 1
REMARK VINA RESULT:     -10.3      0.000      0.000
REMARK  5 active torsions:
REMARK  status: ('A' for Active; 'I' for Inactive)
REMARK    1  A    between atoms: N_2  and  C_4 
REMARK       I    between atoms: N_7  and  C_10 
REMARK    2  A    between atoms: C_10  and  C_12 
REMARK    3  A    between atoms: C_15  and  N_18 
REMARK       I    between atoms: N_18  and  C_19 
REMARK       I    between atoms: C_19  and  N_21 
REMARK    4  A    between atoms: N_21  and  C_22 
REMARK    5  A    between atoms: C_25  and  C_28 
REMARK       I    between atoms: C_31  and  N_43 
ROOT
HETATM    1  C   UNK N   1      31.539  16.866   7.667  0.00  0.00     0.132 C 
HETATM    2  C   UNK N   1      30.581  17.593   8.363  0.00  0.00     0.003 C 
HETATM    3  C   UNK N   1      29.350  17.683   7.841  0.00  0.00     0.009 C 
HETATM    4  C   UNK N   1      29.026  17.006   6.676  0.00  0.00    -0.016 C 
HETATM    5  C   UNK N   1      29.910  16.029   6.183  0.00  0.00     0.009 C 
HETATM    6  C   UNK N   1      31.158  15.930   6.718  0.00  0.00     0.003 C 
ENDROOT
BRANCH   1   7
HETATM    7  N   UNK N   1      32.546  17.706   7.183  0.00  0.00    -0.332 N 
HETATM    8  C   UNK N   1      33.678  17.929   7.940  0.00  0.00     0.321 C 
HETATM    9  N   UNK N   1      33.743  17.555   9.263  0.00  0.00    -0.309 N 
HETATM   10  O   UNK N   1      34.679  18.313   7.377  0.00  0.00    -0.247 OA
HETATM   11  H   UNK N   1      33.195  18.050   9.915  0.00  0.00     0.170 HD
HETATM   12  H   UNK N   1      32.447  18.136   6.303  0.00  0.00     0.165 HD
BRANCH   9  13
HETATM   13  C   UNK N   1      34.563  16.485   9.740  0.00  0.00     0.035 C 
HETATM   14  C   UNK N   1      34.537  15.239   9.073  0.00  0.00     0.026 C 
HETATM   15  C   UNK N   1      35.416  14.225   9.449  0.00  0.00    -0.007 C 
HETATM   16  C   UNK N   1      36.067  14.377  10.657  0.00  0.00     0.123 C 
HETATM   17  C   UNK N   1      36.481  15.688  10.977  0.00  0.00    -0.007 C 
HETATM   18  C   UNK N   1      35.682  16.756  10.547  0.00  0.00     0.026 C 
BRANCH  16  19
HETATM   19  C   UNK N   1      35.202  13.671  11.679  0.00  0.00     0.231 C 
HETATM   20  N   UNK N   1      35.589  12.517  12.319  0.00  0.00    -0.351 N 
HETATM   21  C   UNK N   1      34.706  11.860  13.273  0.00  0.00     0.128 C 
HETATM   22  C   UNK N   1      36.938  12.022  12.185  0.00  0.00     0.128 C 
HETATM   23  C   UNK N   1      35.100  10.372  13.483  0.00  0.00     0.055 C 
HETATM   24  C   UNK N   1      36.610  10.108  13.215  0.00  0.00     0.225 C 
HETATM   25  C   UNK N   1      37.404  11.351  13.405  0.00  0.00     0.055 C 
HETATM   26  O   UNK N   1      34.188  14.241  12.063  0.00  0.00    -0.272 OA
BRANCH  24  27
HETATM   27  N   UNK N   1      37.238   9.005  13.915  0.00  0.00     0.084 N 
HETATM   28  C   UNK N   1      36.149   8.259  14.543  0.00  0.00     0.309 C 
HETATM   29  C   UNK N   1      38.029   9.540  15.004  0.00  0.00     0.309 C 
ENDBRANCH  24  27
ENDBRANCH  16  19
ENDBRANCH   9  13
ENDBRANCH   1   7
BRANCH   4  30
HETATM   30  C   UNK N   1      27.676  16.733   6.597  0.00  0.00     0.232 C 
HETATM   31  N   UNK N   1      27.375  15.525   6.062  0.00  0.00    -0.360 N 
HETATM   32  C   UNK N   1      26.347  15.484   5.241  0.00  0.00     0.300 C 
ATOM     33  HN  UNK N   1      27.917  14.690   6.284  1.00  0.00     0.159 HD
HETATM   34  N   UNK N   1      26.211  16.530   4.393  0.00  0.00    -0.188 N 
HETATM   35  N   UNK N   1      25.179  15.217   5.930  0.00  0.00    -0.372 N 
HETATM   36  C   UNK N   1      26.505  17.719   4.940  0.00  0.00     0.676 C 
ATOM     37  HN  UNK N   1      25.911  16.424   3.424  1.00  0.00     0.181 HD
HETATM   38  N   UNK N   1      27.017  17.810   6.155  0.00  0.00    -0.201 N 
HETATM   39  N   UNK N   1      26.074  18.861   4.349  0.00  0.00    -0.214 N 
ATOM     40  HN  UNK N   1      26.916  18.652   6.722  1.00  0.00     0.180 HD
HETATM   41  C   UNK N   1      24.716  19.195   4.614  0.00  0.00     0.167 C 
HETATM   42  C   UNK N   1      27.005  19.923   4.095  0.00  0.00     0.167 C 
HETATM   43  C   UNK N   1      24.220  19.944   3.398  0.00  0.00     0.188 C 
HETATM   44  O   UNK N   1      25.261  20.145   2.453  0.00  0.00    -0.388 OA
HETATM   45  C   UNK N   1      26.314  20.845   3.098  0.00  0.00     0.188 C 
HETATM   46  C   UNK N   1      25.264  14.577   7.214  0.00  0.00     0.147 C 
HETATM   47  C   UNK N   1      23.919  15.760   5.526  0.00  0.00     0.147 C 
HETATM   48  C   UNK N   1      24.313  13.442   7.091  0.00  0.00     0.187 C 
HETATM   49  O   UNK N   1      23.033  13.998   6.880  0.00  0.00    -0.388 OA
HETATM   50  C   UNK N   1      22.973  14.591   5.592  0.00  0.00     0.187 C 
ENDBRANCH   4  30
TORSDOF 5
ENDMDL
MODEL 2
REMARK VINA RESULT:     -10.3      3.631      6.457
REMARK  5 active torsions:
REMARK  status: ('A' for Active; 'I' for Inactive)
REMARK    1  A    between atoms: N_2  and  C_4 
REMARK       I    between atoms: N_7  and  C_10 
REMARK    2  A    between atoms: C_10  and  C_12 
REMARK    3  A    between atoms: C_15  and  N_18 
REMARK       I    between atoms: N_18  and  C_19 
REMARK       I    between atoms: C_19  and  N_21 
REMARK    4  A    between atoms: N_21  and  C_22 
REMARK    5  A    between atoms: C_25  and  C_28 
REMARK       I    between atoms: C_31  and  N_43 
ROOT
HETATM    1  C   UNK N   1      35.175  15.204  11.036  0.00  0.00     0.132 C 
HETATM    2  C   UNK N   1      35.387  16.449  10.456  0.00  0.00     0.003 C 
HETATM    3  C   UNK N   1      34.599  16.817   9.437  0.00  0.00     0.009 C 
HETATM    4  C   UNK N   1      33.555  16.005   9.023  0.00  0.00    -0.016 C 
HETATM    5  C   UNK N   1      33.167  14.921   9.833  0.00  0.00     0.009 C 
HETATM    6  C   UNK N   1      33.963  14.552  10.875  0.00  0.00     0.003 C 
ENDROOT
BRANCH   1   7
HETATM    7  N   UNK N   1      36.253  14.351  10.789  0.00  0.00    -0.332 N 
HETATM    8  C   UNK N   1      36.959  13.811  11.845  0.00  0.00     0.321 C 
HETATM    9  N   UNK N   1      36.799  14.278  13.129  0.00  0.00    -0.309 N 
HETATM   10  O   UNK N   1      37.603  12.804  11.650  0.00  0.00    -0.247 OA
HETATM   11  H   UNK N   1      37.142  15.176  13.345  0.00  0.00     0.170 HD
HETATM   12  H   UNK N   1      36.507  14.134   9.863  0.00  0.00     0.165 HD
BRANCH   9  13
HETATM   13  C   UNK N   1      36.162  13.529  14.168  0.00  0.00     0.035 C 
HETATM   14  C   UNK N   1      36.369  13.897  15.516  0.00  0.00     0.026 C 
HETATM   15  C   UNK N   1      35.664  13.257  16.534  0.00  0.00    -0.007 C 
HETATM   16  C   UNK N   1      35.016  12.083  16.203  0.00  0.00     0.123 C 
HETATM   17  C   UNK N   1      34.410  12.047  14.929  0.00  0.00    -0.007 C 
HETATM   18  C   UNK N   1      35.028  12.749  13.884  0.00  0.00     0.026 C 
BRANCH  16  19
HETATM   19  C   UNK N   1      35.997  10.973  16.518  0.00  0.00     0.231 C 
HETATM   20  N   UNK N   1      35.992  10.285  17.708  0.00  0.00    -0.351 N 
HETATM   21  C   UNK N   1      36.977   9.245  17.973  0.00  0.00     0.128 C 
HETATM   22  C   UNK N   1      34.914  10.462  18.653  0.00  0.00     0.128 C 
HETATM   23  C   UNK N   1      37.113   8.965  19.496  0.00  0.00     0.055 C 
HETATM   24  C   UNK N   1      35.815   9.299  20.286  0.00  0.00     0.225 C 
HETATM   25  C   UNK N   1      34.625   9.230  19.397  0.00  0.00     0.055 C 
HETATM   26  O   UNK N   1      36.717  10.571  15.612  0.00  0.00    -0.272 OA
BRANCH  24  27
HETATM   27  N   UNK N   1      35.563   8.567  21.512  0.00  0.00     0.084 N 
HETATM   28  C   UNK N   1      34.984   7.290  21.103  0.00  0.00     0.309 C 
HETATM   29  C   UNK N   1      34.525   9.252  22.253  0.00  0.00     0.309 C 
ENDBRANCH  24  27
ENDBRANCH  16  19
ENDBRANCH   9  13
ENDBRANCH   1   7
BRANCH   4  30
HETATM   30  C   UNK N   1      32.549  16.728   8.415  0.00  0.00     0.232 C 
HETATM   31  N   UNK N   1      31.295  16.312   8.712  0.00  0.00    -0.360 N 
HETATM   32  C   UNK N   1      30.428  16.297   7.722  0.00  0.00     0.300 C 
ATOM     33  HN  UNK N   1      31.035  16.025   9.656  1.00  0.00     0.159 HD
HETATM   34  N   UNK N   1      30.894  15.884   6.520  0.00  0.00    -0.188 N 
HETATM   35  N   UNK N   1      29.763  17.506   7.634  0.00  0.00    -0.372 N 
HETATM   36  C   UNK N   1      32.133  16.310   6.237  0.00  0.00     0.676 C 
ATOM     37  HN  UNK N   1      30.349  15.299   5.886  1.00  0.00     0.181 HD
HETATM   38  N   UNK N   1      32.861  16.953   7.134  0.00  0.00    -0.201 N 
HETATM   39  N   UNK N   1      32.580  16.291   4.957  0.00  0.00    -0.214 N 
ATOM     40  HN  UNK N   1      33.616  17.585   6.864  1.00  0.00     0.180 HD
HETATM   41  C   UNK N   1      32.138  17.379   4.153  0.00  0.00     0.167 C 
HETATM   42  C   UNK N   1      33.847  15.687   4.657  0.00  0.00     0.167 C 
HETATM   43  C   UNK N   1      32.059  16.854   2.738  0.00  0.00     0.188 C 
HETATM   44  O   UNK N   1      32.525  15.515   2.655  0.00  0.00    -0.388 OA
HETATM   45  C   UNK N   1      33.855  15.478   3.147  0.00  0.00     0.188 C 
HETATM   46  C   UNK N   1      29.709  18.352   8.795  0.00  0.00     0.147 C 
HETATM   47  C   UNK N   1      29.335  18.046   6.382  0.00  0.00     0.147 C 
HETATM   48  C   UNK N   1      28.262  18.664   8.920  0.00  0.00     0.187 C 
HETATM   49  O   UNK N   1      27.890  19.369   7.756  0.00  0.00    -0.388 OA
HETATM   50  C   UNK N   1      27.921  18.497   6.637  0.00  0.00     0.187 C 
ENDBRANCH   4  30
TORSDOF 5
ENDMDL
MODEL 3
REMARK VINA RESULT:     -10.2      3.090     13.107
REMARK  5 active torsions:
REMARK  status: ('A' for Active; 'I' for Inactive)
REMARK    1  A    between atoms: N_2  and  C_4 
REMARK       I    between atoms: N_7  and  C_10 
REMARK    2  A    between atoms: C_10  and  C_12 
REMARK    3  A    between atoms: C_15  and  N_18 
REMARK       I    between atoms: N_18  and  C_19 
REMARK       I    between atoms: C_19  and  N_21 
REMARK    4  A    between atoms: N_21  and  C_22 
REMARK    5  A    between atoms: C_25  and  C_28 
REMARK       I    between atoms: C_31  and  N_43 
ROOT
HETATM    1  C   UNK N   1      30.861  17.298   7.961  0.00  0.00     0.132 C 
HETATM    2  C   UNK N   1      32.011  17.806   8.552  0.00  0.00     0.003 C 
HETATM    3  C   UNK N   1      33.063  16.989   8.702  0.00  0.00     0.009 C 
HETATM    4  C   UNK N   1      33.025  15.693   8.212  0.00  0.00    -0.016 C 
HETATM    5  C   UNK N   1      31.985  15.320   7.340  0.00  0.00     0.009 C 
HETATM    6  C   UNK N   1      30.921  16.154   7.180  0.00  0.00     0.003 C 
ENDROOT
BRANCH   1   7
HETATM    7  N   UNK N   1      29.814  17.235   8.883  0.00  0.00    -0.332 N 
HETATM    8  C   UNK N   1      28.739  18.092   8.764  0.00  0.00     0.321 C 
HETATM    9  N   UNK N   1      28.777  19.176   7.916  0.00  0.00    -0.309 N 
HETATM   10  O   UNK N   1      27.696  17.783   9.294  0.00  0.00    -0.247 OA
HETATM   11  H   UNK N   1      29.367  19.930   8.149  0.00  0.00     0.170 HD
HETATM   12  H   UNK N   1      29.843  16.579   9.617  0.00  0.00     0.165 HD
BRANCH   9  13
HETATM   13  C   UNK N   1      28.005  19.266   6.716  0.00  0.00     0.035 C 
HETATM   14  C   UNK N   1      27.023  20.275   6.596  0.00  0.00     0.026 C 
HETATM   15  C   UNK N   1      26.345  20.455   5.391  0.00  0.00    -0.007 C 
HETATM   16  C   UNK N   1      26.448  19.441   4.459  0.00  0.00     0.123 C 
HETATM   17  C   UNK N   1      27.709  18.817   4.359  0.00  0.00    -0.007 C 
HETATM   18  C   UNK N   1      28.477  18.688   5.525  0.00  0.00     0.026 C 
BRANCH  16  19
HETATM   19  C   UNK N   1      25.261  18.534   4.710  0.00  0.00     0.231 C 
HETATM   20  N   UNK N   1      23.984  18.843   4.304  0.00  0.00    -0.351 N 
HETATM   21  C   UNK N   1      22.872  17.949   4.597  0.00  0.00     0.128 C 
HETATM   22  C   UNK N   1      23.743  19.973   3.439  0.00  0.00     0.128 C 
HETATM   23  C   UNK N   1      21.508  18.690   4.510  0.00  0.00     0.055 C 
HETATM   24  C   UNK N   1      21.548  19.908   3.543  0.00  0.00     0.225 C 
HETATM   25  C   UNK N   1      22.619  19.738   2.525  0.00  0.00     0.055 C 
HETATM   26  O   UNK N   1      25.481  17.413   5.152  0.00  0.00    -0.272 OA
BRANCH  24  27
HETATM   27  N   UNK N   1      20.310  20.303   2.902  0.00  0.00     0.084 N 
HETATM   28  C   UNK N   1      19.547  19.071   2.715  0.00  0.00     0.309 C 
HETATM   29  C   UNK N   1      20.612  20.786   1.571  0.00  0.00     0.309 C 
ENDBRANCH  24  27
ENDBRANCH  16  19
ENDBRANCH   9  13
ENDBRANCH   1   7
BRANCH   4  30
HETATM   30  C   UNK N   1      34.287  15.211   7.932  0.00  0.00     0.232 C 
HETATM   31  N   UNK N   1      34.321  14.221   7.008  0.00  0.00    -0.360 N 
HETATM   32  C   UNK N   1      35.152  13.227   7.239  0.00  0.00     0.300 C 
ATOM     33  HN  UNK N   1      33.732  14.243   6.176  1.00  0.00     0.159 HD
HETATM   34  N   UNK N   1      35.250  12.810   8.524  0.00  0.00    -0.188 N 
HETATM   35  N   UNK N   1      36.390  13.482   6.680  0.00  0.00    -0.372 N 
HETATM   36  C   UNK N   1      35.223  13.803   9.425  0.00  0.00     0.676 C 
ATOM     37  HN  UNK N   1      35.337  11.827   8.783  1.00  0.00     0.181 HD
HETATM   38  N   UNK N   1      34.977  15.051   9.066  0.00  0.00    -0.201 N 
HETATM   39  N   UNK N   1      35.671  13.585  10.686  0.00  0.00    -0.214 N 
ATOM     40  HN  UNK N   1      35.294  15.845   9.623  1.00  0.00     0.180 HD
HETATM   41  C   UNK N   1      37.086  13.632  10.835  0.00  0.00     0.167 C 
HETATM   42  C   UNK N   1      34.851  13.955  11.804  0.00  0.00     0.167 C 
HETATM   43  C   UNK N   1      37.423  12.691  11.969  0.00  0.00     0.188 C 
HETATM   44  O   UNK N   1      36.251  12.152  12.561  0.00  0.00    -0.388 OA
HETATM   45  C   UNK N   1      35.443  13.230  13.006  0.00  0.00     0.188 C 
HETATM   46  C   UNK N   1      36.479  14.429   5.601  0.00  0.00     0.147 C 
HETATM   47  C   UNK N   1      37.603  13.024   7.281  0.00  0.00     0.147 C 
HETATM   48  C   UNK N   1      37.235  13.687   4.560  0.00  0.00     0.187 C 
HETATM   49  O   UNK N   1      38.508  13.403   5.098  0.00  0.00    -0.388 OA
HETATM   50  C   UNK N   1      38.387  12.442   6.135  0.00  0.00     0.187 C 
ENDBRANCH   4  30
TORSDOF 5
ENDMDL
MODEL 4
REMARK VINA RESULT:     -10.0      2.838     12.724
REMARK  5 active torsions:
REMARK  status: ('A' for Active; 'I' for Inactive)
REMARK    1  A    between atoms: N_2  and  C_4 
REMARK       I    between atoms: N_7  and  C_10 
REMARK    2  A    between atoms: C_10  and  C_12 
REMARK    3  A    between atoms: C_15  and  N_18 
REMARK       I    between atoms: N_18  and  C_19 
REMARK       I    between atoms: C_19  and  N_21 
REMARK    4  A    between atoms: N_21  and  C_22 
REMARK    5  A    between atoms: C_25  and  C_28 
REMARK       I    between atoms: C_31  and  N_43 
ROOT
HETATM    1  C   UNK N   1      34.933  15.560   9.312  0.00  0.00     0.132 C 
HETATM    2  C   UNK N   1      36.131  14.949   9.662  0.00  0.00     0.003 C 
HETATM    3  C   UNK N   1      36.257  14.464  10.904  0.00  0.00     0.009 C 
HETATM    4  C   UNK N   1      35.192  14.506  11.790  0.00  0.00    -0.016 C 
HETATM    5  C   UNK N   1      33.910  14.826  11.305  0.00  0.00     0.009 C 
HETATM    6  C   UNK N   1      33.779  15.311  10.039  0.00  0.00     0.003 C 
ENDROOT
BRANCH   1   7
HETATM    7  N   UNK N   1      35.116  16.928   9.094  0.00  0.00    -0.332 N 
HETATM    8  C   UNK N   1      34.654  17.508   7.931  0.00  0.00     0.321 C 
HETATM    9  N   UNK N   1      34.240  16.743   6.863  0.00  0.00    -0.309 N 
HETATM   10  O   UNK N   1      34.462  18.703   7.921  0.00  0.00    -0.247 OA
HETATM   11  H   UNK N   1      34.920  16.242   6.357  0.00  0.00     0.170 HD
HETATM   12  H   UNK N   1      35.574  17.477   9.772  0.00  0.00     0.165 HD
BRANCH   9  13
HETATM   13  C   UNK N   1      32.875  16.639   6.451  0.00  0.00     0.035 C 
HETATM   14  C   UNK N   1      32.418  17.412   5.359  0.00  0.00     0.026 C 
HETATM   15  C   UNK N   1      31.126  17.235   4.867  0.00  0.00    -0.007 C 
HETATM   16  C   UNK N   1      30.246  16.526   5.661  0.00  0.00     0.123 C 
HETATM   17  C   UNK N   1      30.787  15.423   6.354  0.00  0.00    -0.007 C 
HETATM   18  C   UNK N   1      32.115  15.507   6.796  0.00  0.00     0.026 C 
BRANCH  16  19
HETATM   19  C   UNK N   1      29.523  17.562   6.495  0.00  0.00     0.231 C 
HETATM   20  N   UNK N   1      28.455  18.289   6.026  0.00  0.00    -0.351 N 
HETATM   21  C   UNK N   1      27.812  19.296   6.861  0.00  0.00     0.128 C 
HETATM   22  C   UNK N   1      27.841  17.957   4.762  0.00  0.00     0.128 C 
HETATM   23  C   UNK N   1      27.001  20.309   6.006  0.00  0.00     0.055 C 
HETATM   24  C   UNK N   1      26.505  19.700   4.663  0.00  0.00     0.225 C 
HETATM   25  C   UNK N   1      26.397  18.221   4.764  0.00  0.00     0.055 C 
HETATM   26  O   UNK N   1      29.807  17.638   7.685  0.00  0.00    -0.272 OA
BRANCH  24  27
HETATM   27  N   UNK N   1      25.299  20.249   4.077  0.00  0.00     0.084 N 
HETATM   28  C   UNK N   1      24.329  19.156   4.062  0.00  0.00     0.309 C 
HETATM   29  C   UNK N   1      25.562  20.562   2.687  0.00  0.00     0.309 C 
ENDBRANCH  24  27
ENDBRANCH  16  19
ENDBRANCH   9  13
ENDBRANCH   1   7
BRANCH   4  30
HETATM   30  C   UNK N   1      35.276  13.513  12.744  0.00  0.00     0.232 C 
HETATM   31  N   UNK N   1      35.946  13.864  13.867  0.00  0.00    -0.360 N 
HETATM   32  C   UNK N   1      36.746  12.956  14.385  0.00  0.00     0.300 C 
ATOM     33  HN  UNK N   1      35.838  14.785  14.291  1.00  0.00     0.159 HD
HETATM   34  N   UNK N   1      37.458  12.210  13.508  0.00  0.00    -0.188 N 
HETATM   35  N   UNK N   1      36.071  12.174  15.304  0.00  0.00    -0.372 N 
HETATM   36  C   UNK N   1      36.778  11.864  12.405  0.00  0.00     0.676 C 
ATOM     37  HN  UNK N   1      38.427  11.935  13.672  1.00  0.00     0.181 HD
HETATM   38  N   UNK N   1      35.572  12.345  12.162  0.00  0.00    -0.201 N 
HETATM   39  N   UNK N   1      37.217  10.840  11.632  0.00  0.00    -0.214 N 
ATOM     40  HN  UNK N   1      34.905  11.855  11.565  1.00  0.00     0.180 HD
HETATM   41  C   UNK N   1      36.887   9.543  12.114  0.00  0.00     0.167 C 
HETATM   42  C   UNK N   1      37.360  11.032  10.217  0.00  0.00     0.167 C 
HETATM   43  C   UNK N   1      37.993   8.624  11.647  0.00  0.00     0.188 C 
HETATM   44  O   UNK N   1      38.928   9.312  10.829  0.00  0.00    -0.388 OA
HETATM   45  C   UNK N   1      38.225   9.874   9.731  0.00  0.00     0.188 C 
HETATM   46  C   UNK N   1      34.876  12.695  15.909  0.00  0.00     0.147 C 
HETATM   47  C   UNK N   1      36.381  10.792  15.497  0.00  0.00     0.147 C 
HETATM   48  C   UNK N   1      35.116  12.495  17.361  0.00  0.00     0.187 C 
HETATM   49  O   UNK N   1      35.233  11.106  17.573  0.00  0.00    -0.388 OA
HETATM   50  C   UNK N   1      36.438  10.631  16.993  0.00  0.00     0.187 C 
ENDBRANCH   4  30
TORSDOF 5
ENDMDL
MODEL 5
REMARK VINA RESULT:      -9.8      2.574      3.183
REMARK  5 active torsions:
REMARK  status: ('A' for Active; 'I' for Inactive)
REMARK    1  A    between atoms: N_2  and  C_4 
REMARK       I    between atoms: N_7  and  C_10 
REMARK    2  A    between atoms: C_10  and  C_12 
REMARK    3  A    between atoms: C_15  and  N_18 
REMARK       I    between atoms: N_18  and  C_19 
REMARK       I    between atoms: C_19  and  N_21 
REMARK    4  A    between atoms: N_21  and  C_22 
REMARK    5  A    between atoms: C_25  and  C_28 
REMARK       I    between atoms: C_31  and  N_43 
ROOT
HETATM    1  C   UNK N   1      32.593  16.162   8.494  0.00  0.00     0.132 C 
HETATM    2  C   UNK N   1      31.365  16.772   8.717  0.00  0.00     0.003 C 
HETATM    3  C   UNK N   1      30.542  16.945   7.674  0.00  0.00     0.009 C 
HETATM    4  C   UNK N   1      30.879  16.457   6.421  0.00  0.00    -0.016 C 
HETATM    5  C   UNK N   1      31.963  15.567   6.301  0.00  0.00     0.009 C 
HETATM    6  C   UNK N   1      32.795  15.385   7.363  0.00  0.00     0.003 C 
ENDROOT
BRANCH   1   7
HETATM    7  N   UNK N   1      33.640  17.065   8.689  0.00  0.00    -0.332 N 
HETATM    8  C   UNK N   1      34.476  16.925   9.778  0.00  0.00     0.321 C 
HETATM    9  N   UNK N   1      34.164  16.077  10.817  0.00  0.00    -0.309 N 
HETATM   10  O   UNK N   1      35.572  17.436   9.732  0.00  0.00    -0.247 OA
HETATM   11  H   UNK N   1      33.415  16.320  11.408  0.00  0.00     0.170 HD
HETATM   12  H   UNK N   1      33.783  17.800   8.049  0.00  0.00     0.165 HD
BRANCH   9  13
HETATM   13  C   UNK N   1      34.871  14.863  11.083  0.00  0.00     0.035 C 
HETATM   14  C   UNK N   1      34.888  13.841  10.108  0.00  0.00     0.026 C 
HETATM   15  C   UNK N   1      35.669  12.702  10.298  0.00  0.00    -0.007 C 
HETATM   16  C   UNK N   1      36.158  12.485  11.571  0.00  0.00     0.123 C 
HETATM   17  C   UNK N   1      36.575  13.632  12.279  0.00  0.00    -0.007 C 
HETATM   18  C   UNK N   1      35.882  14.831  12.061  0.00  0.00     0.026 C 
BRANCH  16  19
HETATM   19  C   UNK N   1      35.137  11.601  12.255  0.00  0.00     0.231 C 
HETATM   20  N   UNK N   1      34.970  11.568  13.619  0.00  0.00    -0.351 N 
HETATM   21  C   UNK N   1      33.993  10.676  14.230  0.00  0.00     0.128 C 
HETATM   22  C   UNK N   1      35.638  12.530  14.464  0.00  0.00     0.128 C 
HETATM   23  C   UNK N   1      34.307  10.430  15.732  0.00  0.00     0.055 C 
HETATM   24  C   UNK N   1      35.087  11.608  16.382  0.00  0.00     0.225 C 
HETATM   25  C   UNK N   1      34.838  12.876  15.645  0.00  0.00     0.055 C 
HETATM   26  O   UNK N   1      34.326  11.013  11.551  0.00  0.00    -0.272 OA
BRANCH  24  27
HETATM   27  N   UNK N   1      34.926  11.821  17.807  0.00  0.00     0.084 N 
HETATM   28  C   UNK N   1      35.322  13.206  18.051  0.00  0.00     0.309 C 
HETATM   29  C   UNK N   1      35.894  11.004  18.508  0.00  0.00     0.309 C 
ENDBRANCH  24  27
ENDBRANCH  16  19
ENDBRANCH   9  13
ENDBRANCH   1   7
BRANCH   4  30
HETATM   30  C   UNK N   1      29.764  16.201   5.650  0.00  0.00     0.232 C 
HETATM   31  N   UNK N   1      30.022  15.982   4.339  0.00  0.00    -0.360 N 
HETATM   32  C   UNK N   1      29.185  16.516   3.475  0.00  0.00     0.300 C 
ATOM     33  HN  UNK N   1      30.826  15.432   4.035  1.00  0.00     0.159 HD
HETATM   34  N   UNK N   1      28.731  17.758   3.765  0.00  0.00    -0.188 N 
HETATM   35  N   UNK N   1      28.154  15.641   3.186  0.00  0.00    -0.372 N 
HETATM   36  C   UNK N   1      28.473  17.956   5.066  0.00  0.00     0.676 C 
ATOM     37  HN  UNK N   1      28.598  18.480   3.056  1.00  0.00     0.181 HD
HETATM   38  N   UNK N   1      28.781  17.048   5.975  0.00  0.00    -0.201 N 
HETATM   39  N   UNK N   1      27.686  18.992   5.450  0.00  0.00    -0.214 N 
ATOM     40  HN  UNK N   1      28.297  16.995   6.872  1.00  0.00     0.180 HD
HETATM   41  C   UNK N   1      26.288  18.762   5.317  0.00  0.00     0.167 C 
HETATM   42  C   UNK N   1      28.140  19.884   6.478  0.00  0.00     0.167 C 
HETATM   43  C   UNK N   1      25.662  20.112   5.048  0.00  0.00     0.188 C 
HETATM   44  O   UNK N   1      26.627  21.152   5.104  0.00  0.00    -0.388 OA
HETATM   45  C   UNK N   1      27.245  21.114   6.381  0.00  0.00     0.188 C 
HETATM   46  C   UNK N   1      28.357  14.236   3.413  0.00  0.00     0.147 C 
HETATM   47  C   UNK N   1      26.831  16.097   2.895  0.00  0.00     0.147 C 
HETATM   48  C   UNK N   1      27.951  13.622   2.123  0.00  0.00     0.187 C 
HETATM   49  O   UNK N   1      26.585  13.919   1.936  0.00  0.00    -0.388 OA
HETATM   50  C   UNK N   1      26.425  15.305   1.680  0.00  0.00     0.187 C 
ENDBRANCH   4  30
TORSDOF 5
ENDMDL
MODEL 6
REMARK VINA RESULT:      -9.7      2.557      3.287
REMARK  5 active torsions:
REMARK  status: ('A' for Active; 'I' for Inactive)
REMARK    1  A    between atoms: N_2  and  C_4 
REMARK       I    between atoms: N_7  and  C_10 
REMARK    2  A    between atoms: C_10  and  C_12 
REMARK    3  A    between atoms: C_15  and  N_18 
REMARK       I    between atoms: N_18  and  C_19 
REMARK       I    between atoms: C_19  and  N_21 
REMARK    4  A    between atoms: N_21  and  C_22 
REMARK    5  A    between atoms: C_25  and  C_28 
REMARK       I    between atoms: C_31  and  N_43 
ROOT
HETATM    1  C   UNK N   1      31.399  17.089   8.050  0.00  0.00     0.132 C 
HETATM    2  C   UNK N   1      30.393  17.825   8.664  0.00  0.00     0.003 C 
HETATM    3  C   UNK N   1      29.192  17.877   8.072  0.00  0.00     0.009 C 
HETATM    4  C   UNK N   1      28.944  17.155   6.915  0.00  0.00    -0.016 C 
HETATM    5  C   UNK N   1      29.868  16.174   6.508  0.00  0.00     0.009 C 
HETATM    6  C   UNK N   1      31.085  16.114   7.116  0.00  0.00     0.003 C 
ENDROOT
BRANCH   1   7
HETATM    7  N   UNK N   1      32.419  17.927   7.594  0.00  0.00    -0.332 N 
HETATM    8  C   UNK N   1      33.653  17.909   8.212  0.00  0.00     0.321 C 
HETATM    9  N   UNK N   1      33.841  17.277   9.420  0.00  0.00    -0.309 N 
HETATM   10  O   UNK N   1      34.611  18.317   7.595  0.00  0.00    -0.247 OA
HETATM   11  H   UNK N   1      33.432  17.675  10.223  0.00  0.00     0.170 HD
HETATM   12  H   UNK N   1      32.258  18.529   6.831  0.00  0.00     0.165 HD
BRANCH   9  13
HETATM   13  C   UNK N   1      34.598  16.074   9.572  0.00  0.00     0.035 C 
HETATM   14  C   UNK N   1      35.862  16.124  10.203  0.00  0.00     0.026 C 
HETATM   15  C   UNK N   1      36.561  14.947  10.467  0.00  0.00    -0.007 C 
HETATM   16  C   UNK N   1      36.124  13.803   9.828  0.00  0.00     0.123 C 
HETATM   17  C   UNK N   1      34.726  13.662   9.696  0.00  0.00    -0.007 C 
HETATM   18  C   UNK N   1      33.959  14.823   9.517  0.00  0.00     0.026 C 
BRANCH  16  19
HETATM   19  C   UNK N   1      36.937  13.711   8.554  0.00  0.00     0.231 C 
HETATM   20  N   UNK N   1      38.112  13.003   8.466  0.00  0.00    -0.351 N 
HETATM   21  C   UNK N   1      38.873  12.971   7.224  0.00  0.00     0.128 C 
HETATM   22  C   UNK N   1      38.533  12.144   9.547  0.00  0.00     0.128 C 
HETATM   23  C   UNK N   1      40.352  12.564   7.472  0.00  0.00     0.055 C 
HETATM   24  C   UNK N   1      40.526  11.681   8.742  0.00  0.00     0.225 C 
HETATM   25  C   UNK N   1      39.263  10.965   9.063  0.00  0.00     0.055 C 
HETATM   26  O   UNK N   1      36.442  14.156   7.526  0.00  0.00    -0.272 OA
BRANCH  24  27
HETATM   27  N   UNK N   1      41.643  10.758   8.775  0.00  0.00     0.084 N 
HETATM   28  C   UNK N   1      42.811  11.530   8.357  0.00  0.00     0.309 C 
HETATM   29  C   UNK N   1      41.445   9.756   7.749  0.00  0.00     0.309 C 
ENDBRANCH  24  27
ENDBRANCH  16  19
ENDBRANCH   9  13
ENDBRANCH   1   7
BRANCH   4  30
HETATM   30  C   UNK N   1      27.604  16.857   6.771  0.00  0.00     0.232 C 
HETATM   31  N   UNK N   1      27.351  15.632   6.251  0.00  0.00    -0.360 N 
HETATM   32  C   UNK N   1      26.370  15.554   5.377  0.00  0.00     0.300 C 
ATOM     33  HN  UNK N   1      27.893  14.812   6.522  1.00  0.00     0.159 HD
HETATM   34  N   UNK N   1      26.265  16.578   4.497  0.00  0.00    -0.188 N 
HETATM   35  N   UNK N   1      25.170  15.285   6.008  0.00  0.00    -0.372 N 
HETATM   36  C   UNK N   1      26.511  17.784   5.029  0.00  0.00     0.676 C 
ATOM     37  HN  UNK N   1      26.019  16.443   3.516  1.00  0.00     0.181 HD
HETATM   38  N   UNK N   1      26.955  17.912   6.267  0.00  0.00    -0.201 N 
HETATM   39  N   UNK N   1      26.094  18.904   4.388  0.00  0.00    -0.214 N 
ATOM     40  HN  UNK N   1      26.810  18.766   6.807  1.00  0.00     0.180 HD
HETATM   41  C   UNK N   1      24.720  19.222   4.571  0.00  0.00     0.167 C 
HETATM   42  C   UNK N   1      27.022  19.975   4.157  0.00  0.00     0.167 C 
HETATM   43  C   UNK N   1      24.279  19.933   3.312  0.00  0.00     0.188 C 
HETATM   44  O   UNK N   1      25.366  20.129   2.419  0.00  0.00    -0.388 OA
HETATM   45  C   UNK N   1      26.372  20.861   3.102  0.00  0.00     0.188 C 
HETATM   46  C   UNK N   1      25.196  14.677   7.311  0.00  0.00     0.147 C 
HETATM   47  C   UNK N   1      23.927  15.797   5.523  0.00  0.00     0.147 C 
HETATM   48  C   UNK N   1      24.269  13.525   7.164  0.00  0.00     0.187 C 
HETATM   49  O   UNK N   1      22.995  14.053   6.871  0.00  0.00    -0.388 OA
HETATM   50  C   UNK N   1      22.996  14.614   5.568  0.00  0.00     0.187 C 
ENDBRANCH   4  30
TORSDOF 5
ENDMDL
MODEL 7
REMARK VINA RESULT:      -9.4      2.711      5.292
REMARK  5 active torsions:
REMARK  status: ('A' for Active; 'I' for Inactive)
REMARK    1  A    between atoms: N_2  and  C_4 
REMARK       I    between atoms: N_7  and  C_10 
REMARK    2  A    between atoms: C_10  and  C_12 
REMARK    3  A    between atoms: C_15  and  N_18 
REMARK       I    between atoms: N_18  and  C_19 
REMARK       I    between atoms: C_19  and  N_21 
REMARK    4  A    between atoms: N_21  and  C_22 
REMARK    5  A    between atoms: C_25  and  C_28 
REMARK       I    between atoms: C_31  and  N_43 
ROOT
HETATM    1  C   UNK N   1      28.631  16.258   4.410  0.00  0.00     0.132 C 
HETATM    2  C   UNK N   1      27.735  17.098   3.761  0.00  0.00     0.003 C 
HETATM    3  C   UNK N   1      26.494  16.649   3.534  0.00  0.00     0.009 C 
HETATM    4  C   UNK N   1      26.096  15.406   4.002  0.00  0.00    -0.016 C 
HETATM    5  C   UNK N   1      26.913  14.729   4.927  0.00  0.00     0.009 C 
HETATM    6  C   UNK N   1      28.172  15.191   5.165  0.00  0.00     0.003 C 
ENDROOT
BRANCH   1   7
HETATM    7  N   UNK N   1      29.662  15.872   3.550  0.00  0.00    -0.332 N 
HETATM    8  C   UNK N   1      30.942  16.344   3.754  0.00  0.00     0.321 C 
HETATM    9  N   UNK N   1      31.195  17.380   4.625  0.00  0.00    -0.309 N 
HETATM   10  O   UNK N   1      31.867  15.723   3.279  0.00  0.00    -0.247 OA
HETATM   11  H   UNK N   1      30.889  18.283   4.376  0.00  0.00     0.170 HD
HETATM   12  H   UNK N   1      29.475  15.261   2.800  0.00  0.00     0.165 HD
BRANCH   9  13
HETATM   13  C   UNK N   1      31.877  17.216   5.870  0.00  0.00     0.035 C 
HETATM   14  C   UNK N   1      33.245  17.558   5.963  0.00  0.00     0.026 C 
HETATM   15  C   UNK N   1      33.896  17.519   7.195  0.00  0.00    -0.007 C 
HETATM   16  C   UNK N   1      33.252  16.856   8.221  0.00  0.00     0.123 C 
HETATM   17  C   UNK N   1      31.851  17.015   8.279  0.00  0.00    -0.007 C 
HETATM   18  C   UNK N   1      31.151  17.149   7.072  0.00  0.00     0.026 C 
BRANCH  16  19
HETATM   19  C   UNK N   1      33.772  15.434   8.177  0.00  0.00     0.231 C 
HETATM   20  N   UNK N   1      34.514  14.877   9.191  0.00  0.00    -0.351 N 
HETATM   21  C   UNK N   1      35.016  13.513   9.087  0.00  0.00     0.128 C 
HETATM   22  C   UNK N   1      34.674  15.569  10.448  0.00  0.00     0.128 C 
HETATM   23  C   UNK N   1      36.204  13.267  10.059  0.00  0.00     0.055 C 
HETATM   24  C   UNK N   1      36.157  14.193  11.308  0.00  0.00     0.225 C 
HETATM   25  C   UNK N   1      34.765  14.640  11.582  0.00  0.00     0.055 C 
HETATM   26  O   UNK N   1      33.378  14.708   7.272  0.00  0.00    -0.272 OA
BRANCH  24  27
HETATM   27  N   UNK N   1      36.773  13.711  12.529  0.00  0.00     0.084 N 
HETATM   28  C   UNK N   1      37.123  12.315  12.276  0.00  0.00     0.309 C 
HETATM   29  C   UNK N   1      35.770  13.684  13.573  0.00  0.00     0.309 C 
ENDBRANCH  24  27
ENDBRANCH  16  19
ENDBRANCH   9  13
ENDBRANCH   1   7
BRANCH   4  30
HETATM   30  C   UNK N   1      24.732  15.341   4.199  0.00  0.00     0.232 C 
HETATM   31  N   UNK N   1      24.112  16.544   4.254  0.00  0.00    -0.360 N 
HETATM   32  C   UNK N   1      23.164  16.678   5.157  0.00  0.00     0.300 C 
ATOM     33  HN  UNK N   1      24.367  17.309   3.628  1.00  0.00     0.159 HD
HETATM   34  N   UNK N   1      23.392  16.101   6.359  0.00  0.00    -0.188 N 
HETATM   35  N   UNK N   1      21.935  16.323   4.634  0.00  0.00    -0.372 N 
HETATM   36  C   UNK N   1      23.998  14.907   6.287  0.00  0.00     0.676 C 
ATOM     37  HN  UNK N   1      23.124  16.535   7.243  1.00  0.00     0.181 HD
HETATM   38  N   UNK N   1      24.450  14.433   5.139  0.00  0.00    -0.201 N 
HETATM   39  N   UNK N   1      23.959  14.063   7.348  0.00  0.00    -0.214 N 
ATOM     40  HN  UNK N   1      24.575  13.433   4.980  1.00  0.00     0.180 HD
HETATM   41  C   UNK N   1      22.752  13.321   7.478  0.00  0.00     0.167 C 
HETATM   42  C   UNK N   1      25.178  13.482   7.836  0.00  0.00     0.167 C 
HETATM   43  C   UNK N   1      22.567  13.071   8.957  0.00  0.00     0.188 C 
HETATM   44  O   UNK N   1      23.669  13.561   9.708  0.00  0.00    -0.388 OA
HETATM   45  C   UNK N   1      24.848  12.938   9.221  0.00  0.00     0.188 C 
HETATM   46  C   UNK N   1      21.757  16.348   3.207  0.00  0.00     0.147 C 
HETATM   47  C   UNK N   1      20.918  15.712   5.432  0.00  0.00     0.147 C 
HETATM   48  C   UNK N   1      20.518  17.149   3.034  0.00  0.00     0.187 C 
HETATM   49  O   UNK N   1      19.476  16.439   3.667  0.00  0.00    -0.388 OA
HETATM   50  C   UNK N   1      19.664  16.463   5.073  0.00  0.00     0.187 C 
ENDBRANCH   4  30
TORSDOF 5
ENDMDL
MODEL 8
REMARK VINA RESULT:      -9.3      2.243      2.538
REMARK  5 active torsions:
REMARK  status: ('A' for Active; 'I' for Inactive)
REMARK    1  A    between atoms: N_2  and  C_4 
REMARK       I    between atoms: N_7  and  C_10 
REMARK    2  A    between atoms: C_10  and  C_12 
REMARK    3  A    between atoms: C_15  and  N_18 
REMARK       I    between atoms: N_18  and  C_19 
REMARK       I    between atoms: C_19  and  N_21 
REMARK    4  A    between atoms: N_21  and  C_22 
REMARK    5  A    between atoms: C_25  and  C_28 
REMARK       I    between atoms: C_31  and  N_43 
ROOT
HETATM    1  C   UNK N   1      33.341  16.664   6.894  0.00  0.00     0.132 C 
HETATM    2  C   UNK N   1      32.174  16.484   7.626  0.00  0.00     0.003 C 
HETATM    3  C   UNK N   1      31.000  16.612   6.992  0.00  0.00     0.009 C 
HETATM    4  C   UNK N   1      30.958  16.845   5.626  0.00  0.00    -0.016 C 
HETATM    5  C   UNK N   1      32.135  16.695   4.868  0.00  0.00     0.009 C 
HETATM    6  C   UNK N   1      33.327  16.556   5.512  0.00  0.00     0.003 C 
ENDROOT
BRANCH   1   7
HETATM    7  N   UNK N   1      34.017  17.813   7.311  0.00  0.00    -0.332 N 
HETATM    8  C   UNK N   1      34.439  17.926   8.620  0.00  0.00     0.321 C 
HETATM    9  N   UNK N   1      33.998  17.058   9.593  0.00  0.00    -0.309 N 
HETATM   10  O   UNK N   1      35.333  18.702   8.871  0.00  0.00    -0.247 OA
HETATM   11  H   UNK N   1      33.057  17.116   9.879  0.00  0.00     0.170 HD
HETATM   12  H   UNK N   1      34.194  18.540   6.671  0.00  0.00     0.165 HD
BRANCH   9  13
HETATM   13  C   UNK N   1      34.834  16.077  10.212  0.00  0.00     0.035 C 
HETATM   14  C   UNK N   1      35.176  14.906   9.498  0.00  0.00     0.026 C 
HETATM   15  C   UNK N   1      36.085  13.997  10.036  0.00  0.00    -0.007 C 
HETATM   16  C   UNK N   1      36.382  14.129  11.378  0.00  0.00     0.123 C 
HETATM   17  C   UNK N   1      36.487  15.451  11.862  0.00  0.00    -0.007 C 
HETATM   18  C   UNK N   1      35.659  16.430  11.295  0.00  0.00     0.026 C 
BRANCH  16  19
HETATM   19  C   UNK N   1      35.414  13.218  12.103  0.00  0.00     0.231 C 
HETATM   20  N   UNK N   1      35.599  11.859  12.204  0.00  0.00    -0.351 N 
HETATM   21  C   UNK N   1      34.622  11.022  12.887  0.00  0.00     0.128 C 
HETATM   22  C   UNK N   1      36.841  11.254  11.783  0.00  0.00     0.128 C 
HETATM   23  C   UNK N   1      34.753   9.532  12.462  0.00  0.00     0.055 C 
HETATM   24  C   UNK N   1      36.191   9.165  11.997  0.00  0.00     0.225 C 
HETATM   25  C   UNK N   1      37.191  10.086  12.600  0.00  0.00     0.055 C 
HETATM   26  O   UNK N   1      34.518  13.737  12.756  0.00  0.00    -0.272 OA
BRANCH  24  27
HETATM   27  N   UNK N   1      36.622   7.790  12.156  0.00  0.00     0.084 N 
HETATM   28  C   UNK N   1      35.839   7.252  13.266  0.00  0.00     0.309 C 
HETATM   29  C   UNK N   1      37.999   7.787  12.605  0.00  0.00     0.309 C 
ENDBRANCH  24  27
ENDBRANCH  16  19
ENDBRANCH   9  13
ENDBRANCH   1   7
BRANCH   4  30
HETATM   30  C   UNK N   1      29.783  16.392   5.062  0.00  0.00     0.232 C 
HETATM   31  N   UNK N   1      29.873  16.071   3.749  0.00  0.00    -0.360 N 
HETATM   32  C   UNK N   1      28.860  16.421   2.985  0.00  0.00     0.300 C 
ATOM     33  HN  UNK N   1      30.686  15.584   3.371  1.00  0.00     0.159 HD
HETATM   34  N   UNK N   1      28.304  17.628   3.238  0.00  0.00    -0.188 N 
HETATM   35  N   UNK N   1      27.915  15.414   2.934  0.00  0.00    -0.372 N 
HETATM   36  C   UNK N   1      28.214  17.928   4.542  0.00  0.00     0.676 C 
ATOM     37  HN  UNK N   1      27.981  18.256   2.500  1.00  0.00     0.181 HD
HETATM   38  N   UNK N   1      28.760  17.155   5.464  0.00  0.00    -0.201 N 
HETATM   39  N   UNK N   1      27.370  18.905   4.956  0.00  0.00    -0.214 N 
ATOM     40  HN  UNK N   1      28.421  17.141   6.427  1.00  0.00     0.180 HD
HETATM   41  C   UNK N   1      26.006  18.512   5.062  0.00  0.00     0.167 C 
HETATM   42  C   UNK N   1      27.855  19.941   5.823  0.00  0.00     0.167 C 
HETATM   43  C   UNK N   1      25.186  19.750   4.782  0.00  0.00     0.188 C 
HETATM   44  O   UNK N   1      26.014  20.890   4.600  0.00  0.00    -0.388 OA
HETATM   45  C   UNK N   1      26.810  21.049   5.764  0.00  0.00     0.188 C 
HETATM   46  C   UNK N   1      28.319  14.069   3.244  0.00  0.00     0.147 C 
HETATM   47  C   UNK N   1      26.517  15.690   2.815  0.00  0.00     0.147 C 
HETATM   48  C   UNK N   1      27.809  13.287   2.088  0.00  0.00     0.187 C 
HETATM   49  O   UNK N   1      26.405  13.412   2.092  0.00  0.00    -0.388 OA
HETATM   50  C   UNK N   1      26.040  14.740   1.749  0.00  0.00     0.187 C 
ENDBRANCH   4  30
TORSDOF 5
ENDMDL
MODEL 9
REMARK VINA RESULT:      -9.3      2.887     12.696
REMARK  5 active torsions:
REMARK  status: ('A' for Active; 'I' for Inactive)
REMARK    1  A    between atoms: N_2  and  C_4 
REMARK       I    between atoms: N_7  and  C_10 
REMARK    2  A    between atoms: C_10  and  C_12 
REMARK    3  A    between atoms: C_15  and  N_18 
REMARK       I    between atoms: N_18  and  C_19 
REMARK       I    between atoms: C_19  and  N_21 
REMARK    4  A    between atoms: N_21  and  C_22 
REMARK    5  A    between atoms: C_25  and  C_28 
REMARK       I    between atoms: C_31  and  N_43 
ROOT
HETATM    1  C   UNK N   1      35.326  14.749   9.488  0.00  0.00     0.132 C 
HETATM    2  C   UNK N   1      36.601  14.199   9.536  0.00  0.00     0.003 C 
HETATM    3  C   UNK N   1      36.894  13.362  10.541  0.00  0.00     0.009 C 
HETATM    4  C   UNK N   1      35.924  13.000  11.463  0.00  0.00    -0.016 C 
HETATM    5  C   UNK N   1      34.577  13.310  11.198  0.00  0.00     0.009 C 
HETATM    6  C   UNK N   1      34.278  14.153  10.171  0.00  0.00     0.003 C 
ENDROOT
BRANCH   1   7
HETATM    7  N   UNK N   1      35.370  16.127   9.716  0.00  0.00    -0.332 N 
HETATM    8  C   UNK N   1      34.906  16.999   8.753  0.00  0.00     0.321 C 
HETATM    9  N   UNK N   1      34.631  16.574   7.472  0.00  0.00    -0.309 N 
HETATM   10  O   UNK N   1      34.585  18.115   9.095  0.00  0.00    -0.247 OA
HETATM   11  H   UNK N   1      35.386  16.319   6.894  0.00  0.00     0.170 HD
HETATM   12  H   UNK N   1      35.731  16.474  10.564  0.00  0.00     0.165 HD
BRANCH   9  13
HETATM   13  C   UNK N   1      33.308  16.485   6.938  0.00  0.00     0.035 C 
HETATM   14  C   UNK N   1      32.897  17.400   5.944  0.00  0.00     0.026 C 
HETATM   15  C   UNK N   1      31.656  17.254   5.326  0.00  0.00    -0.007 C 
HETATM   16  C   UNK N   1      30.755  16.398   5.927  0.00  0.00     0.123 C 
HETATM   17  C   UNK N   1      31.297  15.221   6.486  0.00  0.00    -0.007 C 
HETATM   18  C   UNK N   1      32.582  15.285   7.044  0.00  0.00     0.026 C 
BRANCH  16  19
HETATM   19  C   UNK N   1      29.921  17.263   6.848  0.00  0.00     0.231 C 
HETATM   20  N   UNK N   1      28.893  18.059   6.400  0.00  0.00    -0.351 N 
HETATM   21  C   UNK N   1      28.140  18.897   7.324  0.00  0.00     0.128 C 
HETATM   22  C   UNK N   1      28.430  17.960   5.036  0.00  0.00     0.128 C 
HETATM   23  C   UNK N   1      27.403  20.045   6.580  0.00  0.00     0.055 C 
HETATM   24  C   UNK N   1      27.072  19.687   5.103  0.00  0.00     0.225 C 
HETATM   25  C   UNK N   1      26.988  18.214   4.923  0.00  0.00     0.055 C 
HETATM   26  O   UNK N   1      30.070  17.124   8.056  0.00  0.00    -0.272 OA
BRANCH  24  27
HETATM   27  N   UNK N   1      25.925  20.329   4.493  0.00  0.00     0.084 N 
HETATM   28  C   UNK N   1      24.836  19.358   4.569  0.00  0.00     0.309 C 
HETATM   29  C   UNK N   1      26.194  20.511   3.081  0.00  0.00     0.309 C 
ENDBRANCH  24  27
ENDBRANCH  16  19
ENDBRANCH   9  13
ENDBRANCH   1   7
BRANCH   4  30
HETATM   30  C   UNK N   1      36.188  11.771  12.033  0.00  0.00     0.232 C 
HETATM   31  N   UNK N   1      35.341  10.782  11.659  0.00  0.00    -0.360 N 
HETATM   32  C   UNK N   1      34.959   9.945  12.600  0.00  0.00     0.300 C 
ATOM     33  HN  UNK N   1      35.016  10.689  10.697  1.00  0.00     0.159 HD
HETATM   34  N   UNK N   1      34.702  10.483  13.816  0.00  0.00    -0.188 N 
HETATM   35  N   UNK N   1      35.822   8.869  12.681  0.00  0.00    -0.372 N 
HETATM   36  C   UNK N   1      35.553  11.455  14.175  0.00  0.00     0.676 C 
ATOM     37  HN  UNK N   1      33.929  10.176  14.407  1.00  0.00     0.181 HD
HETATM   38  N   UNK N   1      36.460  11.921  13.334  0.00  0.00    -0.201 N 
HETATM   39  N   UNK N   1      35.651  11.823  15.476  0.00  0.00    -0.214 N 
ATOM     40  HN  UNK N   1      37.318  12.368  13.658  1.00  0.00     0.180 HD
HETATM   41  C   UNK N   1      36.457  10.968  16.280  0.00  0.00     0.167 C 
HETATM   42  C   UNK N   1      35.559  13.211  15.830  0.00  0.00     0.167 C 
HETATM   43  C   UNK N   1      35.883  11.037  17.677  0.00  0.00     0.188 C 
HETATM   44  O   UNK N   1      34.817  11.972  17.754  0.00  0.00    -0.388 OA
HETATM   45  C   UNK N   1      35.306  13.236  17.333  0.00  0.00     0.188 C 
HETATM   46  C   UNK N   1      36.632   8.546  11.537  0.00  0.00     0.147 C 
HETATM   47  C   UNK N   1      36.108   8.216  13.920  0.00  0.00     0.147 C 
HETATM   48  C   UNK N   1      36.380   7.095  11.342  0.00  0.00     0.187 C 
HETATM   49  O   UNK N   1      36.842   6.436  12.500  0.00  0.00    -0.388 OA
HETATM   50  C   UNK N   1      36.002   6.749  13.599  0.00  0.00     0.187 C 
ENDBRANCH   4  30
TORSDOF 5
ENDMDL
