MODEL 1
REMARK VINA RESULT:      -9.1      0.000      0.000
REMARK  8 active torsions:
REMARK  status: ('A' for Active; 'I' for Inactive)
REMARK    1  A    between atoms: C_2  and  C_18 
REMARK    2  A    between atoms: C_6  and  N_9 
REMARK    3  A    between atoms: C_12  and  C_15 
REMARK    4  A    between atoms: C_15  and  O_17 
REMARK       I    between atoms: C_18  and  N_20 
REMARK    5  A    between atoms: N_20  and  C_21 
REMARK    6  A    between atoms: C_24  and  C_39 
REMARK    7  A    between atoms: C_25  and  N_27 
REMARK    8  A    between atoms: N_30  and  C_33 
ROOT
HETATM    1  C   UNK N   1      34.480  15.568   8.600  0.00  0.00     0.255 C 
HETATM    2  N   UNK N   1      35.369  14.634   8.262  0.00  0.00    -0.357 N 
ATOM      3  HN  UNK N   1      35.807  14.589   7.343  1.00  0.00     0.162 HD
HETATM    4  C   UNK N   1      35.639  13.745   9.261  0.00  0.00     0.081 C 
HETATM    5  C   UNK N   1      34.844  13.917  10.425  0.00  0.00     0.099 C 
HETATM    6  S   UNK N   1      33.841  15.170  10.078  0.00  0.00    -0.064 SA
ENDROOT
BRANCH   1   7
HETATM    7  N   UNK N   1      34.917  16.911   8.444  0.00  0.00    -0.327 N 
HETATM    8  C   UNK N   1      34.054  17.908   8.236  0.00  0.00     0.255 C 
HETATM    9  O   UNK N   1      34.313  19.038   8.626  0.00  0.00    -0.268 OA
HETATM   10  H   UNK N   1      35.880  17.112   8.490  0.00  0.00     0.165 HD
BRANCH   8  11
HETATM   11  C   UNK N   1      32.861  17.624   7.497  0.00  0.00     0.049 A 
HETATM   12  C   UNK N   1      33.011  17.442   6.127  0.00  0.00     0.046 A 
HETATM   13  C   UNK N   1      31.941  17.096   5.349  0.00  0.00     0.079 A 
HETATM   14  C   UNK N   1      30.695  16.866   5.971  0.00  0.00     0.125 A 
HETATM   15 Cl   UNK N   1      32.240  16.963   3.616  0.00  0.00    -0.080 Cl
HETATM   16  N   UNK N   1      30.595  17.006   7.339  0.00  0.00    -0.350 N 
HETATM   17  C   UNK N   1      31.640  17.396   8.100  0.00  0.00     0.106 A 
ATOM     18  HN  UNK N   1      29.702  16.810   7.790  1.00  0.00     0.166 HD
BRANCH  14  19
HETATM   19  N   UNK N   1      29.514  16.592   5.232  0.00  0.00    -0.366 N 
HETATM   20  C   UNK N   1      28.407  15.999   5.932  0.00  0.00     0.125 C 
HETATM   21  C   UNK N   1      27.745  17.107   6.758  0.00  0.00     0.035 C 
HETATM   22  C   UNK N   1      27.420  18.346   5.889  0.00  0.00     0.087 C 
HETATM   23  C   UNK N   1      28.596  18.765   4.986  0.00  0.00     0.035 C 
HETATM   24  C   UNK N   1      29.135  17.552   4.225  0.00  0.00     0.125 C 
BRANCH  22  25
HETATM   25  C   UNK N   1      26.201  18.148   5.045  0.00  0.00     0.143 C 
HETATM   26  O   UNK N   1      26.110  18.732   3.978  0.00  0.00    -0.650 OA
BRANCH  25  27
HETATM   27  O   UNK N   1      25.209  17.329   5.444  0.00  0.00    -0.776 OA
HETATM   28  H   UNK N   1      25.114  16.782   6.198  0.00  0.00     0.167 HD
ENDBRANCH  25  27
ENDBRANCH  22  25
ENDBRANCH  14  19
ENDBRANCH   8  11
ENDBRANCH   1   7
BRANCH   4  29
HETATM   29  C   UNK N   1      36.919  13.050   9.138  0.00  0.00     0.035 A 
HETATM   30  C   UNK N   1      37.022  11.960   8.281  0.00  0.00     0.045 A 
HETATM   31  C   UNK N   1      38.345  11.558   8.048  0.00  0.00     0.042 A 
HETATM   32  C   UNK N   1      39.313  12.317   8.720  0.00  0.00     0.074 A 
HETATM   33 Cl   UNK N   1      38.701  10.279   6.910  0.00  0.00    -0.084 Cl
HETATM   34  S   UNK N   1      38.460  13.465   9.582  0.00  0.00    -0.098 SA
ENDBRANCH   4  29
BRANCH   5  35
HETATM   35  N   UNK N   1      35.314  13.727  11.745  0.00  0.00    -0.370 N 
HETATM   36  C   UNK N   1      35.788  12.368  11.983  0.00  0.00     0.154 C 
HETATM   37  C   UNK N   1      36.312  12.152  13.379  0.00  0.00     0.292 C 
HETATM   38  N   UNK N   1      35.802  13.207  14.233  0.00  0.00     0.096 N 
HETATM   39  C   UNK N   1      36.491  14.430  13.821  0.00  0.00     0.292 C 
HETATM   40  C   UNK N   1      36.025  14.821  12.403  0.00  0.00     0.154 C 
BRANCH  38  41
HETATM   41  C   UNK N   1      36.036  12.811  15.616  0.00  0.00     0.223 C 
HETATM   42  C   UNK N   1      36.156  11.277  15.639  0.00  0.00     0.036 C 
HETATM   43  C   UNK N   1      36.318  10.744  17.052  0.00  0.00     0.002 C 
HETATM   44  C   UNK N   1      35.137  11.189  17.904  0.00  0.00     0.000 C 
HETATM   45  C   UNK N   1      35.067  12.712  17.928  0.00  0.00     0.002 C 
HETATM   46  C   UNK N   1      34.870  13.238  16.513  0.00  0.00     0.036 C 
ENDBRANCH  38  41
ENDBRANCH   5  35
TORSDOF 8
ENDMDL
MODEL 2
REMARK VINA RESULT:      -8.9      1.317      1.586
REMARK  8 active torsions:
REMARK  status: ('A' for Active; 'I' for Inactive)
REMARK    1  A    between atoms: C_2  and  C_18 
REMARK    2  A    between atoms: C_6  and  N_9 
REMARK    3  A    between atoms: C_12  and  C_15 
REMARK    4  A    between atoms: C_15  and  O_17 
REMARK       I    between atoms: C_18  and  N_20 
REMARK    5  A    between atoms: N_20  and  C_21 
REMARK    6  A    between atoms: C_24  and  C_39 
REMARK    7  A    between atoms: C_25  and  N_27 
REMARK    8  A    between atoms: N_30  and  C_33 
ROOT
HETATM    1  C   UNK N   1      34.483  15.364   8.242  0.00  0.00     0.255 C 
HETATM    2  N   UNK N   1      35.355  14.402   7.942  0.00  0.00    -0.357 N 
ATOM      3  HN  UNK N   1      35.789  14.310   7.024  1.00  0.00     0.162 HD
HETATM    4  C   UNK N   1      35.612  13.550   8.976  0.00  0.00     0.081 C 
HETATM    5  C   UNK N   1      34.824  13.784  10.134  0.00  0.00     0.099 C 
HETATM    6  S   UNK N   1      33.841  15.039   9.736  0.00  0.00    -0.064 SA
ENDROOT
BRANCH   1   7
HETATM    7  N   UNK N   1      34.941  16.691   8.029  0.00  0.00    -0.327 N 
HETATM    8  C   UNK N   1      34.122  17.741   8.131  0.00  0.00     0.255 C 
HETATM    9  O   UNK N   1      34.556  18.829   8.481  0.00  0.00    -0.268 OA
HETATM   10  H   UNK N   1      35.887  16.842   7.800  0.00  0.00     0.165 HD
BRANCH   8  11
HETATM   11  C   UNK N   1      32.751  17.563   7.762  0.00  0.00     0.049 A 
HETATM   12  C   UNK N   1      31.803  17.918   8.714  0.00  0.00     0.046 A 
HETATM   13  C   UNK N   1      30.467  17.851   8.427  0.00  0.00     0.079 A 
HETATM   14  C   UNK N   1      30.071  17.473   7.125  0.00  0.00     0.125 A 
HETATM   15 Cl   UNK N   1      29.360  18.260   9.737  0.00  0.00    -0.080 Cl
HETATM   16  N   UNK N   1      31.040  17.176   6.192  0.00  0.00    -0.350 N 
HETATM   17  C   UNK N   1      32.357  17.195   6.490  0.00  0.00     0.106 A 
ATOM     18  HN  UNK N   1      30.753  16.933   5.244  1.00  0.00     0.166 HD
BRANCH  14  19
HETATM   19  N   UNK N   1      28.709  17.291   6.768  0.00  0.00    -0.366 N 
HETATM   20  C   UNK N   1      27.737  18.167   7.365  0.00  0.00     0.125 C 
HETATM   21  C   UNK N   1      27.841  19.518   6.649  0.00  0.00     0.035 C 
HETATM   22  C   UNK N   1      27.761  19.354   5.113  0.00  0.00     0.087 C 
HETATM   23  C   UNK N   1      28.664  18.221   4.586  0.00  0.00     0.035 C 
HETATM   24  C   UNK N   1      28.432  16.944   5.396  0.00  0.00     0.125 C 
BRANCH  22  25
HETATM   25  C   UNK N   1      26.362  19.127   4.634  0.00  0.00     0.143 C 
HETATM   26  O   UNK N   1      26.178  18.681   3.514  0.00  0.00    -0.650 OA
BRANCH  25  27
HETATM   27  O   UNK N   1      25.307  19.402   5.425  0.00  0.00    -0.776 OA
HETATM   28  H   UNK N   1      24.953  18.960   6.170  0.00  0.00     0.167 HD
ENDBRANCH  25  27
ENDBRANCH  22  25
ENDBRANCH  14  19
ENDBRANCH   8  11
ENDBRANCH   1   7
BRANCH   4  29
HETATM   29  C   UNK N   1      36.879  12.829   8.880  0.00  0.00     0.035 A 
HETATM   30  C   UNK N   1      36.890  11.536   8.368  0.00  0.00     0.045 A 
HETATM   31  C   UNK N   1      38.177  11.062   8.077  0.00  0.00     0.042 A 
HETATM   32  C   UNK N   1      39.210  11.968   8.357  0.00  0.00     0.074 A 
HETATM   33 Cl   UNK N   1      38.403   9.503   7.319  0.00  0.00    -0.084 Cl
HETATM   34  S   UNK N   1      38.457  13.329   8.962  0.00  0.00    -0.098 SA
ENDBRANCH   4  29
BRANCH   5  35
HETATM   35  N   UNK N   1      35.294  13.642  11.459  0.00  0.00    -0.370 N 
HETATM   36  C   UNK N   1      35.815  12.306  11.731  0.00  0.00     0.154 C 
HETATM   37  C   UNK N   1      36.341  12.142  13.132  0.00  0.00     0.292 C 
HETATM   38  N   UNK N   1      35.789  13.197  13.960  0.00  0.00     0.096 N 
HETATM   39  C   UNK N   1      36.436  14.434  13.523  0.00  0.00     0.292 C 
HETATM   40  C   UNK N   1      35.962  14.775  12.094  0.00  0.00     0.154 C 
BRANCH  38  41
HETATM   41  C   UNK N   1      36.031  12.842  15.353  0.00  0.00     0.223 C 
HETATM   42  C   UNK N   1      36.144  11.308  15.421  0.00  0.00     0.036 C 
HETATM   43  C   UNK N   1      36.313  10.817  16.849  0.00  0.00     0.002 C 
HETATM   44  C   UNK N   1      35.141  11.294  17.695  0.00  0.00     0.000 C 
HETATM   45  C   UNK N   1      35.078  12.817  17.674  0.00  0.00     0.002 C 
HETATM   46  C   UNK N   1      34.873  13.301  16.245  0.00  0.00     0.036 C 
ENDBRANCH  38  41
ENDBRANCH   5  35
TORSDOF 8
ENDMDL
MODEL 3
REMARK VINA RESULT:      -8.9      4.407     12.233
REMARK  8 active torsions:
REMARK  status: ('A' for Active; 'I' for Inactive)
REMARK    1  A    between atoms: C_2  and  C_18 
REMARK    2  A    between atoms: C_6  and  N_9 
REMARK    3  A    between atoms: C_12  and  C_15 
REMARK    4  A    between atoms: C_15  and  O_17 
REMARK       I    between atoms: C_18  and  N_20 
REMARK    5  A    between atoms: N_20  and  C_21 
REMARK    6  A    between atoms: C_24  and  C_39 
REMARK    7  A    between atoms: C_25  and  N_27 
REMARK    8  A    between atoms: N_30  and  C_33 
ROOT
HETATM    1  C   UNK N   1      30.555  16.884   4.911  0.00  0.00     0.255 C 
HETATM    2  N   UNK N   1      29.650  17.786   5.291  0.00  0.00    -0.357 N 
ATOM      3  HN  UNK N   1      29.897  18.723   5.609  1.00  0.00     0.162 HD
HETATM    4  C   UNK N   1      28.363  17.340   5.214  0.00  0.00     0.081 C 
HETATM    5  C   UNK N   1      28.240  15.973   4.852  0.00  0.00     0.099 C 
HETATM    6  S   UNK N   1      29.783  15.433   4.688  0.00  0.00    -0.064 SA
ENDROOT
BRANCH   1   7
HETATM    7  N   UNK N   1      31.431  17.298   3.873  0.00  0.00    -0.327 N 
HETATM    8  C   UNK N   1      32.675  16.821   3.774  0.00  0.00     0.255 C 
HETATM    9  O   UNK N   1      33.213  16.728   2.680  0.00  0.00    -0.268 OA
HETATM   10  H   UNK N   1      31.114  17.953   3.209  0.00  0.00     0.165 HD
BRANCH   8  11
HETATM   11  C   UNK N   1      33.366  16.487   4.982  0.00  0.00     0.049 A 
HETATM   12  C   UNK N   1      33.581  17.527   5.879  0.00  0.00     0.046 A 
HETATM   13  C   UNK N   1      34.169  17.291   7.091  0.00  0.00     0.079 A 
HETATM   14  C   UNK N   1      34.497  15.962   7.440  0.00  0.00     0.125 A 
HETATM   15 Cl   UNK N   1      34.453  18.699   8.114  0.00  0.00    -0.080 Cl
HETATM   16  N   UNK N   1      34.223  14.950   6.545  0.00  0.00    -0.350 N 
HETATM   17  C   UNK N   1      33.688  15.190   5.329  0.00  0.00     0.106 A 
ATOM     18  HN  UNK N   1      34.433  13.989   6.811  1.00  0.00     0.166 HD
BRANCH  14  19
HETATM   19  N   UNK N   1      35.190  15.639   8.636  0.00  0.00    -0.366 N 
HETATM   20  C   UNK N   1      34.531  15.909   9.885  0.00  0.00     0.125 C 
HETATM   21  C   UNK N   1      33.477  14.816  10.090  0.00  0.00     0.035 C 
HETATM   22  C   UNK N   1      34.086  13.403   9.929  0.00  0.00     0.087 C 
HETATM   23  C   UNK N   1      34.979  13.276   8.680  0.00  0.00     0.035 C 
HETATM   24  C   UNK N   1      35.980  14.432   8.630  0.00  0.00     0.125 C 
BRANCH  22  25
HETATM   25  C   UNK N   1      34.864  12.976  11.133  0.00  0.00     0.143 C 
HETATM   26  O   UNK N   1      35.802  12.207  10.998  0.00  0.00    -0.650 OA
BRANCH  25  27
HETATM   27  O   UNK N   1      34.549  13.435  12.360  0.00  0.00    -0.776 OA
HETATM   28  H   UNK N   1      34.964  13.329  13.193  0.00  0.00     0.167 HD
ENDBRANCH  25  27
ENDBRANCH  22  25
ENDBRANCH  14  19
ENDBRANCH   8  11
ENDBRANCH   1   7
BRANCH   4  29
HETATM   29  C   UNK N   1      27.352  18.391   5.122  0.00  0.00     0.035 A 
HETATM   30  C   UNK N   1      27.291  19.367   6.111  0.00  0.00     0.045 A 
HETATM   31  C   UNK N   1      26.474  20.454   5.773  0.00  0.00     0.042 A 
HETATM   32  C   UNK N   1      25.867  20.358   4.512  0.00  0.00     0.074 A 
HETATM   33 Cl   UNK N   1      26.351  21.841   6.829  0.00  0.00    -0.084 Cl
HETATM   34  S   UNK N   1      26.387  18.904   3.877  0.00  0.00    -0.098 SA
ENDBRANCH   4  29
BRANCH   5  35
HETATM   35  N   UNK N   1      27.215  15.456   4.028  0.00  0.00    -0.370 N 
HETATM   36  C   UNK N   1      27.579  15.450   2.615  0.00  0.00     0.154 C 
HETATM   37  C   UNK N   1      26.507  14.882   1.723  0.00  0.00     0.292 C 
HETATM   38  N   UNK N   1      25.246  14.907   2.440  0.00  0.00     0.096 N 
HETATM   39  C   UNK N   1      25.357  13.892   3.487  0.00  0.00     0.292 C 
HETATM   40  C   UNK N   1      26.403  14.348   4.526  0.00  0.00     0.154 C 
BRANCH  38  41
HETATM   41  C   UNK N   1      24.180  14.673   1.474  0.00  0.00     0.223 C 
HETATM   42  C   UNK N   1      22.846  14.943   2.191  0.00  0.00     0.036 C 
HETATM   43  C   UNK N   1      21.654  14.646   1.296  0.00  0.00     0.002 C 
HETATM   44  C   UNK N   1      21.714  13.199   0.830  0.00  0.00     0.000 C 
HETATM   45  C   UNK N   1      23.010  12.959   0.064  0.00  0.00     0.002 C 
HETATM   46  C   UNK N   1      24.200  13.224   0.976  0.00  0.00     0.036 C 
ENDBRANCH  38  41
ENDBRANCH   5  35
TORSDOF 8
ENDMDL
MODEL 4
REMARK VINA RESULT:      -8.8      6.327     14.186
REMARK  8 active torsions:
REMARK  status: ('A' for Active; 'I' for Inactive)
REMARK    1  A    between atoms: C_2  and  C_18 
REMARK    2  A    between atoms: C_6  and  N_9 
REMARK    3  A    between atoms: C_12  and  C_15 
REMARK    4  A    between atoms: C_15  and  O_17 
REMARK       I    between atoms: C_18  and  N_20 
REMARK    5  A    between atoms: N_20  and  C_21 
REMARK    6  A    between atoms: C_24  and  C_39 
REMARK    7  A    between atoms: C_25  and  N_27 
REMARK    8  A    between atoms: N_30  and  C_33 
ROOT
HETATM    1  C   UNK N   1      25.600  16.745   5.083  0.00  0.00     0.255 C 
HETATM    2  N   UNK N   1      24.714  16.515   6.051  0.00  0.00    -0.357 N 
ATOM      3  HN  UNK N   1      24.779  16.935   6.978  1.00  0.00     0.162 HD
HETATM    4  C   UNK N   1      23.711  15.665   5.687  0.00  0.00     0.081 C 
HETATM    5  C   UNK N   1      23.862  15.105   4.392  0.00  0.00     0.099 C 
HETATM    6  S   UNK N   1      25.278  15.715   3.824  0.00  0.00    -0.064 SA
ENDROOT
BRANCH   1   7
HETATM    7  N   UNK N   1      25.794  18.111   4.745  0.00  0.00    -0.327 N 
HETATM    8  C   UNK N   1      27.016  18.634   4.614  0.00  0.00     0.255 C 
HETATM    9  O   UNK N   1      27.207  19.566   3.845  0.00  0.00    -0.268 OA
HETATM   10  H   UNK N   1      25.008  18.688   4.604  0.00  0.00     0.165 HD
BRANCH   8  11
HETATM   11  C   UNK N   1      28.063  18.114   5.439  0.00  0.00     0.049 A 
HETATM   12  C   UNK N   1      27.905  18.269   6.811  0.00  0.00     0.046 A 
HETATM   13  C   UNK N   1      28.818  17.741   7.682  0.00  0.00     0.079 A 
HETATM   14  C   UNK N   1      29.890  16.983   7.165  0.00  0.00     0.125 A 
HETATM   15 Cl   UNK N   1      28.547  18.064   9.395  0.00  0.00    -0.080 Cl
HETATM   16  N   UNK N   1      29.987  16.807   5.801  0.00  0.00    -0.350 N 
HETATM   17  C   UNK N   1      29.114  17.370   4.938  0.00  0.00     0.106 A 
ATOM     18  HN  UNK N   1      30.745  16.234   5.431  1.00  0.00     0.166 HD
BRANCH  14  19
HETATM   19  N   UNK N   1      30.930  16.476   7.988  0.00  0.00    -0.366 N 
HETATM   20  C   UNK N   1      31.835  15.519   7.411  0.00  0.00     0.125 C 
HETATM   21  C   UNK N   1      32.801  16.293   6.507  0.00  0.00     0.035 C 
HETATM   22  C   UNK N   1      33.449  17.483   7.254  0.00  0.00     0.087 C 
HETATM   23  C   UNK N   1      32.425  18.318   8.047  0.00  0.00     0.035 C 
HETATM   24  C   UNK N   1      31.549  17.401   8.904  0.00  0.00     0.125 C 
BRANCH  22  25
HETATM   25  C   UNK N   1      34.546  17.050   8.175  0.00  0.00     0.143 C 
HETATM   26  O   UNK N   1      35.012  15.928   8.065  0.00  0.00    -0.650 OA
BRANCH  25  27
HETATM   27  O   UNK N   1      35.028  17.884   9.116  0.00  0.00    -0.776 OA
HETATM   28  H   UNK N   1      34.968  18.813   9.219  0.00  0.00     0.167 HD
ENDBRANCH  25  27
ENDBRANCH  22  25
ENDBRANCH  14  19
ENDBRANCH   8  11
ENDBRANCH   1   7
BRANCH   4  29
HETATM   29  C   UNK N   1      22.491  15.775   6.484  0.00  0.00     0.035 A 
HETATM   30  C   UNK N   1      22.250  14.848   7.493  0.00  0.00     0.045 A 
HETATM   31  C   UNK N   1      21.203  15.216   8.350  0.00  0.00     0.042 A 
HETATM   32  C   UNK N   1      20.591  16.436   8.033  0.00  0.00     0.074 A 
HETATM   33 Cl   UNK N   1      20.814  14.245   9.751  0.00  0.00    -0.084 Cl
HETATM   34  S   UNK N   1      21.395  17.002   6.684  0.00  0.00    -0.098 SA
ENDBRANCH   4  29
BRANCH   5  35
HETATM   35  N   UNK N   1      22.792  14.850   3.504  0.00  0.00    -0.370 N 
HETATM   36  C   UNK N   1      22.090  13.608   3.813  0.00  0.00     0.154 C 
HETATM   37  C   UNK N   1      20.932  13.331   2.891  0.00  0.00     0.292 C 
HETATM   38  N   UNK N   1      21.096  14.124   1.689  0.00  0.00     0.096 N 
HETATM   39  C   UNK N   1      20.859  15.512   2.085  0.00  0.00     0.292 C 
HETATM   40  C   UNK N   1      22.000  15.976   3.014  0.00  0.00     0.154 C 
BRANCH  38  41
HETATM   41  C   UNK N   1      20.172  13.610   0.686  0.00  0.00     0.223 C 
HETATM   42  C   UNK N   1      18.900  14.475   0.748  0.00  0.00     0.036 C 
HETATM   43  C   UNK N   1      17.828  13.972  -0.202  0.00  0.00     0.002 C 
HETATM   44  C   UNK N   1      17.492  12.524   0.127  0.00  0.00     0.000 C 
HETATM   45  C   UNK N   1      18.745  11.665  -0.002  0.00  0.00     0.002 C 
HETATM   46  C   UNK N   1      19.803  12.152   0.978  0.00  0.00     0.036 C 
ENDBRANCH  38  41
ENDBRANCH   5  35
TORSDOF 8
ENDMDL
MODEL 5
REMARK VINA RESULT:      -8.3      5.982     13.878
REMARK  8 active torsions:
REMARK  status: ('A' for Active; 'I' for Inactive)
REMARK    1  A    between atoms: C_2  and  C_18 
REMARK    2  A    between atoms: C_6  and  N_9 
REMARK    3  A    between atoms: C_12  and  C_15 
REMARK    4  A    between atoms: C_15  and  O_17 
REMARK       I    between atoms: C_18  and  N_20 
REMARK    5  A    between atoms: N_20  and  C_21 
REMARK    6  A    between atoms: C_24  and  C_39 
REMARK    7  A    between atoms: C_25  and  N_27 
REMARK    8  A    between atoms: N_30  and  C_33 
ROOT
HETATM    1  C   UNK N   1      26.039  16.531   5.488  0.00  0.00     0.255 C 
HETATM    2  N   UNK N   1      25.256  16.002   6.427  0.00  0.00    -0.357 N 
ATOM      3  HN  UNK N   1      25.352  16.218   7.419  1.00  0.00     0.162 HD
HETATM    4  C   UNK N   1      24.311  15.147   5.939  0.00  0.00     0.081 C 
HETATM    5  C   UNK N   1      24.415  14.899   4.545  0.00  0.00     0.099 C 
HETATM    6  S   UNK N   1      25.719  15.767   4.051  0.00  0.00    -0.064 SA
ENDROOT
BRANCH   1   7
HETATM    7  N   UNK N   1      26.077  17.950   5.452  0.00  0.00    -0.327 N 
HETATM    8  C   UNK N   1      27.189  18.614   5.127  0.00  0.00     0.255 C 
HETATM    9  O   UNK N   1      27.117  19.707   4.584  0.00  0.00    -0.268 OA
HETATM   10  H   UNK N   1      25.263  18.459   5.672  0.00  0.00     0.165 HD
BRANCH   8  11
HETATM   11  C   UNK N   1      28.448  18.035   5.487  0.00  0.00     0.049 A 
HETATM   12  C   UNK N   1      29.329  17.774   4.445  0.00  0.00     0.046 A 
HETATM   13  C   UNK N   1      30.583  17.289   4.697  0.00  0.00     0.079 A 
HETATM   14  C   UNK N   1      30.987  17.116   6.039  0.00  0.00     0.125 A 
HETATM   15 Cl   UNK N   1      31.585  16.931   3.290  0.00  0.00    -0.080 Cl
HETATM   16  N   UNK N   1      30.103  17.433   7.048  0.00  0.00    -0.350 N 
HETATM   17  C   UNK N   1      28.848  17.865   6.798  0.00  0.00     0.106 A 
ATOM     18  HN  UNK N   1      30.407  17.336   8.016  1.00  0.00     0.166 HD
BRANCH  14  19
HETATM   19  N   UNK N   1      32.233  16.534   6.389  0.00  0.00    -0.366 N 
HETATM   20  C   UNK N   1      33.359  17.413   6.555  0.00  0.00     0.125 C 
HETATM   21  C   UNK N   1      33.198  18.109   7.911  0.00  0.00     0.035 C 
HETATM   22  C   UNK N   1      32.953  17.088   9.048  0.00  0.00     0.087 C 
HETATM   23  C   UNK N   1      31.893  16.032   8.683  0.00  0.00     0.035 C 
HETATM   24  C   UNK N   1      32.203  15.426   7.312  0.00  0.00     0.125 C 
BRANCH  22  25
HETATM   25  C   UNK N   1      34.209  16.395   9.474  0.00  0.00     0.143 C 
HETATM   26  O   UNK N   1      34.134  15.327  10.058  0.00  0.00    -0.650 OA
BRANCH  25  27
HETATM   27  O   UNK N   1      35.417  16.931   9.213  0.00  0.00    -0.776 OA
HETATM   28  H   UNK N   1      35.819  17.209   8.415  0.00  0.00     0.167 HD
ENDBRANCH  25  27
ENDBRANCH  22  25
ENDBRANCH  14  19
ENDBRANCH   8  11
ENDBRANCH   1   7
BRANCH   4  29
HETATM   29  C   UNK N   1      23.152  14.949   6.806  0.00  0.00     0.035 A 
HETATM   30  C   UNK N   1      22.154  15.917   6.839  0.00  0.00     0.045 A 
HETATM   31  C   UNK N   1      20.986  15.493   7.488  0.00  0.00     0.042 A 
HETATM   32  C   UNK N   1      21.038  14.183   7.986  0.00  0.00     0.074 A 
HETATM   33 Cl   UNK N   1      19.571  16.518   7.540  0.00  0.00    -0.084 Cl
HETATM   34  S   UNK N   1      22.557  13.616   7.588  0.00  0.00    -0.098 SA
ENDBRANCH   4  29
BRANCH   5  35
HETATM   35  N   UNK N   1      23.308  14.726   3.683  0.00  0.00    -0.370 N 
HETATM   36  C   UNK N   1      22.613  13.463   3.907  0.00  0.00     0.154 C 
HETATM   37  C   UNK N   1      21.417  13.271   3.012  0.00  0.00     0.292 C 
HETATM   38  N   UNK N   1      21.536  14.170   1.880  0.00  0.00     0.096 N 
HETATM   39  C   UNK N   1      21.321  15.516   2.410  0.00  0.00     0.292 C 
HETATM   40  C   UNK N   1      22.502  15.893   3.329  0.00  0.00     0.154 C 
BRANCH  38  41
HETATM   41  C   UNK N   1      20.569  13.749   0.874  0.00  0.00     0.223 C 
HETATM   42  C   UNK N   1      19.375  14.717   0.952  0.00  0.00     0.036 C 
HETATM   43  C   UNK N   1      18.262  14.320  -0.001  0.00  0.00     0.002 C 
HETATM   44  C   UNK N   1      17.806  12.902   0.310  0.00  0.00     0.000 C 
HETATM   45  C   UNK N   1      18.980  11.941   0.165  0.00  0.00     0.002 C 
HETATM   46  C   UNK N   1      20.078  12.323   1.148  0.00  0.00     0.036 C 
ENDBRANCH  38  41
ENDBRANCH   5  35
TORSDOF 8
ENDMDL
MODEL 6
REMARK VINA RESULT:      -8.2      6.193     13.396
REMARK  8 active torsions:
REMARK  status: ('A' for Active; 'I' for Inactive)
REMARK    1  A    between atoms: C_2  and  C_18 
REMARK    2  A    between atoms: C_6  and  N_9 
REMARK    3  A    between atoms: C_12  and  C_15 
REMARK    4  A    between atoms: C_15  and  O_17 
REMARK       I    between atoms: C_18  and  N_20 
REMARK    5  A    between atoms: N_20  and  C_21 
REMARK    6  A    between atoms: C_24  and  C_39 
REMARK    7  A    between atoms: C_25  and  N_27 
REMARK    8  A    between atoms: N_30  and  C_33 
ROOT
HETATM    1  C   UNK N   1      26.039  16.284   5.766  0.00  0.00     0.255 C 
HETATM    2  N   UNK N   1      25.416  15.642   6.754  0.00  0.00    -0.357 N 
ATOM      3  HN  UNK N   1      25.523  15.892   7.736  1.00  0.00     0.162 HD
HETATM    4  C   UNK N   1      24.622  14.617   6.328  0.00  0.00     0.081 C 
HETATM    5  C   UNK N   1      24.696  14.362   4.934  0.00  0.00     0.099 C 
HETATM    6  S   UNK N   1      25.791  15.443   4.358  0.00  0.00    -0.064 SA
ENDROOT
BRANCH   1   7
HETATM    7  N   UNK N   1      25.813  17.685   5.711  0.00  0.00    -0.327 N 
HETATM    8  C   UNK N   1      26.813  18.550   5.523  0.00  0.00     0.255 C 
HETATM    9  O   UNK N   1      26.608  19.614   4.957  0.00  0.00    -0.268 OA
HETATM   10  H   UNK N   1      24.895  18.028   5.814  0.00  0.00     0.165 HD
BRANCH   8  11
HETATM   11  C   UNK N   1      28.099  18.217   6.055  0.00  0.00     0.049 A 
HETATM   12  C   UNK N   1      28.252  18.345   7.430  0.00  0.00     0.046 A 
HETATM   13  C   UNK N   1      29.422  17.982   8.038  0.00  0.00     0.079 A 
HETATM   14  C   UNK N   1      30.450  17.417   7.251  0.00  0.00     0.125 A 
HETATM   15 Cl   UNK N   1      29.522  18.256   9.777  0.00  0.00    -0.080 Cl
HETATM   16  N   UNK N   1      30.243  17.258   5.898  0.00  0.00    -0.350 N 
HETATM   17  C   UNK N   1      29.107  17.663   5.290  0.00  0.00     0.106 A 
ATOM     18  HN  UNK N   1      30.974  16.822   5.336  1.00  0.00     0.166 HD
BRANCH  14  19
HETATM   19  N   UNK N   1      31.726  17.096   7.783  0.00  0.00    -0.366 N 
HETATM   20  C   UNK N   1      31.928  15.763   8.284  0.00  0.00     0.125 C 
HETATM   21  C   UNK N   1      32.099  14.842   7.072  0.00  0.00     0.035 C 
HETATM   22  C   UNK N   1      33.176  15.377   6.099  0.00  0.00     0.087 C 
HETATM   23  C   UNK N   1      33.022  16.882   5.807  0.00  0.00     0.035 C 
HETATM   24  C   UNK N   1      32.874  17.660   7.116  0.00  0.00     0.125 C 
BRANCH  22  25
HETATM   25  C   UNK N   1      34.566  15.113   6.584  0.00  0.00     0.143 C 
HETATM   26  O   UNK N   1      35.502  15.703   6.070  0.00  0.00    -0.650 OA
BRANCH  25  27
HETATM   27  O   UNK N   1      34.795  14.240   7.584  0.00  0.00    -0.776 OA
HETATM   28  H   UNK N   1      34.866  13.306   7.596  0.00  0.00     0.167 HD
ENDBRANCH  25  27
ENDBRANCH  22  25
ENDBRANCH  14  19
ENDBRANCH   8  11
ENDBRANCH   1   7
BRANCH   4  29
HETATM   29  C   UNK N   1      23.565  14.229   7.260  0.00  0.00     0.035 A 
HETATM   30  C   UNK N   1      23.882  13.432   8.355  0.00  0.00     0.045 A 
HETATM   31  C   UNK N   1      22.854  13.358   9.306  0.00  0.00     0.042 A 
HETATM   32  C   UNK N   1      21.703  14.089   8.981  0.00  0.00     0.074 A 
HETATM   33 Cl   UNK N   1      23.091  12.500  10.811  0.00  0.00    -0.084 Cl
HETATM   34  S   UNK N   1      22.029  14.799   7.505  0.00  0.00    -0.098 SA
ENDBRANCH   4  29
BRANCH   5  35
HETATM   35  N   UNK N   1      23.597  13.970   4.136  0.00  0.00    -0.370 N 
HETATM   36  C   UNK N   1      23.025  15.081   3.382  0.00  0.00     0.154 C 
HETATM   37  C   UNK N   1      21.866  14.678   2.509  0.00  0.00     0.292 C 
HETATM   38  N   UNK N   1      21.350  13.407   2.981  0.00  0.00     0.096 N 
HETATM   39  C   UNK N   1      22.364  12.409   2.642  0.00  0.00     0.292 C 
HETATM   40  C   UNK N   1      23.625  12.657   3.497  0.00  0.00     0.154 C 
BRANCH  38  41
HETATM   41  C   UNK N   1      20.051  13.195   2.355  0.00  0.00     0.223 C 
HETATM   42  C   UNK N   1      19.915  11.686   2.085  0.00  0.00     0.036 C 
HETATM   43  C   UNK N   1      18.625  11.358   1.352  0.00  0.00     0.002 C 
HETATM   44  C   UNK N   1      18.571  12.131   0.042  0.00  0.00     0.000 C 
HETATM   45  C   UNK N   1      18.640  13.627   0.326  0.00  0.00     0.002 C 
HETATM   46  C   UNK N   1      19.951  13.955   1.029  0.00  0.00     0.036 C 
ENDBRANCH  38  41
ENDBRANCH   5  35
TORSDOF 8
ENDMDL
MODEL 7
REMARK VINA RESULT:      -8.2      4.451     11.574
REMARK  8 active torsions:
REMARK  status: ('A' for Active; 'I' for Inactive)
REMARK    1  A    between atoms: C_2  and  C_18 
REMARK    2  A    between atoms: C_6  and  N_9 
REMARK    3  A    between atoms: C_12  and  C_15 
REMARK    4  A    between atoms: C_15  and  O_17 
REMARK       I    between atoms: C_18  and  N_20 
REMARK    5  A    between atoms: N_20  and  C_21 
REMARK    6  A    between atoms: C_24  and  C_39 
REMARK    7  A    between atoms: C_25  and  N_27 
REMARK    8  A    between atoms: N_30  and  C_33 
ROOT
HETATM    1  C   UNK N   1      30.785  15.149   4.453  0.00  0.00     0.255 C 
HETATM    2  N   UNK N   1      30.470  15.813   5.565  0.00  0.00    -0.357 N 
ATOM      3  HN  UNK N   1      31.163  16.265   6.160  1.00  0.00     0.162 HD
HETATM    4  C   UNK N   1      29.132  15.831   5.833  0.00  0.00     0.081 C 
HETATM    5  C   UNK N   1      28.348  15.052   4.943  0.00  0.00     0.099 C 
HETATM    6  S   UNK N   1      29.425  14.377   3.902  0.00  0.00    -0.064 SA
ENDROOT
BRANCH   1   7
HETATM    7  N   UNK N   1      31.524  15.888   3.491  0.00  0.00    -0.327 N 
HETATM    8  C   UNK N   1      32.859  15.877   3.473  0.00  0.00     0.255 C 
HETATM    9  O   UNK N   1      33.462  16.025   2.419  0.00  0.00    -0.268 OA
HETATM   10  H   UNK N   1      31.040  16.421   2.819  0.00  0.00     0.165 HD
BRANCH   8  11
HETATM   11  C   UNK N   1      33.548  15.749   4.721  0.00  0.00     0.049 A 
HETATM   12  C   UNK N   1      33.535  16.863   5.551  0.00  0.00     0.046 A 
HETATM   13  C   UNK N   1      34.105  16.813   6.794  0.00  0.00     0.079 A 
HETATM   14  C   UNK N   1      34.651  15.590   7.242  0.00  0.00     0.125 A 
HETATM   15 Cl   UNK N   1      34.088  18.310   7.727  0.00  0.00    -0.080 Cl
HETATM   16  N   UNK N   1      34.601  14.493   6.410  0.00  0.00    -0.350 N 
HETATM   17  C   UNK N   1      34.083  14.555   5.165  0.00  0.00     0.106 A 
ATOM     18  HN  UNK N   1      34.969  13.603   6.747  1.00  0.00     0.166 HD
BRANCH  14  19
HETATM   19  N   UNK N   1      35.340  15.473   8.477  0.00  0.00    -0.366 N 
HETATM   20  C   UNK N   1      34.663  15.915   9.666  0.00  0.00     0.125 C 
HETATM   21  C   UNK N   1      33.634  14.840  10.031  0.00  0.00     0.035 C 
HETATM   22  C   UNK N   1      34.278  13.435  10.094  0.00  0.00     0.087 C 
HETATM   23  C   UNK N   1      35.186  13.140   8.884  0.00  0.00     0.035 C 
HETATM   24  C   UNK N   1      36.159  14.300   8.661  0.00  0.00     0.125 C 
BRANCH  22  25
HETATM   25  C   UNK N   1      35.055  13.218  11.353  0.00  0.00     0.143 C 
HETATM   26  O   UNK N   1      36.059  12.525  11.326  0.00  0.00    -0.650 OA
BRANCH  25  27
HETATM   27  O   UNK N   1      34.667  13.784  12.512  0.00  0.00    -0.776 OA
HETATM   28  H   UNK N   1      35.150  14.199  13.198  0.00  0.00     0.167 HD
ENDBRANCH  25  27
ENDBRANCH  22  25
ENDBRANCH  14  19
ENDBRANCH   8  11
ENDBRANCH   1   7
BRANCH   4  29
HETATM   29  C   UNK N   1      28.693  16.922   6.702  0.00  0.00     0.035 A 
HETATM   30  C   UNK N   1      29.335  17.124   7.919  0.00  0.00     0.045 A 
HETATM   31  C   UNK N   1      29.010  18.346   8.525  0.00  0.00     0.042 A 
HETATM   32  C   UNK N   1      28.102  19.132   7.803  0.00  0.00     0.074 A 
HETATM   33 Cl   UNK N   1      29.796  18.844  10.005  0.00  0.00    -0.084 Cl
HETATM   34  S   UNK N   1      27.744  18.252   6.430  0.00  0.00    -0.098 SA
ENDBRANCH   4  29
BRANCH   5  35
HETATM   35  N   UNK N   1      27.056  15.412   4.494  0.00  0.00    -0.370 N 
HETATM   36  C   UNK N   1      27.085  16.167   3.246  0.00  0.00     0.154 C 
HETATM   37  C   UNK N   1      25.716  16.541   2.741  0.00  0.00     0.292 C 
HETATM   38  N   UNK N   1      24.774  16.443   3.839  0.00  0.00     0.096 N 
HETATM   39  C   UNK N   1      24.629  15.015   4.121  0.00  0.00     0.292 C 
HETATM   40  C   UNK N   1      25.954  14.475   4.698  0.00  0.00     0.154 C 
BRANCH  38  41
HETATM   41  C   UNK N   1      23.546  17.113   3.433  0.00  0.00     0.223 C 
HETATM   42  C   UNK N   1      23.628  18.565   3.936  0.00  0.00     0.036 C 
HETATM   43  C   UNK N   1      22.355  19.339   3.640  0.00  0.00     0.002 C 
HETATM   44  C   UNK N   1      21.168  18.631   4.277  0.00  0.00     0.000 C 
HETATM   45  C   UNK N   1      21.056  17.216   3.722  0.00  0.00     0.002 C 
HETATM   46  C   UNK N   1      22.320  16.435   4.053  0.00  0.00     0.036 C 
ENDBRANCH  38  41
ENDBRANCH   5  35
TORSDOF 8
ENDMDL
MODEL 8
REMARK VINA RESULT:      -8.1      5.909     13.744
REMARK  8 active torsions:
REMARK  status: ('A' for Active; 'I' for Inactive)
REMARK    1  A    between atoms: C_2  and  C_18 
REMARK    2  A    between atoms: C_6  and  N_9 
REMARK    3  A    between atoms: C_12  and  C_15 
REMARK    4  A    between atoms: C_15  and  O_17 
REMARK       I    between atoms: C_18  and  N_20 
REMARK    5  A    between atoms: N_20  and  C_21 
REMARK    6  A    between atoms: C_24  and  C_39 
REMARK    7  A    between atoms: C_25  and  N_27 
REMARK    8  A    between atoms: N_30  and  C_33 
ROOT
HETATM    1  C   UNK N   1      27.240  15.370   4.133  0.00  0.00     0.255 C 
HETATM    2  N   UNK N   1      26.276  15.975   4.827  0.00  0.00    -0.357 N 
ATOM      3  HN  UNK N   1      26.433  16.816   5.381  1.00  0.00     0.162 HD
HETATM    4  C   UNK N   1      25.059  15.366   4.724  0.00  0.00     0.081 C 
HETATM    5  C   UNK N   1      25.076  14.150   3.993  0.00  0.00     0.099 C 
HETATM    6  S   UNK N   1      26.646  13.931   3.560  0.00  0.00    -0.064 SA
ENDROOT
BRANCH   1   7
HETATM    7  N   UNK N   1      27.923  16.188   3.194  0.00  0.00    -0.327 N 
HETATM    8  C   UNK N   1      29.243  16.377   3.259  0.00  0.00     0.255 C 
HETATM    9  O   UNK N   1      29.885  16.590   2.240  0.00  0.00    -0.268 OA
HETATM   10  H   UNK N   1      27.410  16.627   2.477  0.00  0.00     0.165 HD
BRANCH   8  11
HETATM   11  C   UNK N   1      29.860  16.384   4.551  0.00  0.00     0.049 A 
HETATM   12  C   UNK N   1      29.360  17.298   5.470  0.00  0.00     0.046 A 
HETATM   13  C   UNK N   1      29.837  17.329   6.751  0.00  0.00     0.079 A 
HETATM   14  C   UNK N   1      30.802  16.374   7.140  0.00  0.00     0.125 A 
HETATM   15 Cl   UNK N   1      29.176  18.579   7.805  0.00  0.00    -0.080 Cl
HETATM   16  N   UNK N   1      31.237  15.450   6.215  0.00  0.00    -0.350 N 
HETATM   17  C   UNK N   1      30.803  15.451   4.937  0.00  0.00     0.106 A 
ATOM     18  HN  UNK N   1      31.911  14.743   6.506  1.00  0.00     0.166 HD
BRANCH  14  19
HETATM   19  N   UNK N   1      31.415  16.391   8.421  0.00  0.00    -0.366 N 
HETATM   20  C   UNK N   1      32.068  15.190   8.866  0.00  0.00     0.125 C 
HETATM   21  C   UNK N   1      33.405  15.095   8.124  0.00  0.00     0.035 C 
HETATM   22  C   UNK N   1      34.220  16.404   8.252  0.00  0.00     0.087 C 
HETATM   23  C   UNK N   1      33.372  17.663   7.990  0.00  0.00     0.035 C 
HETATM   24  C   UNK N   1      32.082  17.609   8.811  0.00  0.00     0.125 C 
BRANCH  22  25
HETATM   25  C   UNK N   1      34.888  16.532   9.584  0.00  0.00     0.143 C 
HETATM   26  O   UNK N   1      34.979  15.553  10.305  0.00  0.00    -0.650 OA
BRANCH  25  27
HETATM   27  O   UNK N   1      35.397  17.711   9.992  0.00  0.00    -0.776 OA
HETATM   28  H   UNK N   1      36.173  18.175   9.748  0.00  0.00     0.167 HD
ENDBRANCH  25  27
ENDBRANCH  22  25
ENDBRANCH  14  19
ENDBRANCH   8  11
ENDBRANCH   1   7
BRANCH   4  29
HETATM   29  C   UNK N   1      23.914  16.225   5.018  0.00  0.00     0.035 A 
HETATM   30  C   UNK N   1      22.982  15.816   5.966  0.00  0.00     0.045 A 
HETATM   31  C   UNK N   1      22.094  16.831   6.349  0.00  0.00     0.042 A 
HETATM   32  C   UNK N   1      22.304  18.062   5.711  0.00  0.00     0.074 A 
HETATM   33 Cl   UNK N   1      20.917  16.557   7.613  0.00  0.00    -0.084 Cl
HETATM   34  S   UNK N   1      23.599  17.817   4.686  0.00  0.00    -0.098 SA
ENDBRANCH   4  29
BRANCH   5  35
HETATM   35  N   UNK N   1      24.037  13.720   3.136  0.00  0.00    -0.370 N 
HETATM   36  C   UNK N   1      24.216  14.176   1.762  0.00  0.00     0.154 C 
HETATM   37  C   UNK N   1      23.130  13.710   0.830  0.00  0.00     0.292 C 
HETATM   38  N   UNK N   1      21.979  13.316   1.620  0.00  0.00     0.096 N 
HETATM   39  C   UNK N   1      22.361  12.081   2.303  0.00  0.00     0.292 C 
HETATM   40  C   UNK N   1      23.456  12.396   3.344  0.00  0.00     0.154 C 
BRANCH  38  41
HETATM   41  C   UNK N   1      20.842  13.187   0.716  0.00  0.00     0.223 C 
HETATM   42  C   UNK N   1      19.867  14.333   1.041  0.00  0.00     0.036 C 
HETATM   43  C   UNK N   1      18.598  14.247   0.212  0.00  0.00     0.002 C 
HETATM   44  C   UNK N   1      17.924  12.903   0.449  0.00  0.00     0.000 C 
HETATM   45  C   UNK N   1      18.874  11.776   0.062  0.00  0.00     0.002 C 
HETATM   46  C   UNK N   1      20.129  11.847   0.921  0.00  0.00     0.036 C 
ENDBRANCH  38  41
ENDBRANCH   5  35
TORSDOF 8
ENDMDL
MODEL 9
REMARK VINA RESULT:      -8.0      6.940     12.542
REMARK  8 active torsions:
REMARK  status: ('A' for Active; 'I' for Inactive)
REMARK    1  A    between atoms: C_2  and  C_18 
REMARK    2  A    between atoms: C_6  and  N_9 
REMARK    3  A    between atoms: C_12  and  C_15 
REMARK    4  A    between atoms: C_15  and  O_17 
REMARK       I    between atoms: C_18  and  N_20 
REMARK    5  A    between atoms: N_20  and  C_21 
REMARK    6  A    between atoms: C_24  and  C_39 
REMARK    7  A    between atoms: C_25  and  N_27 
REMARK    8  A    between atoms: N_30  and  C_33 
ROOT
HETATM    1  C   UNK N   1      25.939  14.640   6.890  0.00  0.00     0.255 C 
HETATM    2  N   UNK N   1      25.369  14.220   8.019  0.00  0.00    -0.357 N 
ATOM      3  HN  UNK N   1      25.351  14.774   8.874  1.00  0.00     0.162 HD
HETATM    4  C   UNK N   1      24.812  12.978   7.924  0.00  0.00     0.081 C 
HETATM    5  C   UNK N   1      25.039  12.330   6.682  0.00  0.00     0.099 C 
HETATM    6  S   UNK N   1      25.959  13.379   5.814  0.00  0.00    -0.064 SA
ENDROOT
BRANCH   1   7
HETATM    7  N   UNK N   1      25.465  15.884   6.394  0.00  0.00    -0.327 N 
HETATM    8  C   UNK N   1      26.277  16.748   5.779  0.00  0.00     0.255 C 
HETATM    9  O   UNK N   1      25.839  17.500   4.920  0.00  0.00    -0.268 OA
HETATM   10  H   UNK N   1      24.515  16.115   6.506  0.00  0.00     0.165 HD
BRANCH   8  11
HETATM   11  C   UNK N   1      27.644  16.804   6.200  0.00  0.00     0.049 A 
HETATM   12  C   UNK N   1      27.892  17.429   7.416  0.00  0.00     0.046 A 
HETATM   13  C   UNK N   1      29.157  17.468   7.935  0.00  0.00     0.079 A 
HETATM   14  C   UNK N   1      30.195  16.808   7.242  0.00  0.00     0.125 A 
HETATM   15 Cl   UNK N   1      29.358  18.350   9.449  0.00  0.00    -0.080 Cl
HETATM   16  N   UNK N   1      29.902  16.155   6.064  0.00  0.00    -0.350 N 
HETATM   17  C   UNK N   1      28.663  16.159   5.527  0.00  0.00     0.106 A 
ATOM     18  HN  UNK N   1      30.647  15.653   5.581  1.00  0.00     0.166 HD
BRANCH  14  19
HETATM   19  N   UNK N   1      31.550  16.874   7.661  0.00  0.00    -0.366 N 
HETATM   20  C   UNK N   1      32.037  15.829   8.520  0.00  0.00     0.125 C 
HETATM   21  C   UNK N   1      32.271  14.592   7.646  0.00  0.00     0.035 C 
HETATM   22  C   UNK N   1      33.142  14.925   6.412  0.00  0.00     0.087 C 
HETATM   23  C   UNK N   1      32.687  16.206   5.688  0.00  0.00     0.035 C 
HETATM   24  C   UNK N   1      32.512  17.345   6.695  0.00  0.00     0.125 C 
BRANCH  22  25
HETATM   25  C   UNK N   1      34.594  15.044   6.753  0.00  0.00     0.143 C 
HETATM   26  O   UNK N   1      35.022  14.488   7.751  0.00  0.00    -0.650 OA
BRANCH  25  27
HETATM   27  O   UNK N   1      35.433  15.749   5.969  0.00  0.00    -0.776 OA
HETATM   28  H   UNK N   1      35.280  16.417   5.331  0.00  0.00     0.167 HD
ENDBRANCH  25  27
ENDBRANCH  22  25
ENDBRANCH  14  19
ENDBRANCH   8  11
ENDBRANCH   1   7
BRANCH   4  29
HETATM   29  C   UNK N   1      23.774  12.692   8.913  0.00  0.00     0.035 A 
HETATM   30  C   UNK N   1      24.144  12.272  10.186  0.00  0.00     0.045 A 
HETATM   31  C   UNK N   1      23.089  12.294  11.109  0.00  0.00     0.042 A 
HETATM   32  C   UNK N   1      21.863  12.725  10.583  0.00  0.00     0.074 A 
HETATM   33 Cl   UNK N   1      23.367  11.912  12.792  0.00  0.00    -0.084 Cl
HETATM   34  S   UNK N   1      22.160  13.060   8.975  0.00  0.00    -0.098 SA
ENDBRANCH   4  29
BRANCH   5  35
HETATM   35  N   UNK N   1      24.096  11.504   6.029  0.00  0.00    -0.370 N 
HETATM   36  C   UNK N   1      23.006  12.264   5.425  0.00  0.00     0.154 C 
HETATM   37  C   UNK N   1      22.002  11.402   4.705  0.00  0.00     0.292 C 
HETATM   38  N   UNK N   1      22.140  10.038   5.178  0.00  0.00     0.096 N 
HETATM   39  C   UNK N   1      23.413   9.552   4.645  0.00  0.00     0.292 C 
HETATM   40  C   UNK N   1      24.570  10.316   5.324  0.00  0.00     0.154 C 
BRANCH  38  41
HETATM   41  C   UNK N   1      20.969   9.293   4.733  0.00  0.00     0.223 C 
HETATM   42  C   UNK N   1      19.729  10.127   5.102  0.00  0.00     0.036 C 
HETATM   43  C   UNK N   1      18.439   9.403   4.758  0.00  0.00     0.002 C 
HETATM   44  C   UNK N   1      18.400   8.062   5.478  0.00  0.00     0.000 C 
HETATM   45  C   UNK N   1      19.597   7.217   5.056  0.00  0.00     0.002 C 
HETATM   46  C   UNK N   1      20.886   7.933   5.434  0.00  0.00     0.036 C 
ENDBRANCH  38  41
ENDBRANCH   5  35
TORSDOF 8
ENDMDL
