REMARK  3 active torsions:
REMARK  status: ('A' for Active; 'I' for Inactive)
REMARK    1  A    between atoms: C_5  and  N_18 
REMARK    2  A    between atoms: C_7  and  C_8 
REMARK       I    between atoms: N_18  and  C_19 
REMARK       I    between atoms: C_19  and  N_21 
REMARK    3  A    between atoms: N_21  and  C_22 
ROOT
HETATM    1  C   UNK N   1      -1.933   3.798  -0.545  0.00  0.00     0.036 A 
HETATM    2  C   UNK N   1      -2.305   5.007   0.024  0.00  0.00     0.031 A 
HETATM    3  C   UNK N   1      -1.360   5.999   0.233  0.00  0.00     0.025 A 
HETATM    4  C   UNK N   1      -0.034   5.787  -0.122  0.00  0.00     0.044 A 
HETATM    5  C   UNK N   1       0.352   4.606  -0.769  0.00  0.00     0.025 A 
HETATM    6  C   UNK N   1      -0.597   3.603  -0.976  0.00  0.00     0.031 A 
HETATM    7  C   UNK N   1       0.930   6.779   0.205  0.00  0.00     0.099 C 
HETATM    8  N   UNK N   1       1.736   7.566   0.457  0.00  0.00    -0.191 NA
ENDROOT
BRANCH   1   9
HETATM    9  N   UNK N   1      -2.827   2.700  -0.439  0.00  0.00    -0.309 N 
HETATM   10  C   UNK N   1      -2.403   1.578   0.193  0.00  0.00     0.321 C 
HETATM   11  N   UNK N   1      -3.103   0.417   0.123  0.00  0.00    -0.338 N 
HETATM   12  O   UNK N   1      -1.322   1.585   0.776  0.00  0.00    -0.247 OA
HETATM   13  H   UNK N   1      -4.051   0.389  -0.140  0.00  0.00     0.164 HD
HETATM   14  H   UNK N   1      -3.735   2.753  -0.816  0.00  0.00     0.170 HD
BRANCH  11  15
HETATM   15  C   UNK N   1      -2.359  -0.773   0.463  0.00  0.00     0.090 C 
HETATM   16  C   UNK N   1      -3.157  -2.045   0.665  0.00  0.00     0.055 C 
HETATM   17  C   UNK N   1      -2.265  -3.315   0.574  0.00  0.00     0.275 C 
HETATM   18  N   UNK N   1      -0.794  -3.125   0.525  0.00  0.00     0.096 NA
HETATM   19  C   UNK N   1      -0.327  -4.249  -0.275  0.00  0.00     0.310 C 
HETATM   20  C   UNK N   1      -0.342  -1.952  -0.243  0.00  0.00     0.291 C 
HETATM   21  C   UNK N   1      -1.376  -0.963  -0.658  0.00  0.00     0.069 C 
BRANCH  20  22
HETATM   22  C   UNK N   1       1.085  -1.499  -0.075  0.00  0.00     0.116 A 
HETATM   23  N   UNK N   1       1.507  -0.202  -0.009  0.00  0.00    -0.342 N 
HETATM   24  C   UNK N   1       2.845  -0.311   0.103  0.00  0.00     0.060 A 
HETATM   25  H   UNK N   1       0.963   0.618  -0.037  0.00  0.00     0.167 HD
HETATM   26  C   UNK N   1       3.801   0.700   0.203  0.00  0.00     0.032 A 
HETATM   27  C   UNK N   1       3.195  -1.626   0.094  0.00  0.00     0.060 A 
HETATM   28  C   UNK N   1       5.155   0.306   0.284  0.00  0.00     0.002 A 
HETATM   29  C   UNK N   1       5.507  -1.066   0.277  0.00  0.00     0.002 A 
HETATM   30  C   UNK N   1       4.511  -2.053   0.186  0.00  0.00     0.032 A 
HETATM   31  N   UNK N   1       2.105  -2.386  -0.026  0.00  0.00    -0.342 N 
ATOM     32  HN  UNK N   1       2.054  -3.404  -0.071  1.00  0.00     0.167 HD
ENDBRANCH  20  22
ENDBRANCH  11  15
ENDBRANCH   1   9
TORSDOF 3
