MODEL 1
REMARK VINA RESULT:      -7.4      0.000      0.000
REMARK  16 active torsions:
REMARK  status: ('A' for Active; 'I' for Inactive)
REMARK    1  A    between atoms: C_2  and  N_30 
REMARK       I    between atoms: C_5  and  N_10 
REMARK    2  A    between atoms: C_8  and  N_9 
REMARK    3  A    between atoms: N_10  and  C_11 
REMARK    4  A    between atoms: C_12  and  C_11 
REMARK    5  A    between atoms: C_15  and  C_18 
REMARK    6  A    between atoms: C_18  and  N_19 
REMARK    7  A    between atoms: N_19  and  C_20 
REMARK    8  A    between atoms: C_20  and  C_21 
REMARK    9  A    between atoms: C_21  and  C_22 
REMARK   10  A    between atoms: C_22  and  N_23 
REMARK   11  A    between atoms: N_23  and  C_24 
REMARK   12  A    between atoms: N_33  and  C_36 
REMARK   13  A    between atoms: C_36  and  C_37 
REMARK   14  A    between atoms: C_37  and  P_38 
REMARK   15  A    between atoms: P_38  and  O_40 
REMARK   16  A    between atoms: P_38  and  O_41 
ROOT
HETATM    1  C   UNK N   1      23.294  13.911   7.899  0.00  0.00     0.097 A 
HETATM    2  C   UNK N   1      22.937  14.370   6.626  0.00  0.00     0.122 A 
HETATM    3  N   UNK N   1      23.896  14.490   5.675  0.00  0.00    -0.177 N 
ATOM      4  HN  UNK N   1      23.634  14.807   4.741  1.00  0.00     0.185 HD
HETATM    5  C   UNK N   1      25.192  14.200   5.935  0.00  0.00     0.681 A 
HETATM    6  N   UNK N   1      25.565  13.789   7.175  0.00  0.00    -0.177 N 
ATOM      7  HN  UNK N   1      26.549  13.606   7.374  1.00  0.00     0.185 HD
HETATM    8  C   UNK N   1      24.635  13.619   8.153  0.00  0.00     0.118 A 
HETATM    9  N   UNK N   1      26.155  14.483   4.947  0.00  0.00    -0.226 N 
HETATM   10  H   UNK N   1      26.165  13.967   4.108  0.00  0.00     0.177 HD
ENDROOT
BRANCH   9  11
HETATM   11  C   UNK N   1      27.128  15.526   5.160  0.00  0.00     0.142 C 
BRANCH  11  12
HETATM   12  C   UNK N   1      27.239  16.440   3.924  0.00  0.00     0.004 C 
HETATM   13  C   UNK N   1      28.635  17.058   3.707  0.00  0.00     0.007 C 
HETATM   14  C   UNK N   1      28.936  18.135   4.742  0.00  0.00     0.007 C 
HETATM   15  C   UNK N   1      27.830  19.196   4.810  0.00  0.00     0.003 C 
HETATM   16  C   UNK N   1      26.655  18.932   3.851  0.00  0.00     0.007 C 
HETATM   17  C   UNK N   1      26.129  17.493   3.952  0.00  0.00     0.007 C 
BRANCH  15  18
HETATM   18  C   UNK N   1      27.384  19.425   6.251  0.00  0.00     0.118 C 
BRANCH  18  19
HETATM   19  N   UNK N   1      27.867  18.366   7.124  0.00  0.00    -0.421 N 
HETATM   20  H   UNK N   1      28.124  17.420   6.839  0.00  0.00     0.153 HD
BRANCH  19  21
HETATM   21  C   UNK N   1      27.917  18.897   8.475  0.00  0.00     0.115 C 
BRANCH  21  22
HETATM   22  C   UNK N   1      28.890  18.090   9.317  0.00  0.00     0.038 C 
BRANCH  22  23
HETATM   23  C   UNK N   1      30.323  18.368   8.893  0.00  0.00     0.115 C 
BRANCH  23  24
HETATM   24  N   UNK N   1      31.161  17.261   9.323  0.00  0.00    -0.417 N 
HETATM   25  H   UNK N   1      31.103  16.811  10.237  0.00  0.00     0.153 HD
BRANCH  24  26
HETATM   26  C   UNK N   1      32.097  16.878   8.268  0.00  0.00     0.076 C 
HETATM   27  C   UNK N   1      33.216  17.919   8.095  0.00  0.00     0.024 C 
HETATM   28  C   UNK N   1      34.129  17.543   6.937  0.00  0.00     0.002 C 
HETATM   29  C   UNK N   1      33.313  17.485   5.653  0.00  0.00     0.000 C 
HETATM   30  C   UNK N   1      32.215  16.434   5.787  0.00  0.00     0.002 C 
HETATM   31  C   UNK N   1      31.304  16.765   6.966  0.00  0.00     0.024 C 
ENDBRANCH  24  26
ENDBRANCH  23  24
ENDBRANCH  22  23
ENDBRANCH  21  22
ENDBRANCH  19  21
ENDBRANCH  18  19
ENDBRANCH  15  18
ENDBRANCH  11  12
ENDBRANCH   9  11
BRANCH   2  32
HETATM   32  N   UNK N   1      21.588  14.681   6.298  0.00  0.00    -0.363 N 
HETATM   33  C   UNK N   1      21.162  14.678   4.930  0.00  0.00     0.154 C 
HETATM   34  C   UNK N   1      21.337  16.109   4.427  0.00  0.00     0.292 C 
HETATM   35  N   UNK N   1      20.694  17.109   5.302  0.00  0.00     0.092 N 
HETATM   36  C   UNK N   1      20.996  16.929   6.733  0.00  0.00     0.292 C 
HETATM   37  C   UNK N   1      20.816  15.492   7.194  0.00  0.00     0.154 C 
BRANCH  35  38
HETATM   38  C   UNK N   1      21.350  18.366   4.972  0.00  0.00     0.284 C 
BRANCH  38  39
HETATM   39  C   UNK N   1      21.675  18.496   3.493  0.00  0.00     0.155 C 
BRANCH  39  40
HETATM   40  P   UNK N   1      21.233  20.171   2.807  0.00  0.00     0.237 P 
HETATM   41  O   UNK N   1      20.173  20.843   3.719  0.00  0.00    -0.653 OA
BRANCH  40  42
HETATM   42  O   UNK N   1      20.509  20.186   1.230  0.00  0.00    -0.329 OA
HETATM   43  H   UNK N   1      20.064  19.396   0.885  0.00  0.00     0.220 HD
ENDBRANCH  40  42
BRANCH  40  44
HETATM   44  O   UNK N   1      22.547  21.303   2.791  0.00  0.00    -0.329 OA
HETATM   45  H   UNK N   1      23.205  21.993   2.974  0.00  0.00     0.220 HD
ENDBRANCH  40  44
ENDBRANCH  39  40
ENDBRANCH  38  39
ENDBRANCH  35  38
ENDBRANCH   2  32
BRANCH   8  46
HETATM   46  N   UNK N   1      25.028  13.167   9.426  0.00  0.00    -0.385 N 
HETATM   47  H   UNK N   1      24.644  12.347   9.813  0.00  0.00     0.157 HD
HETATM   48  H   UNK N   1      25.696  13.678   9.938  0.00  0.00     0.157 HD
ENDBRANCH   8  46
TORSDOF 16
ENDMDL
MODEL 2
REMARK VINA RESULT:      -7.3      4.102      9.440
REMARK  16 active torsions:
REMARK  status: ('A' for Active; 'I' for Inactive)
REMARK    1  A    between atoms: C_2  and  N_30 
REMARK       I    between atoms: C_5  and  N_10 
REMARK    2  A    between atoms: C_8  and  N_9 
REMARK    3  A    between atoms: N_10  and  C_11 
REMARK    4  A    between atoms: C_12  and  C_11 
REMARK    5  A    between atoms: C_15  and  C_18 
REMARK    6  A    between atoms: C_18  and  N_19 
REMARK    7  A    between atoms: N_19  and  C_20 
REMARK    8  A    between atoms: C_20  and  C_21 
REMARK    9  A    between atoms: C_21  and  C_22 
REMARK   10  A    between atoms: C_22  and  N_23 
REMARK   11  A    between atoms: N_23  and  C_24 
REMARK   12  A    between atoms: N_33  and  C_36 
REMARK   13  A    between atoms: C_36  and  C_37 
REMARK   14  A    between atoms: C_37  and  P_38 
REMARK   15  A    between atoms: P_38  and  O_40 
REMARK   16  A    between atoms: P_38  and  O_41 
ROOT
HETATM    1  C   UNK N   1      29.820  17.878   8.829  0.00  0.00     0.097 A 
HETATM    2  C   UNK N   1      30.828  17.373   7.998  0.00  0.00     0.122 A 
HETATM    3  N   UNK N   1      30.576  17.220   6.675  0.00  0.00    -0.177 N 
ATOM      4  HN  UNK N   1      31.316  16.870   6.065  1.00  0.00     0.185 HD
HETATM    5  C   UNK N   1      29.370  17.521   6.143  0.00  0.00     0.681 A 
HETATM    6  N   UNK N   1      28.367  17.976   6.939  0.00  0.00    -0.177 N 
ATOM      7  HN  UNK N   1      27.449  18.168   6.537  1.00  0.00     0.185 HD
HETATM    8  C   UNK N   1      28.580  18.180   8.266  0.00  0.00     0.118 A 
HETATM    9  N   UNK N   1      29.133  17.204   4.791  0.00  0.00    -0.226 N 
HETATM   10  H   UNK N   1      29.613  17.690   4.082  0.00  0.00     0.177 HD
ENDROOT
BRANCH   9  11
HETATM   11  C   UNK N   1      28.190  16.170   4.443  0.00  0.00     0.142 C 
BRANCH  11  12
HETATM   12  C   UNK N   1      27.216  16.654   3.351  0.00  0.00     0.004 C 
HETATM   13  C   UNK N   1      26.502  17.983   3.670  0.00  0.00     0.007 C 
HETATM   14  C   UNK N   1      25.456  17.806   4.764  0.00  0.00     0.007 C 
HETATM   15  C   UNK N   1      24.471  16.675   4.443  0.00  0.00     0.003 C 
HETATM   16  C   UNK N   1      24.766  15.951   3.116  0.00  0.00     0.007 C 
HETATM   17  C   UNK N   1      26.237  15.534   2.990  0.00  0.00     0.007 C 
BRANCH  15  18
HETATM   18  C   UNK N   1      24.335  15.719   5.625  0.00  0.00     0.118 C 
BRANCH  18  19
HETATM   19  N   UNK N   1      23.288  16.159   6.536  0.00  0.00    -0.421 N 
HETATM   20  H   UNK N   1      23.396  16.344   7.533  0.00  0.00     0.153 HD
BRANCH  19  21
HETATM   21  C   UNK N   1      22.062  16.286   5.769  0.00  0.00     0.115 C 
BRANCH  21  22
HETATM   22  C   UNK N   1      20.927  15.566   6.476  0.00  0.00     0.038 C 
BRANCH  22  23
HETATM   23  C   UNK N   1      21.031  15.749   7.981  0.00  0.00     0.115 C 
BRANCH  23  24
HETATM   24  N   UNK N   1      20.530  14.551   8.634  0.00  0.00    -0.417 N 
HETATM   25  H   UNK N   1      19.608  14.145   8.471  0.00  0.00     0.153 HD
BRANCH  24  26
HETATM   26  C   UNK N   1      21.527  14.007   9.554  0.00  0.00     0.076 C 
HETATM   27  C   UNK N   1      22.716  13.384   8.803  0.00  0.00     0.024 C 
HETATM   28  C   UNK N   1      23.698  12.750   9.777  0.00  0.00     0.002 C 
HETATM   29  C   UNK N   1      22.990  11.656  10.565  0.00  0.00     0.000 C 
HETATM   30  C   UNK N   1      21.825  12.256  11.346  0.00  0.00     0.002 C 
HETATM   31  C   UNK N   1      20.840  12.933  10.398  0.00  0.00     0.024 C 
ENDBRANCH  24  26
ENDBRANCH  23  24
ENDBRANCH  22  23
ENDBRANCH  21  22
ENDBRANCH  19  21
ENDBRANCH  18  19
ENDBRANCH  15  18
ENDBRANCH  11  12
ENDBRANCH   9  11
BRANCH   2  32
HETATM   32  N   UNK N   1      32.117  17.049   8.506  0.00  0.00    -0.363 N 
HETATM   33  C   UNK N   1      33.209  17.959   8.325  0.00  0.00     0.154 C 
HETATM   34  C   UNK N   1      33.903  17.539   7.031  0.00  0.00     0.292 C 
HETATM   35  N   UNK N   1      34.245  16.104   7.001  0.00  0.00     0.092 N 
HETATM   36  C   UNK N   1      33.139  15.219   7.411  0.00  0.00     0.292 C 
HETATM   37  C   UNK N   1      32.472  15.673   8.698  0.00  0.00     0.154 C 
BRANCH  35  38
HETATM   38  C   UNK N   1      34.423  15.794   5.591  0.00  0.00     0.284 C 
BRANCH  38  39
HETATM   39  C   UNK N   1      33.747  16.799   4.672  0.00  0.00     0.155 C 
BRANCH  39  40
HETATM   40  P   UNK N   1      32.488  16.010   3.549  0.00  0.00     0.237 P 
HETATM   41  O   UNK N   1      31.492  15.171   4.392  0.00  0.00    -0.653 OA
BRANCH  40  42
HETATM   42  O   UNK N   1      33.103  14.888   2.376  0.00  0.00    -0.329 OA
HETATM   43  H   UNK N   1      33.963  14.458   2.511  0.00  0.00     0.220 HD
ENDBRANCH  40  42
BRANCH  40  44
HETATM   44  O   UNK N   1      31.475  17.140   2.709  0.00  0.00    -0.329 OA
HETATM   45  H   UNK N   1      31.088  17.820   2.134  0.00  0.00     0.220 HD
ENDBRANCH  40  44
ENDBRANCH  39  40
ENDBRANCH  38  39
ENDBRANCH  35  38
ENDBRANCH   2  32
BRANCH   8  46
HETATM   46  N   UNK N   1      27.542  18.677   9.077  0.00  0.00    -0.385 N 
HETATM   47  H   UNK N   1      26.602  18.444   8.896  0.00  0.00     0.157 HD
HETATM   48  H   UNK N   1      27.758  19.268   9.834  0.00  0.00     0.157 HD
ENDBRANCH   8  46
TORSDOF 16
ENDMDL
MODEL 3
REMARK VINA RESULT:      -7.3      5.451      9.851
REMARK  16 active torsions:
REMARK  status: ('A' for Active; 'I' for Inactive)
REMARK    1  A    between atoms: C_2  and  N_30 
REMARK       I    between atoms: C_5  and  N_10 
REMARK    2  A    between atoms: C_8  and  N_9 
REMARK    3  A    between atoms: N_10  and  C_11 
REMARK    4  A    between atoms: C_12  and  C_11 
REMARK    5  A    between atoms: C_15  and  C_18 
REMARK    6  A    between atoms: C_18  and  N_19 
REMARK    7  A    between atoms: N_19  and  C_20 
REMARK    8  A    between atoms: C_20  and  C_21 
REMARK    9  A    between atoms: C_21  and  C_22 
REMARK   10  A    between atoms: C_22  and  N_23 
REMARK   11  A    between atoms: N_23  and  C_24 
REMARK   12  A    between atoms: N_33  and  C_36 
REMARK   13  A    between atoms: C_36  and  C_37 
REMARK   14  A    between atoms: C_37  and  P_38 
REMARK   15  A    between atoms: P_38  and  O_40 
REMARK   16  A    between atoms: P_38  and  O_41 
ROOT
HETATM    1  C   UNK N   1      29.074  17.456   7.489  0.00  0.00     0.097 A 
HETATM    2  C   UNK N   1      29.427  17.609   6.143  0.00  0.00     0.122 A 
HETATM    3  N   UNK N   1      28.911  18.646   5.440  0.00  0.00    -0.177 N 
ATOM      4  HN  UNK N   1      29.183  18.769   4.464  1.00  0.00     0.185 HD
HETATM    5  C   UNK N   1      28.046  19.521   5.999  0.00  0.00     0.681 A 
HETATM    6  N   UNK N   1      27.661  19.369   7.293  0.00  0.00    -0.177 N 
ATOM      7  HN  UNK N   1      26.980  20.012   7.699  1.00  0.00     0.185 HD
HETATM    8  C   UNK N   1      28.177  18.364   8.051  0.00  0.00     0.118 A 
HETATM    9  N   UNK N   1      27.439  20.489   5.175  0.00  0.00    -0.226 N 
HETATM   10  H   UNK N   1      27.983  21.212   4.785  0.00  0.00     0.177 HD
ENDROOT
BRANCH   9  11
HETATM   11  C   UNK N   1      26.025  20.424   4.899  0.00  0.00     0.142 C 
BRANCH  11  12
HETATM   12  C   UNK N   1      25.743  19.560   3.654  0.00  0.00     0.004 C 
HETATM   13  C   UNK N   1      24.543  20.028   2.808  0.00  0.00     0.007 C 
HETATM   14  C   UNK N   1      23.220  19.750   3.511  0.00  0.00     0.007 C 
HETATM   15  C   UNK N   1      23.094  18.284   3.945  0.00  0.00     0.003 C 
HETATM   16  C   UNK N   1      24.328  17.427   3.607  0.00  0.00     0.007 C 
HETATM   17  C   UNK N   1      25.640  18.086   4.055  0.00  0.00     0.007 C 
BRANCH  15  18
HETATM   18  C   UNK N   1      22.682  18.184   5.411  0.00  0.00     0.118 C 
BRANCH  18  19
HETATM   19  N   UNK N   1      23.019  16.880   5.962  0.00  0.00    -0.421 N 
HETATM   20  H   UNK N   1      23.930  16.423   5.917  0.00  0.00     0.153 HD
BRANCH  19  21
HETATM   21  C   UNK N   1      21.823  16.345   6.589  0.00  0.00     0.115 C 
BRANCH  21  22
HETATM   22  C   UNK N   1      21.693  14.862   6.285  0.00  0.00     0.038 C 
BRANCH  22  23
HETATM   23  C   UNK N   1      23.031  14.161   6.453  0.00  0.00     0.115 C 
BRANCH  23  24
HETATM   24  N   UNK N   1      23.417  14.221   7.853  0.00  0.00    -0.417 N 
HETATM   25  H   UNK N   1      24.117  14.857   8.234  0.00  0.00     0.153 HD
BRANCH  24  26
HETATM   26  C   UNK N   1      22.665  13.245   8.640  0.00  0.00     0.076 C 
HETATM   27  C   UNK N   1      21.685  13.929   9.609  0.00  0.00     0.024 C 
HETATM   28  C   UNK N   1      20.975  12.899  10.475  0.00  0.00     0.002 C 
HETATM   29  C   UNK N   1      22.008  12.129  11.288  0.00  0.00     0.000 C 
HETATM   30  C   UNK N   1      22.973  11.413  10.348  0.00  0.00     0.002 C 
HETATM   31  C   UNK N   1      23.673  12.419   9.438  0.00  0.00     0.024 C 
ENDBRANCH  24  26
ENDBRANCH  23  24
ENDBRANCH  22  23
ENDBRANCH  21  22
ENDBRANCH  19  21
ENDBRANCH  18  19
ENDBRANCH  15  18
ENDBRANCH  11  12
ENDBRANCH   9  11
BRANCH   2  32
HETATM   32  N   UNK N   1      30.340  16.721   5.509  0.00  0.00    -0.363 N 
HETATM   33  C   UNK N   1      30.495  15.381   5.995  0.00  0.00     0.154 C 
HETATM   34  C   UNK N   1      31.644  15.424   7.000  0.00  0.00     0.292 C 
HETATM   35  N   UNK N   1      32.861  16.059   6.456  0.00  0.00     0.092 N 
HETATM   36  C   UNK N   1      32.608  17.339   5.769  0.00  0.00     0.292 C 
HETATM   37  C   UNK N   1      31.455  17.257   4.783  0.00  0.00     0.154 C 
BRANCH  35  38
HETATM   38  C   UNK N   1      33.631  16.449   7.627  0.00  0.00     0.284 C 
BRANCH  38  39
HETATM   39  C   UNK N   1      34.354  15.280   8.278  0.00  0.00     0.155 C 
BRANCH  39  40
HETATM   40  P   UNK N   1      34.580  15.510  10.113  0.00  0.00     0.237 P 
HETATM   41  O   UNK N   1      35.827  14.718  10.587  0.00  0.00    -0.653 OA
BRANCH  40  42
HETATM   42  O   UNK N   1      33.295  14.927  11.123  0.00  0.00    -0.329 OA
HETATM   43  H   UNK N   1      32.812  15.535  11.704  0.00  0.00     0.220 HD
ENDBRANCH  40  42
BRANCH  40  44
HETATM   44  O   UNK N   1      34.918  17.144  10.590  0.00  0.00    -0.329 OA
HETATM   45  H   UNK N   1      34.895  18.082  10.838  0.00  0.00     0.220 HD
ENDBRANCH  40  44
ENDBRANCH  39  40
ENDBRANCH  38  39
ENDBRANCH  35  38
ENDBRANCH   2  32
BRANCH   8  46
HETATM   46  N   UNK N   1      27.792  18.231   9.399  0.00  0.00    -0.385 N 
HETATM   47  H   UNK N   1      28.400  17.830  10.061  0.00  0.00     0.157 HD
HETATM   48  H   UNK N   1      26.902  18.542   9.682  0.00  0.00     0.157 HD
ENDBRANCH   8  46
TORSDOF 16
ENDMDL
MODEL 4
REMARK VINA RESULT:      -7.3      4.180      6.721
REMARK  16 active torsions:
REMARK  status: ('A' for Active; 'I' for Inactive)
REMARK    1  A    between atoms: C_2  and  N_30 
REMARK       I    between atoms: C_5  and  N_10 
REMARK    2  A    between atoms: C_8  and  N_9 
REMARK    3  A    between atoms: N_10  and  C_11 
REMARK    4  A    between atoms: C_12  and  C_11 
REMARK    5  A    between atoms: C_15  and  C_18 
REMARK    6  A    between atoms: C_18  and  N_19 
REMARK    7  A    between atoms: N_19  and  C_20 
REMARK    8  A    between atoms: C_20  and  C_21 
REMARK    9  A    between atoms: C_21  and  C_22 
REMARK   10  A    between atoms: C_22  and  N_23 
REMARK   11  A    between atoms: N_23  and  C_24 
REMARK   12  A    between atoms: N_33  and  C_36 
REMARK   13  A    between atoms: C_36  and  C_37 
REMARK   14  A    between atoms: C_37  and  P_38 
REMARK   15  A    between atoms: P_38  and  O_40 
REMARK   16  A    between atoms: P_38  and  O_41 
ROOT
HETATM    1  C   UNK N   1      26.829  19.341   5.691  0.00  0.00     0.097 A 
HETATM    2  C   UNK N   1      27.015  17.954   5.692  0.00  0.00     0.122 A 
HETATM    3  N   UNK N   1      27.832  17.399   6.621  0.00  0.00    -0.177 N 
ATOM      4  HN  UNK N   1      27.954  16.386   6.634  1.00  0.00     0.185 HD
HETATM    5  C   UNK N   1      28.488  18.155   7.530  0.00  0.00     0.681 A 
HETATM    6  N   UNK N   1      28.350  19.507   7.522  0.00  0.00    -0.177 N 
ATOM      7  HN  UNK N   1      28.875  20.074   8.188  1.00  0.00     0.185 HD
HETATM    8  C   UNK N   1      27.515  20.109   6.633  0.00  0.00     0.118 A 
HETATM    9  N   UNK N   1      29.428  17.530   8.372  0.00  0.00    -0.226 N 
HETATM   10  H   UNK N   1      29.125  16.894   9.060  0.00  0.00     0.177 HD
ENDROOT
BRANCH   9  11
HETATM   11  C   UNK N   1      30.834  17.820   8.231  0.00  0.00     0.142 C 
BRANCH  11  12
HETATM   12  C   UNK N   1      31.468  16.959   7.121  0.00  0.00     0.004 C 
HETATM   13  C   UNK N   1      31.618  15.466   7.473  0.00  0.00     0.007 C 
HETATM   14  C   UNK N   1      32.715  15.244   8.508  0.00  0.00     0.007 C 
HETATM   15  C   UNK N   1      34.044  15.882   8.084  0.00  0.00     0.003 C 
HETATM   16  C   UNK N   1      33.977  16.626   6.738  0.00  0.00     0.007 C 
HETATM   17  C   UNK N   1      32.784  17.589   6.659  0.00  0.00     0.007 C 
BRANCH  15  18
HETATM   18  C   UNK N   1      34.619  16.738   9.210  0.00  0.00     0.118 C 
BRANCH  18  19
HETATM   19  N   UNK N   1      34.316  16.163  10.512  0.00  0.00    -0.421 N 
HETATM   20  H   UNK N   1      33.393  15.893  10.851  0.00  0.00     0.153 HD
BRANCH  19  21
HETATM   21  C   UNK N   1      35.566  16.044  11.242  0.00  0.00     0.115 C 
BRANCH  21  22
HETATM   22  C   UNK N   1      36.362  14.859  10.723  0.00  0.00     0.038 C 
BRANCH  22  23
HETATM   23  C   UNK N   1      36.303  13.701  11.706  0.00  0.00     0.115 C 
BRANCH  23  24
HETATM   24  N   UNK N   1      36.753  14.169  13.007  0.00  0.00    -0.417 N 
HETATM   25  H   UNK N   1      37.609  14.700  13.168  0.00  0.00     0.153 HD
BRANCH  24  26
HETATM   26  C   UNK N   1      35.810  13.777  14.053  0.00  0.00     0.076 C 
HETATM   27  C   UNK N   1      36.488  13.704  15.432  0.00  0.00     0.024 C 
HETATM   28  C   UNK N   1      35.509  13.213  16.489  0.00  0.00     0.002 C 
HETATM   29  C   UNK N   1      35.018  11.822  16.111  0.00  0.00     0.000 C 
HETATM   30  C   UNK N   1      34.311  11.874  14.761  0.00  0.00     0.002 C 
HETATM   31  C   UNK N   1      35.258  12.399  13.685  0.00  0.00     0.024 C 
ENDBRANCH  24  26
ENDBRANCH  23  24
ENDBRANCH  22  23
ENDBRANCH  21  22
ENDBRANCH  19  21
ENDBRANCH  18  19
ENDBRANCH  15  18
ENDBRANCH  11  12
ENDBRANCH   9  11
BRANCH   2  32
HETATM   32  N   UNK N   1      26.343  17.113   4.763  0.00  0.00    -0.363 N 
HETATM   33  C   UNK N   1      26.124  17.558   3.418  0.00  0.00     0.154 C 
HETATM   34  C   UNK N   1      24.749  18.223   3.409  0.00  0.00     0.292 C 
HETATM   35  N   UNK N   1      23.693  17.370   3.987  0.00  0.00     0.092 N 
HETATM   36  C   UNK N   1      24.062  16.758   5.277  0.00  0.00     0.292 C 
HETATM   37  C   UNK N   1      25.436  16.112   5.247  0.00  0.00     0.154 C 
BRANCH  35  38
HETATM   38  C   UNK N   1      22.624  18.291   4.342  0.00  0.00     0.284 C 
BRANCH  38  39
HETATM   39  C   UNK N   1      21.541  18.383   3.279  0.00  0.00     0.155 C 
BRANCH  39  40
HETATM   40  P   UNK N   1      21.194  20.138   2.758  0.00  0.00     0.237 P 
HETATM   41  O   UNK N   1      22.522  20.940   2.717  0.00  0.00    -0.653 OA
BRANCH  40  42
HETATM   42  O   UNK N   1      20.171  21.061   3.812  0.00  0.00    -0.329 OA
HETATM   43  H   UNK N   1      20.556  21.638   4.491  0.00  0.00     0.220 HD
ENDBRANCH  40  42
BRANCH  40  44
HETATM   44  O   UNK N   1      20.564  20.292   1.149  0.00  0.00    -0.329 OA
HETATM   45  H   UNK N   1      20.323  20.561   0.248  0.00  0.00     0.220 HD
ENDBRANCH  40  44
ENDBRANCH  39  40
ENDBRANCH  38  39
ENDBRANCH  35  38
ENDBRANCH   2  32
BRANCH   8  46
HETATM   46  N   UNK N   1      27.359  21.507   6.650  0.00  0.00    -0.385 N 
HETATM   47  H   UNK N   1      28.058  22.099   6.289  0.00  0.00     0.157 HD
HETATM   48  H   UNK N   1      26.539  21.899   7.029  0.00  0.00     0.157 HD
ENDBRANCH   8  46
TORSDOF 16
ENDMDL
MODEL 5
REMARK VINA RESULT:      -7.2      3.719      5.245
REMARK  16 active torsions:
REMARK  status: ('A' for Active; 'I' for Inactive)
REMARK    1  A    between atoms: C_2  and  N_30 
REMARK       I    between atoms: C_5  and  N_10 
REMARK    2  A    between atoms: C_8  and  N_9 
REMARK    3  A    between atoms: N_10  and  C_11 
REMARK    4  A    between atoms: C_12  and  C_11 
REMARK    5  A    between atoms: C_15  and  C_18 
REMARK    6  A    between atoms: C_18  and  N_19 
REMARK    7  A    between atoms: N_19  and  C_20 
REMARK    8  A    between atoms: C_20  and  C_21 
REMARK    9  A    between atoms: C_21  and  C_22 
REMARK   10  A    between atoms: C_22  and  N_23 
REMARK   11  A    between atoms: N_23  and  C_24 
REMARK   12  A    between atoms: N_33  and  C_36 
REMARK   13  A    between atoms: C_36  and  C_37 
REMARK   14  A    between atoms: C_37  and  P_38 
REMARK   15  A    between atoms: P_38  and  O_40 
REMARK   16  A    between atoms: P_38  and  O_41 
ROOT
HETATM    1  C   UNK N   1      20.085  18.216   2.697  0.00  0.00     0.097 A 
HETATM    2  C   UNK N   1      20.508  17.366   3.725  0.00  0.00     0.122 A 
HETATM    3  N   UNK N   1      21.639  17.670   4.408  0.00  0.00    -0.177 N 
ATOM      4  HN  UNK N   1      21.938  17.061   5.171  1.00  0.00     0.185 HD
HETATM    5  C   UNK N   1      22.380  18.760   4.104  0.00  0.00     0.681 A 
HETATM    6  N   UNK N   1      22.006  19.577   3.085  0.00  0.00    -0.177 N 
ATOM      7  HN  UNK N   1      22.589  20.378   2.838  1.00  0.00     0.185 HD
HETATM    8  C   UNK N   1      20.861  19.335   2.392  0.00  0.00     0.118 A 
HETATM    9  N   UNK N   1      23.615  18.937   4.757  0.00  0.00    -0.226 N 
HETATM   10  H   UNK N   1      23.637  19.140   5.720  0.00  0.00     0.177 HD
ENDROOT
BRANCH   9  11
HETATM   11  C   UNK N   1      24.849  18.822   4.019  0.00  0.00     0.142 C 
BRANCH  11  12
HETATM   12  C   UNK N   1      25.657  20.133   4.082  0.00  0.00     0.004 C 
HETATM   13  C   UNK N   1      27.078  20.039   3.492  0.00  0.00     0.007 C 
HETATM   14  C   UNK N   1      28.003  19.226   4.390  0.00  0.00     0.007 C 
HETATM   15  C   UNK N   1      28.001  19.739   5.836  0.00  0.00     0.003 C 
HETATM   16  C   UNK N   1      27.055  20.931   6.072  0.00  0.00     0.007 C 
HETATM   17  C   UNK N   1      25.649  20.682   5.510  0.00  0.00     0.007 C 
BRANCH  15  18
HETATM   18  C   UNK N   1      27.776  18.594   6.819  0.00  0.00     0.118 C 
BRANCH  18  19
HETATM   19  N   UNK N   1      27.558  19.097   8.167  0.00  0.00    -0.421 N 
HETATM   20  H   UNK N   1      26.953  19.876   8.430  0.00  0.00     0.153 HD
BRANCH  19  21
HETATM   21  C   UNK N   1      28.355  18.289   9.072  0.00  0.00     0.115 C 
BRANCH  21  22
HETATM   22  C   UNK N   1      29.823  18.369   8.688  0.00  0.00     0.038 C 
BRANCH  22  23
HETATM   23  C   UNK N   1      30.532  17.063   9.004  0.00  0.00     0.115 C 
BRANCH  23  24
HETATM   24  N   UNK N   1      30.706  16.315   7.771  0.00  0.00    -0.417 N 
HETATM   25  H   UNK N   1      30.407  15.349   7.632  0.00  0.00     0.153 HD
BRANCH  24  26
HETATM   26  C   UNK N   1      31.366  17.134   6.756  0.00  0.00     0.076 C 
HETATM   27  C   UNK N   1      30.755  16.915   5.361  0.00  0.00     0.024 C 
HETATM   28  C   UNK N   1      31.512  17.713   4.309  0.00  0.00     0.002 C 
HETATM   29  C   UNK N   1      32.965  17.259   4.283  0.00  0.00     0.000 C 
HETATM   30  C   UNK N   1      33.604  17.497   5.648  0.00  0.00     0.002 C 
HETATM   31  C   UNK N   1      32.843  16.739   6.731  0.00  0.00     0.024 C 
ENDBRANCH  24  26
ENDBRANCH  23  24
ENDBRANCH  22  23
ENDBRANCH  21  22
ENDBRANCH  19  21
ENDBRANCH  18  19
ENDBRANCH  15  18
ENDBRANCH  11  12
ENDBRANCH   9  11
BRANCH   2  32
HETATM   32  N   UNK N   1      19.761  16.212   4.091  0.00  0.00    -0.363 N 
HETATM   33  C   UNK N   1      19.255  16.076   5.424  0.00  0.00     0.154 C 
HETATM   34  C   UNK N   1      20.319  15.312   6.208  0.00  0.00     0.292 C 
HETATM   35  N   UNK N   1      20.735  14.061   5.544  0.00  0.00     0.092 N 
HETATM   36  C   UNK N   1      21.035  14.220   4.110  0.00  0.00     0.292 C 
HETATM   37  C   UNK N   1      19.956  14.989   3.367  0.00  0.00     0.154 C 
BRANCH  35  38
HETATM   38  C   UNK N   1      22.029  13.743   6.128  0.00  0.00     0.284 C 
BRANCH  38  39
HETATM   39  C   UNK N   1      22.357  14.594   7.345  0.00  0.00     0.155 C 
BRANCH  39  40
HETATM   40  P   UNK N   1      21.962  13.733   8.949  0.00  0.00     0.237 P 
HETATM   41  O   UNK N   1      20.963  14.592   9.768  0.00  0.00    -0.653 OA
BRANCH  40  42
HETATM   42  O   UNK N   1      23.294  13.479  10.032  0.00  0.00    -0.329 OA
HETATM   43  H   UNK N   1      23.991  14.149  10.119  0.00  0.00     0.220 HD
ENDBRANCH  40  42
BRANCH  40  44
HETATM   44  O   UNK N   1      21.146  12.213   8.760  0.00  0.00    -0.329 OA
HETATM   45  H   UNK N   1      20.643  11.389   8.862  0.00  0.00     0.220 HD
ENDBRANCH  40  44
ENDBRANCH  39  40
ENDBRANCH  38  39
ENDBRANCH  35  38
ENDBRANCH   2  32
BRANCH   8  46
HETATM   46  N   UNK N   1      20.470  20.202   1.356  0.00  0.00    -0.385 N 
HETATM   47  H   UNK N   1      20.523  19.922   0.413  0.00  0.00     0.157 HD
HETATM   48  H   UNK N   1      20.138  21.102   1.575  0.00  0.00     0.157 HD
ENDBRANCH   8  46
TORSDOF 16
ENDMDL
MODEL 6
REMARK VINA RESULT:      -7.0      4.018      9.496
REMARK  16 active torsions:
REMARK  status: ('A' for Active; 'I' for Inactive)
REMARK    1  A    between atoms: C_2  and  N_30 
REMARK       I    between atoms: C_5  and  N_10 
REMARK    2  A    between atoms: C_8  and  N_9 
REMARK    3  A    between atoms: N_10  and  C_11 
REMARK    4  A    between atoms: C_12  and  C_11 
REMARK    5  A    between atoms: C_15  and  C_18 
REMARK    6  A    between atoms: C_18  and  N_19 
REMARK    7  A    between atoms: N_19  and  C_20 
REMARK    8  A    between atoms: C_20  and  C_21 
REMARK    9  A    between atoms: C_21  and  C_22 
REMARK   10  A    between atoms: C_22  and  N_23 
REMARK   11  A    between atoms: N_23  and  C_24 
REMARK   12  A    between atoms: N_33  and  C_36 
REMARK   13  A    between atoms: C_36  and  C_37 
REMARK   14  A    between atoms: C_37  and  P_38 
REMARK   15  A    between atoms: P_38  and  O_40 
REMARK   16  A    between atoms: P_38  and  O_41 
ROOT
HETATM    1  C   UNK N   1      29.884  17.997   8.786  0.00  0.00     0.097 A 
HETATM    2  C   UNK N   1      30.899  17.480   7.974  0.00  0.00     0.122 A 
HETATM    3  N   UNK N   1      30.655  17.289   6.654  0.00  0.00    -0.177 N 
ATOM      4  HN  UNK N   1      31.401  16.930   6.057  1.00  0.00     0.185 HD
HETATM    5  C   UNK N   1      29.448  17.564   6.109  0.00  0.00     0.681 A 
HETATM    6  N   UNK N   1      28.438  18.032   6.888  0.00  0.00    -0.177 N 
ATOM      7  HN  UNK N   1      27.520  18.204   6.477  1.00  0.00     0.185 HD
HETATM    8  C   UNK N   1      28.643  18.273   8.211  0.00  0.00     0.118 A 
HETATM    9  N   UNK N   1      29.220  17.210   4.765  0.00  0.00    -0.226 N 
HETATM   10  H   UNK N   1      29.698  17.681   4.045  0.00  0.00     0.177 HD
ENDROOT
BRANCH   9  11
HETATM   11  C   UNK N   1      28.288  16.158   4.441  0.00  0.00     0.142 C 
BRANCH  11  12
HETATM   12  C   UNK N   1      27.403  16.553   3.243  0.00  0.00     0.004 C 
HETATM   13  C   UNK N   1      26.345  17.631   3.555  0.00  0.00     0.007 C 
HETATM   14  C   UNK N   1      25.221  17.076   4.421  0.00  0.00     0.007 C 
HETATM   15  C   UNK N   1      24.604  15.806   3.822  0.00  0.00     0.003 C 
HETATM   16  C   UNK N   1      25.264  15.354   2.507  0.00  0.00     0.007 C 
HETATM   17  C   UNK N   1      26.795  15.301   2.607  0.00  0.00     0.007 C 
BRANCH  15  18
HETATM   18  C   UNK N   1      24.528  14.694   4.864  0.00  0.00     0.118 C 
BRANCH  18  19
HETATM   19  N   UNK N   1      24.697  15.224   6.209  0.00  0.00    -0.421 N 
HETATM   20  H   UNK N   1      25.331  15.974   6.486  0.00  0.00     0.153 HD
BRANCH  19  21
HETATM   21  C   UNK N   1      23.801  14.491   7.086  0.00  0.00     0.115 C 
BRANCH  21  22
HETATM   22  C   UNK N   1      22.367  14.637   6.607  0.00  0.00     0.038 C 
BRANCH  22  23
HETATM   23  C   UNK N   1      21.840  16.031   6.909  0.00  0.00     0.115 C 
BRANCH  23  24
HETATM   24  N   UNK N   1      20.720  16.308   6.025  0.00  0.00    -0.417 N 
HETATM   25  H   UNK N   1      19.744  16.104   6.245  0.00  0.00     0.153 HD
BRANCH  24  26
HETATM   26  C   UNK N   1      21.180  16.917   4.779  0.00  0.00     0.076 C 
HETATM   27  C   UNK N   1      21.722  18.339   5.006  0.00  0.00     0.024 C 
HETATM   28  C   UNK N   1      22.116  18.983   3.685  0.00  0.00     0.002 C 
HETATM   29  C   UNK N   1      20.894  19.064   2.781  0.00  0.00     0.000 C 
HETATM   30  C   UNK N   1      20.358  17.662   2.513  0.00  0.00     0.002 C 
HETATM   31  C   UNK N   1      19.988  16.974   3.824  0.00  0.00     0.024 C 
ENDBRANCH  24  26
ENDBRANCH  23  24
ENDBRANCH  22  23
ENDBRANCH  21  22
ENDBRANCH  19  21
ENDBRANCH  18  19
ENDBRANCH  15  18
ENDBRANCH  11  12
ENDBRANCH   9  11
BRANCH   2  32
HETATM   32  N   UNK N   1      32.189  17.182   8.495  0.00  0.00    -0.363 N 
HETATM   33  C   UNK N   1      33.294  18.052   8.220  0.00  0.00     0.154 C 
HETATM   34  C   UNK N   1      33.965  17.504   6.963  0.00  0.00     0.292 C 
HETATM   35  N   UNK N   1      34.284  16.067   7.061  0.00  0.00     0.092 N 
HETATM   36  C   UNK N   1      33.169  15.242   7.561  0.00  0.00     0.292 C 
HETATM   37  C   UNK N   1      32.524  15.823   8.808  0.00  0.00     0.154 C 
BRANCH  35  38
HETATM   38  C   UNK N   1      34.439  15.626   5.683  0.00  0.00     0.284 C 
BRANCH  38  39
HETATM   39  C   UNK N   1      33.162  15.045   5.097  0.00  0.00     0.155 C 
BRANCH  39  40
HETATM   40  P   UNK N   1      32.585  15.966   3.583  0.00  0.00     0.237 P 
HETATM   41  O   UNK N   1      31.256  15.348   3.075  0.00  0.00    -0.653 OA
BRANCH  40  42
HETATM   42  O   UNK N   1      33.637  15.909   2.205  0.00  0.00    -0.329 OA
HETATM   43  H   UNK N   1      34.224  15.149   2.065  0.00  0.00     0.220 HD
ENDBRANCH  40  42
BRANCH  40  44
HETATM   44  O   UNK N   1      32.188  17.630   3.870  0.00  0.00    -0.329 OA
HETATM   45  H   UNK N   1      32.175  18.579   4.076  0.00  0.00     0.220 HD
ENDBRANCH  40  44
ENDBRANCH  39  40
ENDBRANCH  38  39
ENDBRANCH  35  38
ENDBRANCH   2  32
BRANCH   8  46
HETATM   46  N   UNK N   1      27.597  18.782   9.003  0.00  0.00    -0.385 N 
HETATM   47  H   UNK N   1      27.255  18.277   9.775  0.00  0.00     0.157 HD
HETATM   48  H   UNK N   1      27.202  19.656   8.782  0.00  0.00     0.157 HD
ENDBRANCH   8  46
TORSDOF 16
ENDMDL
MODEL 7
REMARK VINA RESULT:      -7.0      3.458      7.992
REMARK  16 active torsions:
REMARK  status: ('A' for Active; 'I' for Inactive)
REMARK    1  A    between atoms: C_2  and  N_30 
REMARK       I    between atoms: C_5  and  N_10 
REMARK    2  A    between atoms: C_8  and  N_9 
REMARK    3  A    between atoms: N_10  and  C_11 
REMARK    4  A    between atoms: C_12  and  C_11 
REMARK    5  A    between atoms: C_15  and  C_18 
REMARK    6  A    between atoms: C_18  and  N_19 
REMARK    7  A    between atoms: N_19  and  C_20 
REMARK    8  A    between atoms: C_20  and  C_21 
REMARK    9  A    between atoms: C_21  and  C_22 
REMARK   10  A    between atoms: C_22  and  N_23 
REMARK   11  A    between atoms: N_23  and  C_24 
REMARK   12  A    between atoms: N_33  and  C_36 
REMARK   13  A    between atoms: C_36  and  C_37 
REMARK   14  A    between atoms: C_37  and  P_38 
REMARK   15  A    between atoms: P_38  and  O_40 
REMARK   16  A    between atoms: P_38  and  O_41 
ROOT
HETATM    1  C   UNK N   1      26.105  15.079   3.209  0.00  0.00     0.097 A 
HETATM    2  C   UNK N   1      27.192  14.596   3.947  0.00  0.00     0.122 A 
HETATM    3  N   UNK N   1      26.960  13.804   5.022  0.00  0.00    -0.177 N 
ATOM      4  HN  UNK N   1      27.752  13.435   5.549  1.00  0.00     0.185 HD
HETATM    5  C   UNK N   1      25.704  13.489   5.413  0.00  0.00     0.681 A 
HETATM    6  N   UNK N   1      24.634  13.978   4.733  0.00  0.00    -0.177 N 
ATOM      7  HN  UNK N   1      23.689  13.766   5.053  1.00  0.00     0.185 HD
HETATM    8  C   UNK N   1      24.815  14.749   3.627  0.00  0.00     0.118 A 
HETATM    9  N   UNK N   1      25.532  12.781   6.618  0.00  0.00    -0.226 N 
HETATM   10  H   UNK N   1      25.831  11.846   6.686  0.00  0.00     0.177 HD
ENDROOT
BRANCH   9  11
HETATM   11  C   UNK N   1      24.918  13.423   7.755  0.00  0.00     0.142 C 
BRANCH  11  12
HETATM   12  C   UNK N   1      24.206  12.394   8.654  0.00  0.00     0.004 C 
HETATM   13  C   UNK N   1      23.293  11.407   7.901  0.00  0.00     0.007 C 
HETATM   14  C   UNK N   1      22.030  12.091   7.393  0.00  0.00     0.007 C 
HETATM   15  C   UNK N   1      21.289  12.838   8.510  0.00  0.00     0.003 C 
HETATM   16  C   UNK N   1      21.989  12.762   9.879  0.00  0.00     0.007 C 
HETATM   17  C   UNK N   1      23.481  13.111   9.795  0.00  0.00     0.007 C 
BRANCH  15  18
HETATM   18  C   UNK N   1      20.964  14.267   8.086  0.00  0.00     0.118 C 
BRANCH  18  19
HETATM   19  N   UNK N   1      21.500  14.556   6.764  0.00  0.00    -0.421 N 
HETATM   20  H   UNK N   1      21.339  14.013   5.916  0.00  0.00     0.153 HD
BRANCH  19  21
HETATM   21  C   UNK N   1      22.308  15.758   6.870  0.00  0.00     0.115 C 
BRANCH  21  22
HETATM   22  C   UNK N   1      21.504  16.968   6.426  0.00  0.00     0.038 C 
BRANCH  22  23
HETATM   23  C   UNK N   1      22.170  17.649   5.241  0.00  0.00     0.115 C 
BRANCH  23  24
HETATM   24  N   UNK N   1      23.606  17.667   5.459  0.00  0.00    -0.417 N 
HETATM   25  H   UNK N   1      24.130  16.932   5.936  0.00  0.00     0.153 HD
BRANCH  24  26
HETATM   26  C   UNK N   1      24.200  18.881   4.901  0.00  0.00     0.076 C 
HETATM   27  C   UNK N   1      23.418  19.386   3.677  0.00  0.00     0.024 C 
HETATM   28  C   UNK N   1      24.102  20.600   3.064  0.00  0.00     0.002 C 
HETATM   29  C   UNK N   1      25.507  20.216   2.622  0.00  0.00     0.000 C 
HETATM   30  C   UNK N   1      26.314  19.742   3.827  0.00  0.00     0.002 C 
HETATM   31  C   UNK N   1      25.633  18.547   4.487  0.00  0.00     0.024 C 
ENDBRANCH  24  26
ENDBRANCH  23  24
ENDBRANCH  22  23
ENDBRANCH  21  22
ENDBRANCH  19  21
ENDBRANCH  18  19
ENDBRANCH  15  18
ENDBRANCH  11  12
ENDBRANCH   9  11
BRANCH   2  32
HETATM   32  N   UNK N   1      28.533  14.890   3.574  0.00  0.00    -0.363 N 
HETATM   33  C   UNK N   1      29.622  14.204   4.205  0.00  0.00     0.154 C 
HETATM   34  C   UNK N   1      30.040  15.069   5.391  0.00  0.00     0.292 C 
HETATM   35  N   UNK N   1      30.292  16.475   5.018  0.00  0.00     0.092 N 
HETATM   36  C   UNK N   1      29.235  17.066   4.178  0.00  0.00     0.292 C 
HETATM   37  C   UNK N   1      28.842  16.174   3.013  0.00  0.00     0.154 C 
BRANCH  35  38
HETATM   38  C   UNK N   1      30.189  17.215   6.266  0.00  0.00     0.284 C 
BRANCH  38  39
HETATM   39  C   UNK N   1      28.904  16.924   7.024  0.00  0.00     0.155 C 
BRANCH  39  40
HETATM   40  P   UNK N   1      28.404  18.322   8.150  0.00  0.00     0.237 P 
HETATM   41  O   UNK N   1      29.670  18.966   8.773  0.00  0.00    -0.653 OA
BRANCH  40  42
HETATM   42  O   UNK N   1      27.427  17.892   9.518  0.00  0.00    -0.329 OA
HETATM   43  H   UNK N   1      27.540  17.031   9.952  0.00  0.00     0.220 HD
ENDBRANCH  40  42
BRANCH  40  44
HETATM   44  O   UNK N   1      27.619  19.641   7.342  0.00  0.00    -0.329 OA
HETATM   45  H   UNK N   1      27.058  20.225   6.806  0.00  0.00     0.220 HD
ENDBRANCH  40  44
ENDBRANCH  39  40
ENDBRANCH  38  39
ENDBRANCH  35  38
ENDBRANCH   2  32
BRANCH   8  46
HETATM   46  N   UNK N   1      23.701  15.229   2.914  0.00  0.00    -0.385 N 
HETATM   47  H   UNK N   1      22.938  15.638   3.383  0.00  0.00     0.157 HD
HETATM   48  H   UNK N   1      23.683  15.154   1.933  0.00  0.00     0.157 HD
ENDBRANCH   8  46
TORSDOF 16
ENDMDL
MODEL 8
REMARK VINA RESULT:      -6.9      7.774     12.053
REMARK  16 active torsions:
REMARK  status: ('A' for Active; 'I' for Inactive)
REMARK    1  A    between atoms: C_2  and  N_30 
REMARK       I    between atoms: C_5  and  N_10 
REMARK    2  A    between atoms: C_8  and  N_9 
REMARK    3  A    between atoms: N_10  and  C_11 
REMARK    4  A    between atoms: C_12  and  C_11 
REMARK    5  A    between atoms: C_15  and  C_18 
REMARK    6  A    between atoms: C_18  and  N_19 
REMARK    7  A    between atoms: N_19  and  C_20 
REMARK    8  A    between atoms: C_20  and  C_21 
REMARK    9  A    between atoms: C_21  and  C_22 
REMARK   10  A    between atoms: C_22  and  N_23 
REMARK   11  A    between atoms: N_23  and  C_24 
REMARK   12  A    between atoms: N_33  and  C_36 
REMARK   13  A    between atoms: C_36  and  C_37 
REMARK   14  A    between atoms: C_37  and  P_38 
REMARK   15  A    between atoms: P_38  and  O_40 
REMARK   16  A    between atoms: P_38  and  O_41 
ROOT
HETATM    1  C   UNK N   1      34.332  12.893   9.948  0.00  0.00     0.097 A 
HETATM    2  C   UNK N   1      34.724  14.229  10.094  0.00  0.00     0.122 A 
HETATM    3  N   UNK N   1      33.899  15.210   9.653  0.00  0.00    -0.177 N 
ATOM      4  HN  UNK N   1      34.175  16.185   9.776  1.00  0.00     0.185 HD
HETATM    5  C   UNK N   1      32.720  14.929   9.053  0.00  0.00     0.681 A 
HETATM    6  N   UNK N   1      32.339  13.638   8.868  0.00  0.00    -0.177 N 
ATOM      7  HN  UNK N   1      31.464  13.432   8.383  1.00  0.00     0.185 HD
HETATM    8  C   UNK N   1      33.114  12.619   9.324  0.00  0.00     0.118 A 
HETATM    9  N   UNK N   1      31.981  15.988   8.492  0.00  0.00    -0.226 N 
HETATM   10  H   UNK N   1      31.569  16.664   9.078  0.00  0.00     0.177 HD
ENDROOT
BRANCH   9  11
HETATM   11  C   UNK N   1      31.826  16.087   7.062  0.00  0.00     0.142 C 
BRANCH  11  12
HETATM   12  C   UNK N   1      33.192  16.239   6.365  0.00  0.00     0.004 C 
HETATM   13  C   UNK N   1      33.367  17.552   5.577  0.00  0.00     0.007 C 
HETATM   14  C   UNK N   1      32.527  17.557   4.306  0.00  0.00     0.007 C 
HETATM   15  C   UNK N   1      32.783  16.316   3.441  0.00  0.00     0.003 C 
HETATM   16  C   UNK N   1      33.797  15.332   4.049  0.00  0.00     0.007 C 
HETATM   17  C   UNK N   1      33.486  15.001   5.516  0.00  0.00     0.007 C 
BRANCH  15  18
HETATM   18  C   UNK N   1      31.469  15.649   3.044  0.00  0.00     0.118 C 
BRANCH  18  19
HETATM   19  N   UNK N   1      30.459  16.641   2.707  0.00  0.00    -0.421 N 
HETATM   20  H   UNK N   1      30.627  17.624   2.493  0.00  0.00     0.153 HD
BRANCH  19  21
HETATM   21  C   UNK N   1      29.166  15.979   2.732  0.00  0.00     0.115 C 
BRANCH  21  22
HETATM   22  C   UNK N   1      28.825  15.554   4.150  0.00  0.00     0.038 C 
BRANCH  22  23
HETATM   23  C   UNK N   1      28.043  16.645   4.864  0.00  0.00     0.115 C 
BRANCH  23  24
HETATM   24  N   UNK N   1      28.981  17.616   5.401  0.00  0.00    -0.417 N 
HETATM   25  H   UNK N   1      29.871  17.381   5.841  0.00  0.00     0.153 HD
BRANCH  24  26
HETATM   26  C   UNK N   1      28.475  18.977   5.225  0.00  0.00     0.076 C 
HETATM   27  C   UNK N   1      27.812  19.508   6.507  0.00  0.00     0.024 C 
HETATM   28  C   UNK N   1      27.220  20.891   6.275  0.00  0.00     0.002 C 
HETATM   29  C   UNK N   1      26.168  20.809   5.178  0.00  0.00     0.000 C 
HETATM   30  C   UNK N   1      26.809  20.316   3.885  0.00  0.00     0.002 C 
HETATM   31  C   UNK N   1      27.445  18.945   4.096  0.00  0.00     0.024 C 
ENDBRANCH  24  26
ENDBRANCH  23  24
ENDBRANCH  22  23
ENDBRANCH  21  22
ENDBRANCH  19  21
ENDBRANCH  18  19
ENDBRANCH  15  18
ENDBRANCH  11  12
ENDBRANCH   9  11
BRANCH   2  32
HETATM   32  N   UNK N   1      35.950  14.579  10.725  0.00  0.00    -0.363 N 
HETATM   33  C   UNK N   1      37.129  13.801  10.485  0.00  0.00     0.154 C 
HETATM   34  C   UNK N   1      37.171  12.742  11.584  0.00  0.00     0.292 C 
HETATM   35  N   UNK N   1      37.038  13.313  12.939  0.00  0.00     0.092 N 
HETATM   36  C   UNK N   1      35.934  14.281  13.071  0.00  0.00     0.292 C 
HETATM   37  C   UNK N   1      35.923  15.314  11.956  0.00  0.00     0.154 C 
BRANCH  35  38
HETATM   38  C   UNK N   1      36.613  12.198  13.772  0.00  0.00     0.284 C 
BRANCH  38  39
HETATM   39  C   UNK N   1      36.696  12.503  15.259  0.00  0.00     0.155 C 
BRANCH  39  40
HETATM   40  P   UNK N   1      35.123  12.084  16.165  0.00  0.00     0.237 P 
HETATM   41  O   UNK N   1      34.051  13.167  15.873  0.00  0.00    -0.653 OA
BRANCH  40  42
HETATM   42  O   UNK N   1      35.225  12.041  17.897  0.00  0.00    -0.329 OA
HETATM   43  H   UNK N   1      36.063  12.238  18.345  0.00  0.00     0.220 HD
ENDBRANCH  40  42
BRANCH  40  44
HETATM   44  O   UNK N   1      34.376  10.607  15.649  0.00  0.00    -0.329 OA
HETATM   45  H   UNK N   1      34.002   9.853  15.163  0.00  0.00     0.220 HD
ENDBRANCH  40  44
ENDBRANCH  39  40
ENDBRANCH  38  39
ENDBRANCH  35  38
ENDBRANCH   2  32
BRANCH   8  46
HETATM   46  N   UNK N   1      32.697  11.286   9.150  0.00  0.00    -0.385 N 
HETATM   47  H   UNK N   1      31.807  11.077   8.786  0.00  0.00     0.157 HD
HETATM   48  H   UNK N   1      33.304  10.551   9.397  0.00  0.00     0.157 HD
ENDBRANCH   8  46
TORSDOF 16
ENDMDL
MODEL 9
REMARK VINA RESULT:      -6.9      6.254     10.798
REMARK  16 active torsions:
REMARK  status: ('A' for Active; 'I' for Inactive)
REMARK    1  A    between atoms: C_2  and  N_30 
REMARK       I    between atoms: C_5  and  N_10 
REMARK    2  A    between atoms: C_8  and  N_9 
REMARK    3  A    between atoms: N_10  and  C_11 
REMARK    4  A    between atoms: C_12  and  C_11 
REMARK    5  A    between atoms: C_15  and  C_18 
REMARK    6  A    between atoms: C_18  and  N_19 
REMARK    7  A    between atoms: N_19  and  C_20 
REMARK    8  A    between atoms: C_20  and  C_21 
REMARK    9  A    between atoms: C_21  and  C_22 
REMARK   10  A    between atoms: C_22  and  N_23 
REMARK   11  A    between atoms: N_23  and  C_24 
REMARK   12  A    between atoms: N_33  and  C_36 
REMARK   13  A    between atoms: C_36  and  C_37 
REMARK   14  A    between atoms: C_37  and  P_38 
REMARK   15  A    between atoms: P_38  and  O_40 
REMARK   16  A    between atoms: P_38  and  O_41 
ROOT
HETATM    1  C   UNK N   1      31.887  15.174   5.400  0.00  0.00     0.097 A 
HETATM    2  C   UNK N   1      31.990  16.302   6.222  0.00  0.00     0.122 A 
HETATM    3  N   UNK N   1      30.869  16.806   6.795  0.00  0.00    -0.177 N 
ATOM      4  HN  UNK N   1      30.946  17.617   7.410  1.00  0.00     0.185 HD
HETATM    5  C   UNK N   1      29.653  16.259   6.573  0.00  0.00     0.681 A 
HETATM    6  N   UNK N   1      29.526  15.186   5.748  0.00  0.00    -0.177 N 
ATOM      7  HN  UNK N   1      28.601  14.800   5.557  1.00  0.00     0.185 HD
HETATM    8  C   UNK N   1      30.624  14.623   5.177  0.00  0.00     0.118 A 
HETATM    9  N   UNK N   1      28.516  16.915   7.084  0.00  0.00    -0.226 N 
HETATM   10  H   UNK N   1      28.367  16.954   8.057  0.00  0.00     0.177 HD
ENDROOT
BRANCH   9  11
HETATM   11  C   UNK N   1      27.570  17.532   6.187  0.00  0.00     0.142 C 
BRANCH  11  12
HETATM   12  C   UNK N   1      28.129  18.849   5.613  0.00  0.00     0.004 C 
HETATM   13  C   UNK N   1      27.616  20.123   6.314  0.00  0.00     0.007 C 
HETATM   14  C   UNK N   1      26.155  20.396   5.976  0.00  0.00     0.007 C 
HETATM   15  C   UNK N   1      25.908  20.421   4.462  0.00  0.00     0.003 C 
HETATM   16  C   UNK N   1      27.166  20.138   3.622  0.00  0.00     0.007 C 
HETATM   17  C   UNK N   1      27.920  18.888   4.098  0.00  0.00     0.007 C 
BRANCH  15  18
HETATM   18  C   UNK N   1      24.728  19.527   4.089  0.00  0.00     0.118 C 
BRANCH  18  19
HETATM   19  N   UNK N   1      24.375  18.640   5.187  0.00  0.00    -0.421 N 
HETATM   20  H   UNK N   1      24.282  18.903   6.169  0.00  0.00     0.153 HD
BRANCH  19  21
HETATM   21  C   UNK N   1      24.178  17.312   4.635  0.00  0.00     0.115 C 
BRANCH  21  22
HETATM   22  C   UNK N   1      23.906  16.318   5.750  0.00  0.00     0.038 C 
BRANCH  22  23
HETATM   23  C   UNK N   1      22.414  16.205   6.017  0.00  0.00     0.115 C 
BRANCH  23  24
HETATM   24  N   UNK N   1      22.106  14.830   6.373  0.00  0.00    -0.417 N 
HETATM   25  H   UNK N   1      21.961  14.076   5.701  0.00  0.00     0.153 HD
BRANCH  24  26
HETATM   26  C   UNK N   1      22.032  14.675   7.825  0.00  0.00     0.076 C 
HETATM   27  C   UNK N   1      22.876  13.485   8.314  0.00  0.00     0.024 C 
HETATM   28  C   UNK N   1      22.717  13.292   9.815  0.00  0.00     0.002 C 
HETATM   29  C   UNK N   1      21.254  13.017  10.134  0.00  0.00     0.000 C 
HETATM   30  C   UNK N   1      20.399  14.199   9.688  0.00  0.00     0.002 C 
HETATM   31  C   UNK N   1      20.566  14.442   8.191  0.00  0.00     0.024 C 
ENDBRANCH  24  26
ENDBRANCH  23  24
ENDBRANCH  22  23
ENDBRANCH  21  22
ENDBRANCH  19  21
ENDBRANCH  18  19
ENDBRANCH  15  18
ENDBRANCH  11  12
ENDBRANCH   9  11
BRANCH   2  32
HETATM   32  N   UNK N   1      33.247  16.911   6.494  0.00  0.00    -0.363 N 
HETATM   33  C   UNK N   1      34.461  16.185   6.267  0.00  0.00     0.154 C 
HETATM   34  C   UNK N   1      34.802  15.502   7.590  0.00  0.00     0.292 C 
HETATM   35  N   UNK N   1      34.811  16.435   8.734  0.00  0.00     0.092 N 
HETATM   36  C   UNK N   1      33.631  17.316   8.793  0.00  0.00     0.292 C 
HETATM   37  C   UNK N   1      33.321  17.971   7.457  0.00  0.00     0.154 C 
BRANCH  35  38
HETATM   38  C   UNK N   1      34.660  15.586   9.906  0.00  0.00     0.284 C 
BRANCH  38  39
HETATM   39  C   UNK N   1      35.967  15.367  10.652  0.00  0.00     0.155 C 
BRANCH  39  40
HETATM   40  P   UNK N   1      35.903  13.895  11.792  0.00  0.00     0.237 P 
HETATM   41  O   UNK N   1      36.284  12.612  11.007  0.00  0.00    -0.653 OA
BRANCH  40  42
HETATM   42  O   UNK N   1      34.354  13.527  12.483  0.00  0.00    -0.329 OA
HETATM   43  H   UNK N   1      33.932  12.669  12.315  0.00  0.00     0.220 HD
ENDBRANCH  40  42
BRANCH  40  44
HETATM   44  O   UNK N   1      37.054  13.948  13.089  0.00  0.00    -0.329 OA
HETATM   45  H   UNK N   1      37.820  13.864  13.680  0.00  0.00     0.220 HD
ENDBRANCH  40  44
ENDBRANCH  39  40
ENDBRANCH  38  39
ENDBRANCH  35  38
ENDBRANCH   2  32
BRANCH   8  46
HETATM   46  N   UNK N   1      30.485  13.496   4.346  0.00  0.00    -0.385 N 
HETATM   47  H   UNK N   1      30.293  13.596   3.385  0.00  0.00     0.157 HD
HETATM   48  H   UNK N   1      30.580  12.595   4.730  0.00  0.00     0.157 HD
ENDBRANCH   8  46
TORSDOF 16
ENDMDL
