REMARK  5 active torsions:
REMARK  status: ('A' for Active; 'I' for Inactive)
REMARK    1  A    between atoms: C_8  and  C_7 
REMARK       I    between atoms: N_13  and  C_14 
REMARK       I    between atoms: C_14  and  N_16 
REMARK    2  A    between atoms: N_16  and  C_18 
REMARK    3  A    between atoms: C_18  and  C_20 
REMARK    4  A    between atoms: C_22  and  C_30 
REMARK    5  A    between atoms: C_24  and  C_26 
ROOT
HETATM    1  C   UNK N   1       2.113  -2.649   1.055  0.00  0.00     0.140 C 
HETATM    2  C   UNK N   1       2.046  -1.120   1.043  0.00  0.00     0.144 C 
HETATM    3  N   UNK N   1       3.382  -0.595   0.748  0.00  0.00    -0.417 N 
HETATM    4  C   UNK N   1       3.796  -0.926  -0.628  0.00  0.00     0.133 C 
HETATM    5  C   UNK N   1       3.232  -2.263  -1.139  0.00  0.00     0.147 C 
HETATM    6  N   UNK N   1       2.966  -3.147  -0.024  0.00  0.00    -0.322 N 
HETATM    7  C   UNK N   1       3.277  -4.482  -0.106  0.00  0.00     0.321 C 
HETATM    8  O   UNK N   1       3.579  -4.946  -1.205  0.00  0.00    -0.247 OA
HETATM    9  N   UNK N   1       3.219  -5.325   0.986  0.00  0.00    -0.330 N 
HETATM   10  C   UNK N   1       3.229  -4.821   2.343  0.00  0.00     0.155 C 
HETATM   11  H   UNK N   1       3.952  -0.068   1.410  0.00  0.00     0.153 HD
ENDROOT
BRANCH   9  12
HETATM   12  C   UNK N   1       3.211  -6.767   0.854  0.00  0.00     0.117 C 
HETATM   13  C   UNK N   1       1.995  -7.223   0.053  0.00  0.00     0.037 C 
BRANCH  12  14
HETATM   14  C   UNK N   1       4.489  -7.359   0.355  0.00  0.00    -0.034 A 
HETATM   15  C   UNK N   1       5.606  -6.567   0.074  0.00  0.00     0.025 A 
HETATM   16  C   UNK N   1       6.802  -7.149  -0.347  0.00  0.00     0.049 A 
HETATM   17  C   UNK N   1       6.874  -8.545  -0.501  0.00  0.00     0.032 A 
HETATM   18  C   UNK N   1       5.761  -9.347  -0.192  0.00  0.00     0.049 A 
HETATM   19  C   UNK N   1       4.584  -8.743   0.249  0.00  0.00     0.025 A 
BRANCH  16  20
HETATM   20  C   UNK N   1       8.001  -6.270  -0.546  0.00  0.00     0.417 C 
HETATM   21  F   UNK N   1       8.279  -5.621   0.645  0.00  0.00    -0.166 F 
HETATM   22  F   UNK N   1       9.110  -7.010  -0.915  0.00  0.00    -0.166 F 
HETATM   23  F   UNK N   1       7.741  -5.325  -1.521  0.00  0.00    -0.166 F 
ENDBRANCH  16  20
BRANCH  18  24
HETATM   24  C   UNK N   1       5.840 -10.843  -0.265  0.00  0.00     0.417 C 
HETATM   25  F   UNK N   1       5.823 -11.253  -1.584  0.00  0.00    -0.166 F 
HETATM   26  F   UNK N   1       7.007 -11.275   0.337  0.00  0.00    -0.166 F 
HETATM   27  F   UNK N   1       4.768 -11.420   0.397  0.00  0.00    -0.166 F 
ENDBRANCH  18  24
ENDBRANCH  12  14
ENDBRANCH   9  12
BRANCH   1  28
HETATM   28  C   UNK N   1       0.761  -3.338   0.906  0.00  0.00    -0.028 A 
HETATM   29  C   UNK N   1       0.459  -4.394   1.778  0.00  0.00     0.013 A 
HETATM   30  C   UNK N   1      -0.632  -5.229   1.546  0.00  0.00     0.043 A 
HETATM   31  C   UNK N   1      -1.450  -5.011   0.441  0.00  0.00     0.117 A 
HETATM   32  C   UNK N   1      -1.205  -3.929  -0.405  0.00  0.00     0.049 A 
HETATM   33  F   UNK N   1      -2.469  -5.863   0.177  0.00  0.00    -0.206 F 
HETATM   34  C   UNK N   1      -0.109  -3.088  -0.185  0.00  0.00    -0.051 A 
HETATM   35  C   UNK N   1       0.131  -1.982  -1.155  0.00  0.00     0.049 C 
ENDBRANCH   1  28
TORSDOF 5
