MODEL 1
REMARK VINA RESULT:      -8.3      0.000      0.000
REMARK  4 active torsions:
REMARK  status: ('A' for Active; 'I' for Inactive)
REMARK    1  A    between atoms: C_5  and  N_7 
REMARK       I    between atoms: N_7  and  C_8 
REMARK       I    between atoms: C_8  and  N_10 
REMARK    2  A    between atoms: C_11  and  N_10 
REMARK    3  A    between atoms: N_14  and  C_16 
REMARK    4  A    between atoms: C_19  and  C_23 
ROOT
HETATM    1  C   UNK N   1      35.547  14.805  11.385  0.00  0.00     0.105 C 
HETATM    2  C   UNK N   1      35.942  14.001  10.138  0.00  0.00     0.046 C 
HETATM    3  C   UNK N   1      35.731  14.961   8.974  0.00  0.00     0.126 C 
HETATM    4  N   UNK N   1      35.182  16.132   9.596  0.00  0.00    -0.365 N 
HETATM    5  C   UNK N   1      35.586  16.256  10.963  0.00  0.00     0.149 C 
ENDROOT
BRANCH   1   6
HETATM    6  N   UNK N   1      36.365  14.477  12.533  0.00  0.00    -0.337 N 
HETATM    7  C   UNK N   1      35.966  13.640  13.521  0.00  0.00     0.321 C 
HETATM    8  N   UNK N   1      36.723  13.534  14.639  0.00  0.00    -0.308 N 
HETATM    9  O   UNK N   1      34.909  13.029  13.426  0.00  0.00    -0.247 OA
HETATM   10  H   UNK N   1      37.640  13.891  14.616  0.00  0.00     0.170 HD
HETATM   11  H   UNK N   1      37.258  14.884  12.600  0.00  0.00     0.164 HD
BRANCH   8  12
HETATM   12  C   UNK N   1      36.264  12.938  15.844  0.00  0.00     0.053 A 
HETATM   13  C   UNK N   1      36.396  11.545  16.094  0.00  0.00     0.037 A 
HETATM   14  C   UNK N   1      35.897  11.008  17.283  0.00  0.00     0.021 A 
HETATM   15 Br   UNK N   1      37.153  10.313  14.828  0.00  0.00    -0.049 Br
HETATM   16  C   UNK N   1      35.269  11.827  18.220  0.00  0.00     0.002 A 
HETATM   17  C   UNK N   1      35.116  13.190  17.966  0.00  0.00     0.002 A 
HETATM   18  C   UNK N   1      35.604  13.741  16.779  0.00  0.00     0.031 A 
ENDBRANCH   8  12
ENDBRANCH   1   6
BRANCH   4  19
HETATM   19  C   UNK N   1      33.896  16.595   9.201  0.00  0.00     0.102 A 
HETATM   20  C   UNK N   1      33.774  17.772   8.446  0.00  0.00     0.049 A 
HETATM   21  C   UNK N   1      32.540  18.122   7.909  0.00  0.00     0.021 A 
HETATM   22  C   UNK N   1      31.431  17.299   8.123  0.00  0.00     0.063 A 
HETATM   23  C   UNK N   1      31.578  16.155   8.914  0.00  0.00     0.106 A 
HETATM   24  N   UNK N   1      32.794  15.826   9.426  0.00  0.00    -0.352 N 
ATOM     25  HN  UNK N   1      32.884  14.983   9.992  1.00  0.00     0.166 HD
BRANCH  22  26
HETATM   26  C   UNK N   1      30.113  17.605   7.479  0.00  0.00     0.418 C 
HETATM   27  F   UNK N   1      30.288  17.801   6.123  0.00  0.00    -0.166 F 
HETATM   28  F   UNK N   1      29.590  18.755   8.043  0.00  0.00    -0.166 F 
HETATM   29  F   UNK N   1      29.213  16.570   7.673  0.00  0.00    -0.166 F 
ENDBRANCH  22  26
ENDBRANCH   4  19
TORSDOF 4
ENDMDL
MODEL 2
REMARK VINA RESULT:      -7.8      1.904      2.738
REMARK  4 active torsions:
REMARK  status: ('A' for Active; 'I' for Inactive)
REMARK    1  A    between atoms: C_5  and  N_7 
REMARK       I    between atoms: N_7  and  C_8 
REMARK       I    between atoms: C_8  and  N_10 
REMARK    2  A    between atoms: C_11  and  N_10 
REMARK    3  A    between atoms: N_14  and  C_16 
REMARK    4  A    between atoms: C_19  and  C_23 
ROOT
HETATM    1  C   UNK N   1      34.787  15.660   9.019  0.00  0.00     0.105 C 
HETATM    2  C   UNK N   1      34.950  15.245   7.549  0.00  0.00     0.046 C 
HETATM    3  C   UNK N   1      34.323  16.381   6.752  0.00  0.00     0.126 C 
HETATM    4  N   UNK N   1      33.804  17.257   7.763  0.00  0.00    -0.365 N 
HETATM    5  C   UNK N   1      34.526  17.149   8.994  0.00  0.00     0.149 C 
ENDROOT
BRANCH   1   6
HETATM    6  N   UNK N   1      35.908  15.246   9.836  0.00  0.00    -0.337 N 
HETATM    7  C   UNK N   1      35.806  14.351  10.847  0.00  0.00     0.321 C 
HETATM    8  N   UNK N   1      36.868  14.162  11.667  0.00  0.00    -0.308 N 
HETATM    9  O   UNK N   1      34.753  13.761  11.049  0.00  0.00    -0.247 OA
HETATM   10  H   UNK N   1      37.744  14.507  11.382  0.00  0.00     0.170 HD
HETATM   11  H   UNK N   1      36.791  15.637   9.646  0.00  0.00     0.164 HD
BRANCH   8  12
HETATM   12  C   UNK N   1      36.784  13.493  12.918  0.00  0.00     0.053 A 
HETATM   13  C   UNK N   1      37.033  12.100  13.046  0.00  0.00     0.037 A 
HETATM   14  C   UNK N   1      36.904  11.488  14.295  0.00  0.00     0.021 A 
HETATM   15 Br   UNK N   1      37.456  10.962  11.555  0.00  0.00    -0.049 Br
HETATM   16  C   UNK N   1      36.530  12.234  15.412  0.00  0.00     0.002 A 
HETATM   17  C   UNK N   1      36.260  13.597  15.284  0.00  0.00     0.002 A 
HETATM   18  C   UNK N   1      36.379  14.221  14.041  0.00  0.00     0.031 A 
ENDBRANCH   8  12
ENDBRANCH   1   6
BRANCH   4  19
HETATM   19  C   UNK N   1      32.410  17.543   7.792  0.00  0.00     0.102 A 
HETATM   20  C   UNK N   1      31.571  17.048   6.782  0.00  0.00     0.049 A 
HETATM   21  C   UNK N   1      30.191  17.173   6.910  0.00  0.00     0.021 A 
HETATM   22  C   UNK N   1      29.651  17.789   8.042  0.00  0.00     0.063 A 
HETATM   23  C   UNK N   1      30.517  18.308   9.010  0.00  0.00     0.106 A 
HETATM   24  N   UNK N   1      31.863  18.171   8.870  0.00  0.00    -0.352 N 
ATOM     25  HN  UNK N   1      32.479  18.547   9.591  1.00  0.00     0.166 HD
BRANCH  22  26
HETATM   26  C   UNK N   1      28.168  17.854   8.247  0.00  0.00     0.418 C 
HETATM   27  F   UNK N   1      27.522  17.244   7.189  0.00  0.00    -0.166 F 
HETATM   28  F   UNK N   1      27.779  19.180   8.316  0.00  0.00    -0.166 F 
HETATM   29  F   UNK N   1      27.801  17.223   9.424  0.00  0.00    -0.166 F 
ENDBRANCH  22  26
ENDBRANCH   4  19
TORSDOF 4
ENDMDL
MODEL 3
REMARK VINA RESULT:      -7.5      5.204      9.477
REMARK  4 active torsions:
REMARK  status: ('A' for Active; 'I' for Inactive)
REMARK    1  A    between atoms: C_5  and  N_7 
REMARK       I    between atoms: N_7  and  C_8 
REMARK       I    between atoms: C_8  and  N_10 
REMARK    2  A    between atoms: C_11  and  N_10 
REMARK    3  A    between atoms: N_14  and  C_16 
REMARK    4  A    between atoms: C_19  and  C_23 
ROOT
HETATM    1  C   UNK N   1      35.083  15.789  11.036  0.00  0.00     0.105 C 
HETATM    2  C   UNK N   1      36.482  15.443  10.504  0.00  0.00     0.046 C 
HETATM    3  C   UNK N   1      36.617  13.940  10.711  0.00  0.00     0.126 C 
HETATM    4  N   UNK N   1      35.401  13.581  11.383  0.00  0.00    -0.365 N 
HETATM    5  C   UNK N   1      34.330  14.479  11.078  0.00  0.00     0.149 C 
ENDROOT
BRANCH   1   6
HETATM    6  N   UNK N   1      34.448  16.840  10.272  0.00  0.00    -0.337 N 
HETATM    7  C   UNK N   1      33.715  16.615   9.156  0.00  0.00     0.321 C 
HETATM    8  N   UNK N   1      33.310  17.671   8.410  0.00  0.00    -0.308 N 
HETATM    9  O   UNK N   1      33.466  15.470   8.798  0.00  0.00    -0.247 OA
HETATM   10  H   UNK N   1      33.367  18.570   8.807  0.00  0.00     0.170 HD
HETATM   11  H   UNK N   1      34.554  17.769  10.580  0.00  0.00     0.164 HD
BRANCH   8  12
HETATM   12  C   UNK N   1      32.810  17.551   7.086  0.00  0.00     0.053 A 
HETATM   13  C   UNK N   1      31.424  17.396   6.814  0.00  0.00     0.037 A 
HETATM   14  C   UNK N   1      30.992  17.250   5.494  0.00  0.00     0.021 A 
HETATM   15 Br   UNK N   1      30.085  17.281   8.190  0.00  0.00    -0.049 Br
HETATM   16  C   UNK N   1      31.910  17.251   4.446  0.00  0.00     0.002 A 
HETATM   17  C   UNK N   1      33.274  17.377   4.711  0.00  0.00     0.002 A 
HETATM   18  C   UNK N   1      33.722  17.518   6.026  0.00  0.00     0.031 A 
ENDBRANCH   8  12
ENDBRANCH   1   6
BRANCH   4  19
HETATM   19  C   UNK N   1      35.466  12.982  12.673  0.00  0.00     0.102 A 
HETATM   20  C   UNK N   1      36.424  13.416  13.602  0.00  0.00     0.049 A 
HETATM   21  C   UNK N   1      36.367  12.960  14.914  0.00  0.00     0.021 A 
HETATM   22  C   UNK N   1      35.357  12.074  15.299  0.00  0.00     0.063 A 
HETATM   23  C   UNK N   1      34.443  11.629  14.339  0.00  0.00     0.106 A 
HETATM   24  N   UNK N   1      34.511  12.091  13.061  0.00  0.00    -0.352 N 
ATOM     25  HN  UNK N   1      33.829  11.763  12.377  1.00  0.00     0.166 HD
BRANCH  22  26
HETATM   26  C   UNK N   1      35.220  11.640  16.727  0.00  0.00     0.418 C 
HETATM   27  F   UNK N   1      34.374  10.551  16.805  0.00  0.00    -0.166 F 
HETATM   28  F   UNK N   1      34.692  12.683  17.468  0.00  0.00    -0.166 F 
HETATM   29  F   UNK N   1      36.450  11.296  17.263  0.00  0.00    -0.166 F 
ENDBRANCH  22  26
ENDBRANCH   4  19
TORSDOF 4
ENDMDL
MODEL 4
REMARK VINA RESULT:      -7.5      2.158      2.862
REMARK  4 active torsions:
REMARK  status: ('A' for Active; 'I' for Inactive)
REMARK    1  A    between atoms: C_5  and  N_7 
REMARK       I    between atoms: N_7  and  C_8 
REMARK       I    between atoms: C_8  and  N_10 
REMARK    2  A    between atoms: C_11  and  N_10 
REMARK    3  A    between atoms: N_14  and  C_16 
REMARK    4  A    between atoms: C_19  and  C_23 
ROOT
HETATM    1  C   UNK N   1      36.599  13.248  10.870  0.00  0.00     0.105 C 
HETATM    2  C   UNK N   1      36.975  12.128   9.889  0.00  0.00     0.046 C 
HETATM    3  C   UNK N   1      37.148  12.827   8.547  0.00  0.00     0.126 C 
HETATM    4  N   UNK N   1      36.793  14.189   8.827  0.00  0.00    -0.365 N 
HETATM    5  C   UNK N   1      37.020  14.535  10.197  0.00  0.00     0.149 C 
ENDROOT
BRANCH   1   6
HETATM    6  N   UNK N   1      37.154  13.034  12.189  0.00  0.00    -0.337 N 
HETATM    7  C   UNK N   1      36.546  13.437  13.331  0.00  0.00     0.321 C 
HETATM    8  N   UNK N   1      37.223  13.353  14.501  0.00  0.00    -0.308 N 
HETATM    9  O   UNK N   1      35.421  13.919  13.297  0.00  0.00    -0.247 OA
HETATM   10  H   UNK N   1      38.041  12.807  14.528  0.00  0.00     0.170 HD
HETATM   11  H   UNK N   1      38.020  12.572  12.260  0.00  0.00     0.164 HD
BRANCH   8  12
HETATM   12  C   UNK N   1      36.816  14.012  15.692  0.00  0.00     0.053 A 
HETATM   13  C   UNK N   1      35.872  13.439  16.586  0.00  0.00     0.037 A 
HETATM   14  C   UNK N   1      35.484  14.146  17.726  0.00  0.00     0.021 A 
HETATM   15 Br   UNK N   1      35.008  11.751  16.269  0.00  0.00    -0.049 Br
HETATM   16  C   UNK N   1      36.013  15.410  17.988  0.00  0.00     0.002 A 
HETATM   17  C   UNK N   1      36.920  15.986  17.099  0.00  0.00     0.002 A 
HETATM   18  C   UNK N   1      37.313  15.293  15.952  0.00  0.00     0.031 A 
ENDBRANCH   8  12
ENDBRANCH   1   6
BRANCH   4  19
HETATM   19  C   UNK N   1      35.711  14.788   8.124  0.00  0.00     0.102 A 
HETATM   20  C   UNK N   1      34.759  15.552   8.817  0.00  0.00     0.049 A 
HETATM   21  C   UNK N   1      33.813  16.283   8.107  0.00  0.00     0.021 A 
HETATM   22  C   UNK N   1      33.817  16.254   6.710  0.00  0.00     0.063 A 
HETATM   23  C   UNK N   1      34.753  15.450   6.051  0.00  0.00     0.106 A 
HETATM   24  N   UNK N   1      35.675  14.747   6.762  0.00  0.00    -0.352 N 
ATOM     25  HN  UNK N   1      36.356  14.174   6.264  1.00  0.00     0.166 HD
BRANCH  22  26
HETATM   26  C   UNK N   1      32.867  17.103   5.922  0.00  0.00     0.418 C 
HETATM   27  F   UNK N   1      32.089  17.856   6.780  0.00  0.00    -0.166 F 
HETATM   28  F   UNK N   1      32.050  16.284   5.163  0.00  0.00    -0.166 F 
HETATM   29  F   UNK N   1      33.552  17.955   5.070  0.00  0.00    -0.166 F 
ENDBRANCH  22  26
ENDBRANCH   4  19
TORSDOF 4
ENDMDL
MODEL 5
REMARK VINA RESULT:      -7.3      1.565      2.012
REMARK  4 active torsions:
REMARK  status: ('A' for Active; 'I' for Inactive)
REMARK    1  A    between atoms: C_5  and  N_7 
REMARK       I    between atoms: N_7  and  C_8 
REMARK       I    between atoms: C_8  and  N_10 
REMARK    2  A    between atoms: C_11  and  N_10 
REMARK    3  A    between atoms: N_14  and  C_16 
REMARK    4  A    between atoms: C_19  and  C_23 
ROOT
HETATM    1  C   UNK N   1      35.129  12.638  11.986  0.00  0.00     0.105 C 
HETATM    2  C   UNK N   1      35.298  11.805  10.707  0.00  0.00     0.046 C 
HETATM    3  C   UNK N   1      35.512  12.829   9.600  0.00  0.00     0.126 C 
HETATM    4  N   UNK N   1      35.368  14.089  10.272  0.00  0.00    -0.365 N 
HETATM    5  C   UNK N   1      35.700  14.000  11.661  0.00  0.00     0.149 C 
ENDROOT
BRANCH   1   6
HETATM    6  N   UNK N   1      35.703  11.991  13.145  0.00  0.00    -0.337 N 
HETATM    7  C   UNK N   1      35.215  12.135  14.400  0.00  0.00     0.321 C 
HETATM    8  N   UNK N   1      35.923  11.636  15.442  0.00  0.00    -0.308 N 
HETATM    9  O   UNK N   1      34.177  12.754  14.595  0.00  0.00    -0.247 OA
HETATM   10  H   UNK N   1      36.648  11.000  15.250  0.00  0.00     0.170 HD
HETATM   11  H   UNK N   1      36.489  11.414  13.014  0.00  0.00     0.164 HD
BRANCH   8  12
HETATM   12  C   UNK N   1      35.675  11.984  16.798  0.00  0.00     0.053 A 
HETATM   13  C   UNK N   1      35.539  11.002  17.815  0.00  0.00     0.037 A 
HETATM   14  C   UNK N   1      35.264  11.400  19.125  0.00  0.00     0.021 A 
HETATM   15 Br   UNK N   1      35.622   9.112  17.476  0.00  0.00    -0.049 Br
HETATM   16  C   UNK N   1      35.119  12.751  19.438  0.00  0.00     0.002 A 
HETATM   17  C   UNK N   1      35.226  13.716  18.436  0.00  0.00     0.002 A 
HETATM   18  C   UNK N   1      35.495  13.333  17.120  0.00  0.00     0.031 A 
ENDBRANCH   8  12
ENDBRANCH   1   6
BRANCH   4  19
HETATM   19  C   UNK N   1      34.354  14.994   9.851  0.00  0.00     0.102 A 
HETATM   20  C   UNK N   1      34.702  16.272   9.386  0.00  0.00     0.049 A 
HETATM   21  C   UNK N   1      33.731  17.081   8.807  0.00  0.00     0.021 A 
HETATM   22  C   UNK N   1      32.418  16.618   8.691  0.00  0.00     0.063 A 
HETATM   23  C   UNK N   1      32.096  15.357   9.202  0.00  0.00     0.106 A 
HETATM   24  N   UNK N   1      33.060  14.576   9.760  0.00  0.00    -0.352 N 
ATOM     25  HN  UNK N   1      32.809  13.655  10.118  1.00  0.00     0.166 HD
BRANCH  22  26
HETATM   26  C   UNK N   1      31.375  17.434   7.989  0.00  0.00     0.418 C 
HETATM   27  F   UNK N   1      31.220  18.648   8.631  0.00  0.00    -0.166 F 
HETATM   28  F   UNK N   1      30.173  16.748   8.013  0.00  0.00    -0.166 F 
HETATM   29  F   UNK N   1      31.727  17.662   6.669  0.00  0.00    -0.166 F 
ENDBRANCH  22  26
ENDBRANCH   4  19
TORSDOF 4
ENDMDL
MODEL 6
REMARK VINA RESULT:      -7.0      5.202      9.830
REMARK  4 active torsions:
REMARK  status: ('A' for Active; 'I' for Inactive)
REMARK    1  A    between atoms: C_5  and  N_7 
REMARK       I    between atoms: N_7  and  C_8 
REMARK       I    between atoms: C_8  and  N_10 
REMARK    2  A    between atoms: C_11  and  N_10 
REMARK    3  A    between atoms: N_14  and  C_16 
REMARK    4  A    between atoms: C_19  and  C_23 
ROOT
HETATM    1  C   UNK N   1      32.976  15.226   8.746  0.00  0.00     0.105 C 
HETATM    2  C   UNK N   1      34.286  15.744   8.133  0.00  0.00     0.046 C 
HETATM    3  C   UNK N   1      35.371  14.852   8.722  0.00  0.00     0.126 C 
HETATM    4  N   UNK N   1      34.656  14.007   9.635  0.00  0.00    -0.365 N 
HETATM    5  C   UNK N   1      33.288  13.836   9.252  0.00  0.00     0.149 C 
ENDROOT
BRANCH   1   6
HETATM    6  N   UNK N   1      31.865  15.309   7.823  0.00  0.00    -0.337 N 
HETATM    7  C   UNK N   1      31.318  16.479   7.416  0.00  0.00     0.321 C 
HETATM    8  N   UNK N   1      30.172  16.453   6.693  0.00  0.00    -0.308 N 
HETATM    9  O   UNK N   1      31.822  17.547   7.741  0.00  0.00    -0.247 OA
HETATM   10  H   UNK N   1      29.889  15.597   6.300  0.00  0.00     0.170 HD
HETATM   11  H   UNK N   1      31.488  14.471   7.472  0.00  0.00     0.164 HD
BRANCH   8  12
HETATM   12  C   UNK N   1      29.355  17.595   6.475  0.00  0.00     0.053 A 
HETATM   13  C   UNK N   1      28.622  18.209   7.526  0.00  0.00     0.037 A 
HETATM   14  C   UNK N   1      27.809  19.310   7.248  0.00  0.00     0.021 A 
HETATM   15 Br   UNK N   1      28.607  17.546   9.330  0.00  0.00    -0.049 Br
HETATM   16  C   UNK N   1      27.712  19.806   5.948  0.00  0.00     0.002 A 
HETATM   17  C   UNK N   1      28.411  19.190   4.910  0.00  0.00     0.002 A 
HETATM   18  C   UNK N   1      29.222  18.084   5.172  0.00  0.00     0.031 A 
ENDBRANCH   8  12
ENDBRANCH   1   6
BRANCH   4  19
HETATM   19  C   UNK N   1      35.001  14.019  11.015  0.00  0.00     0.102 A 
HETATM   20  C   UNK N   1      34.906  12.842  11.774  0.00  0.00     0.049 A 
HETATM   21  C   UNK N   1      35.415  12.814  13.068  0.00  0.00     0.021 A 
HETATM   22  C   UNK N   1      36.016  13.955  13.604  0.00  0.00     0.063 A 
HETATM   23  C   UNK N   1      36.057  15.124  12.836  0.00  0.00     0.106 A 
HETATM   24  N   UNK N   1      35.560  15.131  11.570  0.00  0.00    -0.352 N 
ATOM     25  HN  UNK N   1      35.608  15.990  11.022  1.00  0.00     0.166 HD
BRANCH  22  26
HETATM   26  C   UNK N   1      36.653  13.924  14.960  0.00  0.00     0.418 C 
HETATM   27  F   UNK N   1      37.537  12.865  15.037  0.00  0.00    -0.166 F 
HETATM   28  F   UNK N   1      35.667  13.767  15.918  0.00  0.00    -0.166 F 
HETATM   29  F   UNK N   1      37.335  15.102  15.216  0.00  0.00    -0.166 F 
ENDBRANCH  22  26
ENDBRANCH   4  19
TORSDOF 4
ENDMDL
MODEL 7
REMARK VINA RESULT:      -6.9      5.186      9.505
REMARK  4 active torsions:
REMARK  status: ('A' for Active; 'I' for Inactive)
REMARK    1  A    between atoms: C_5  and  N_7 
REMARK       I    between atoms: N_7  and  C_8 
REMARK       I    between atoms: C_8  and  N_10 
REMARK    2  A    between atoms: C_11  and  N_10 
REMARK    3  A    between atoms: N_14  and  C_16 
REMARK    4  A    between atoms: C_19  and  C_23 
ROOT
HETATM    1  C   UNK N   1      33.691  14.656   9.444  0.00  0.00     0.105 C 
HETATM    2  C   UNK N   1      34.975  15.447   9.152  0.00  0.00     0.046 C 
HETATM    3  C   UNK N   1      36.092  14.618   9.773  0.00  0.00     0.126 C 
HETATM    4  N   UNK N   1      35.397  13.534  10.408  0.00  0.00    -0.365 N 
HETATM    5  C   UNK N   1      34.145  13.252   9.775  0.00  0.00     0.149 C 
ENDROOT
BRANCH   1   6
HETATM    6  N   UNK N   1      32.728  14.753   8.369  0.00  0.00    -0.337 N 
HETATM    7  C   UNK N   1      32.012  15.872   8.105  0.00  0.00     0.321 C 
HETATM    8  N   UNK N   1      31.010  15.812   7.196  0.00  0.00    -0.308 N 
HETATM    9  O   UNK N   1      32.233  16.909   8.718  0.00  0.00    -0.247 OA
HETATM   10  H   UNK N   1      30.969  15.031   6.598  0.00  0.00     0.170 HD
HETATM   11  H   UNK N   1      32.586  13.964   7.799  0.00  0.00     0.164 HD
BRANCH   8  12
HETATM   12  C   UNK N   1      30.012  16.815   7.060  0.00  0.00     0.053 A 
HETATM   13  C   UNK N   1      29.716  17.419   5.809  0.00  0.00     0.037 A 
HETATM   14  C   UNK N   1      28.748  18.423   5.740  0.00  0.00     0.021 A 
HETATM   15 Br   UNK N   1      30.651  16.993   4.184  0.00  0.00    -0.049 Br
HETATM   16  C   UNK N   1      28.076  18.837   6.889  0.00  0.00     0.002 A 
HETATM   17  C   UNK N   1      28.384  18.265   8.123  0.00  0.00     0.002 A 
HETATM   18  C   UNK N   1      29.353  17.263   8.209  0.00  0.00     0.031 A 
ENDBRANCH   8  12
ENDBRANCH   1   6
BRANCH   4  19
HETATM   19  C   UNK N   1      35.530  13.346  11.812  0.00  0.00     0.102 A 
HETATM   20  C   UNK N   1      36.358  14.198  12.560  0.00  0.00     0.049 A 
HETATM   21  C   UNK N   1      36.344  14.128  13.949  0.00  0.00     0.021 A 
HETATM   22  C   UNK N   1      35.506  13.213  14.590  0.00  0.00     0.063 A 
HETATM   23  C   UNK N   1      34.724  12.350  13.815  0.00  0.00     0.106 A 
HETATM   24  N   UNK N   1      34.747  12.437  12.457  0.00  0.00    -0.352 N 
ATOM     25  HN  UNK N   1      34.162  11.807  11.909  1.00  0.00     0.166 HD
BRANCH  22  26
HETATM   26  C   UNK N   1      35.404  13.181  16.085  0.00  0.00     0.418 C 
HETATM   27  F   UNK N   1      36.189  14.179  16.629  0.00  0.00    -0.166 F 
HETATM   28  F   UNK N   1      35.845  11.952  16.542  0.00  0.00    -0.166 F 
HETATM   29  F   UNK N   1      34.094  13.362  16.498  0.00  0.00    -0.166 F 
ENDBRANCH  22  26
ENDBRANCH   4  19
TORSDOF 4
ENDMDL
MODEL 8
REMARK VINA RESULT:      -6.8      5.578     10.174
REMARK  4 active torsions:
REMARK  status: ('A' for Active; 'I' for Inactive)
REMARK    1  A    between atoms: C_5  and  N_7 
REMARK       I    between atoms: N_7  and  C_8 
REMARK       I    between atoms: C_8  and  N_10 
REMARK    2  A    between atoms: C_11  and  N_10 
REMARK    3  A    between atoms: N_14  and  C_16 
REMARK    4  A    between atoms: C_19  and  C_23 
ROOT
HETATM    1  C   UNK N   1      32.541  16.945   7.544  0.00  0.00     0.105 C 
HETATM    2  C   UNK N   1      33.155  18.324   7.826  0.00  0.00     0.046 C 
HETATM    3  C   UNK N   1      34.551  18.027   8.359  0.00  0.00     0.126 C 
HETATM    4  N   UNK N   1      34.591  16.593   8.421  0.00  0.00    -0.365 N 
HETATM    5  C   UNK N   1      33.709  15.987   7.471  0.00  0.00     0.149 C 
ENDROOT
BRANCH   1   6
HETATM    6  N   UNK N   1      31.680  16.953   6.381  0.00  0.00    -0.337 N 
HETATM    7  C   UNK N   1      30.334  17.094   6.448  0.00  0.00     0.321 C 
HETATM    8  N   UNK N   1      29.598  16.911   5.325  0.00  0.00    -0.308 N 
HETATM    9  O   UNK N   1      29.788  17.331   7.517  0.00  0.00    -0.247 OA
HETATM   10  H   UNK N   1      30.064  16.899   4.459  0.00  0.00     0.170 HD
HETATM   11  H   UNK N   1      32.095  16.852   5.494  0.00  0.00     0.164 HD
BRANCH   8  12
HETATM   12  C   UNK N   1      28.188  16.733   5.333  0.00  0.00     0.053 A 
HETATM   13  C   UNK N   1      27.292  17.800   5.056  0.00  0.00     0.037 A 
HETATM   14  C   UNK N   1      25.915  17.576   5.109  0.00  0.00     0.021 A 
HETATM   15 Br   UNK N   1      27.871  19.598   4.695  0.00  0.00    -0.049 Br
HETATM   16  C   UNK N   1      25.416  16.316   5.435  0.00  0.00     0.002 A 
HETATM   17  C   UNK N   1      26.293  15.272   5.732  0.00  0.00     0.002 A 
HETATM   18  C   UNK N   1      27.673  15.483   5.689  0.00  0.00     0.031 A 
ENDBRANCH   8  12
ENDBRANCH   1   6
BRANCH   4  19
HETATM   19  C   UNK N   1      34.820  15.954   9.672  0.00  0.00     0.102 A 
HETATM   20  C   UNK N   1      34.917  14.556   9.739  0.00  0.00     0.049 A 
HETATM   21  C   UNK N   1      35.320  13.949  10.923  0.00  0.00     0.021 A 
HETATM   22  C   UNK N   1      35.627  14.734  12.037  0.00  0.00     0.063 A 
HETATM   23  C   UNK N   1      35.481  16.123  11.949  0.00  0.00     0.106 A 
HETATM   24  N   UNK N   1      35.091  16.699  10.780  0.00  0.00    -0.352 N 
ATOM     25  HN  UNK N   1      34.999  17.713  10.732  1.00  0.00     0.166 HD
BRANCH  22  26
HETATM   26  C   UNK N   1      36.152  14.112  13.295  0.00  0.00     0.418 C 
HETATM   27  F   UNK N   1      36.741  15.079  14.086  0.00  0.00    -0.166 F 
HETATM   28  F   UNK N   1      37.094  13.153  12.967  0.00  0.00    -0.166 F 
HETATM   29  F   UNK N   1      35.133  13.503  14.010  0.00  0.00    -0.166 F 
ENDBRANCH  22  26
ENDBRANCH   4  19
TORSDOF 4
ENDMDL
MODEL 9
REMARK VINA RESULT:      -6.7      6.463     11.236
REMARK  4 active torsions:
REMARK  status: ('A' for Active; 'I' for Inactive)
REMARK    1  A    between atoms: C_5  and  N_7 
REMARK       I    between atoms: N_7  and  C_8 
REMARK       I    between atoms: C_8  and  N_10 
REMARK    2  A    between atoms: C_11  and  N_10 
REMARK    3  A    between atoms: N_14  and  C_16 
REMARK    4  A    between atoms: C_19  and  C_23 
ROOT
HETATM    1  C   UNK N   1      28.418  17.234   7.931  0.00  0.00     0.105 C 
HETATM    2  C   UNK N   1      28.299  17.822   9.345  0.00  0.00     0.046 C 
HETATM    3  C   UNK N   1      29.650  18.472   9.612  0.00  0.00     0.126 C 
HETATM    4  N   UNK N   1      30.417  18.150   8.443  0.00  0.00    -0.365 N 
HETATM    5  C   UNK N   1      29.590  17.946   7.293  0.00  0.00     0.149 C 
ENDROOT
BRANCH   1   6
HETATM    6  N   UNK N   1      27.175  17.314   7.195  0.00  0.00    -0.337 N 
HETATM    7  C   UNK N   1      26.811  16.422   6.243  0.00  0.00     0.321 C 
HETATM    8  N   UNK N   1      25.717  16.678   5.485  0.00  0.00    -0.308 N 
HETATM    9  O   UNK N   1      27.491  15.425   6.035  0.00  0.00    -0.247 OA
HETATM   10  H   UNK N   1      25.098  17.382   5.785  0.00  0.00     0.170 HD
HETATM   11  H   UNK N   1      26.562  18.057   7.397  0.00  0.00     0.164 HD
BRANCH   8  12
HETATM   12  C   UNK N   1      25.418  15.987   4.280  0.00  0.00     0.053 A 
HETATM   13  C   UNK N   1      24.473  14.928   4.234  0.00  0.00     0.037 A 
HETATM   14  C   UNK N   1      24.242  14.262   3.028  0.00  0.00     0.021 A 
HETATM   15 Br   UNK N   1      23.537  14.279   5.783  0.00  0.00    -0.049 Br
HETATM   16  C   UNK N   1      24.935  14.628   1.875  0.00  0.00     0.002 A 
HETATM   17  C   UNK N   1      25.882  15.651   1.923  0.00  0.00     0.002 A 
HETATM   18  C   UNK N   1      26.129  16.322   3.123  0.00  0.00     0.031 A 
ENDBRANCH   8  12
ENDBRANCH   1   6
BRANCH   4  19
HETATM   19  C   UNK N   1      31.620  17.402   8.581  0.00  0.00     0.102 A 
HETATM   20  C   UNK N   1      32.857  18.004   8.302  0.00  0.00     0.049 A 
HETATM   21  C   UNK N   1      34.035  17.332   8.611  0.00  0.00     0.021 A 
HETATM   22  C   UNK N   1      33.980  16.066   9.198  0.00  0.00     0.063 A 
HETATM   23  C   UNK N   1      32.731  15.477   9.425  0.00  0.00     0.106 A 
HETATM   24  N   UNK N   1      31.590  16.152   9.121  0.00  0.00    -0.352 N 
ATOM     25  HN  UNK N   1      30.688  15.711   9.303  1.00  0.00     0.166 HD
BRANCH  22  26
HETATM   26  C   UNK N   1      35.232  15.361   9.625  0.00  0.00     0.418 C 
HETATM   27  F   UNK N   1      34.911  14.275  10.417  0.00  0.00    -0.166 F 
HETATM   28  F   UNK N   1      36.020  16.238  10.349  0.00  0.00    -0.166 F 
HETATM   29  F   UNK N   1      35.954  14.921   8.527  0.00  0.00    -0.166 F 
ENDBRANCH  22  26
ENDBRANCH   4  19
TORSDOF 4
ENDMDL
