REMARK  8 active torsions:
REMARK  status: ('A' for Active; 'I' for Inactive)
REMARK    1  A    between atoms: C_18  and  C_3 
REMARK    2  A    between atoms: O_26  and  C_18 
REMARK    3  A    between atoms: C_23  and  C_19 
REMARK    4  A    between atoms: C_23  and  C_20 
REMARK    5  A    between atoms: O_27  and  C_21 
REMARK    6  A    between atoms: C_23  and  C_22 
REMARK    7  A    between atoms: O_27  and  C_22 
REMARK    8  A    between atoms: O_26  and  C_23 
ROOT
HETATM    1  C   UNK N   1      -2.760   2.768  -0.486  0.00  0.00     0.203 C 
ENDROOT
BRANCH   1   2
HETATM    2  C   UNK N   1      -2.916   1.435   0.283  0.00  0.00    -0.009 A 
HETATM    3  C   UNK N   1      -2.044   1.094   1.336  0.00  0.00     0.011 A 
HETATM    4  C   UNK N   1      -2.079  -0.180   1.912  0.00  0.00     0.001 A 
HETATM    5  C   UNK N   1      -2.973  -1.141   1.434  0.00  0.00     0.000 A 
HETATM    6  C   UNK N   1      -3.842  -0.824   0.391  0.00  0.00     0.001 A 
HETATM    7  C   UNK N   1      -3.807   0.448  -0.184  0.00  0.00     0.011 A 
ENDBRANCH   1   2
BRANCH   1   8
HETATM    8  C   UNK N   1      -2.634   4.062   0.349  0.00  0.00    -0.009 A 
HETATM    9  C   UNK N   1      -3.378   5.207   0.005  0.00  0.00     0.011 A 
HETATM   10  C   UNK N   1      -3.172   6.426   0.653  0.00  0.00     0.001 A 
HETATM   11  C   UNK N   1      -2.202   6.529   1.649  0.00  0.00     0.000 A 
HETATM   12  C   UNK N   1      -1.450   5.408   2.007  0.00  0.00     0.001 A 
HETATM   13  C   UNK N   1      -1.660   4.185   1.359  0.00  0.00     0.011 A 
ENDBRANCH   1   8
BRANCH   1  14
HETATM   14  C   UNK N   1      -1.420   2.624  -1.189  0.00  0.00     0.304 C 
HETATM   15  O   UNK N   1      -1.337   2.644  -2.405  0.00  0.00    -0.261 OA
BRANCH  14  16
HETATM   16  O   UNK N   1      -0.319   2.426  -0.416  0.00  0.00    -0.313 OA
BRANCH  16  17
HETATM   17  C   UNK N   1       0.942   2.144  -0.867  0.00  0.00     0.135 C 
HETATM   18  C   UNK N   1       1.283   0.731  -0.391  0.00  0.00     0.062 C 
HETATM   19  C   UNK N   1       2.764   0.439  -0.596  0.00  0.00     0.274 C 
HETATM   20  N   UNK N   1       3.558   1.408   0.153  0.00  0.00     0.084 N 
HETATM   21  C   UNK N   1       4.954   1.063  -0.042  0.00  0.00     0.309 C 
HETATM   22  C   UNK N   1       3.348   2.729  -0.434  0.00  0.00     0.274 C 
HETATM   23  C   UNK N   1       1.897   3.158  -0.234  0.00  0.00     0.062 C 
ENDBRANCH  16  17
ENDBRANCH  14  16
ENDBRANCH   1  14
BRANCH   1  24
HETATM   24  O   UNK N   1      -3.786   2.907  -1.477  0.00  0.00    -0.360 OA
BRANCH  24  25
HETATM   25  C   UNK N   1      -5.057   2.948  -0.852  0.00  0.00     0.170 C 
BRANCH  25  26
HETATM   26  C   UNK N   1      -5.900   4.078  -1.405  0.00  0.00     0.022 C 
HETATM   27  C   UNK N   1      -6.954   4.455  -0.382  0.00  0.00     0.007 C 
ENDBRANCH  25  26
ENDBRANCH  24  25
ENDBRANCH   1  24
TORSDOF 8
