MODEL 1
REMARK VINA RESULT:      -7.7      0.000      0.000
REMARK  5 active torsions:
REMARK  status: ('A' for Active; 'I' for Inactive)
REMARK    1  A    between atoms: O_2  and  C_3 
REMARK    2  A    between atoms: C_6  and  N_13 
REMARK    3  A    between atoms: C_8  and  N_9 
REMARK       I    between atoms: N_9  and  C_10 
REMARK       I    between atoms: C_10  and  N_12 
REMARK    4  A    between atoms: N_13  and  S_14 
REMARK    5  A    between atoms: S_14  and  C_17 
ROOT
HETATM    1  N   UNK N   1      22.063  15.948   6.597  0.00  0.00    -0.280 N 
HETATM    2  H   UNK N   1      23.019  15.718   6.558  0.00  0.00     0.179 HD
ENDROOT
BRANCH   1   3
HETATM    3  C   UNK N   1      21.498  16.741   5.570  0.00  0.00     0.045 A 
HETATM    4  C   UNK N   1      21.777  18.106   5.516  0.00  0.00     0.033 A 
HETATM    5  C   UNK N   1      21.345  18.865   4.424  0.00  0.00     0.041 A 
HETATM    6  C   UNK N   1      20.618  18.281   3.378  0.00  0.00     0.095 A 
HETATM    7  C   UNK N   1      20.281  16.903   3.463  0.00  0.00     0.072 A 
HETATM    8  C   UNK N   1      20.744  16.154   4.553  0.00  0.00     0.062 A 
BRANCH   6   9
HETATM    9  O   UNK N   1      20.262  19.080   2.337  0.00  0.00    -0.354 OA
HETATM   10  C   UNK N   1      20.602  20.405   2.185  0.00  0.00     0.210 C 
ENDBRANCH   6   9
BRANCH   7  11
HETATM   11  N   UNK N   1      19.520  16.264   2.447  0.00  0.00    -0.306 N 
HETATM   12  C   UNK N   1      20.059  15.638   1.369  0.00  0.00     0.318 C 
HETATM   13  O   UNK N   1      19.328  15.198   0.501  0.00  0.00    -0.247 OA
HETATM   14  N   UNK N   1      21.392  15.432   1.283  0.00  0.00    -0.352 N 
HETATM   15  H   UNK N   1      22.111  14.883   0.893  0.00  0.00     0.160 HD
HETATM   16  H   UNK N   1      21.825  16.116   1.843  0.00  0.00     0.160 HD
HETATM   17  H   UNK N   1      18.539  16.276   2.531  0.00  0.00     0.170 HD
ENDBRANCH   7  11
ENDBRANCH   1   3
BRANCH   1  18
HETATM   18  S   UNK N   1      21.087  15.365   7.944  0.00  0.00     0.269 S 
HETATM   19  O   UNK N   1      20.733  16.635   8.731  0.00  0.00    -0.200 OA
HETATM   20  O   UNK N   1      19.722  15.051   7.313  0.00  0.00    -0.200 OA
BRANCH  18  21
HETATM   21  C   UNK N   1      21.653  14.057   9.050  0.00  0.00     0.163 A 
HETATM   22  C   UNK N   1      20.801  13.552  10.047  0.00  0.00     0.184 A 
HETATM   23  C   UNK N   1      21.257  12.560  10.924  0.00  0.00     0.198 A 
HETATM   24  F   UNK N   1      19.537  14.027  10.180  0.00  0.00    -0.201 F 
HETATM   25  C   UNK N   1      22.558  12.063  10.806  0.00  0.00     0.199 A 
HETATM   26  F   UNK N   1      20.436  12.086  11.894  0.00  0.00    -0.199 F 
HETATM   27  C   UNK N   1      23.409  12.561   9.818  0.00  0.00     0.198 A 
HETATM   28  F   UNK N   1      22.997  11.103  11.656  0.00  0.00    -0.199 F 
HETATM   29  C   UNK N   1      22.964  13.559   8.948  0.00  0.00     0.184 A 
HETATM   30  F   UNK N   1      24.674  12.084   9.708  0.00  0.00    -0.199 F 
HETATM   31  F   UNK N   1      23.819  14.050   8.022  0.00  0.00    -0.201 F 
ENDBRANCH  18  21
ENDBRANCH   1  18
TORSDOF 5
ENDMDL
MODEL 2
REMARK VINA RESULT:      -7.7      1.519      3.247
REMARK  5 active torsions:
REMARK  status: ('A' for Active; 'I' for Inactive)
REMARK    1  A    between atoms: O_2  and  C_3 
REMARK    2  A    between atoms: C_6  and  N_13 
REMARK    3  A    between atoms: C_8  and  N_9 
REMARK       I    between atoms: N_9  and  C_10 
REMARK       I    between atoms: C_10  and  N_12 
REMARK    4  A    between atoms: N_13  and  S_14 
REMARK    5  A    between atoms: S_14  and  C_17 
ROOT
HETATM    1  N   UNK N   1      22.699  15.140   6.663  0.00  0.00    -0.280 N 
HETATM    2  H   UNK N   1      23.661  15.073   6.860  0.00  0.00     0.179 HD
ENDROOT
BRANCH   1   3
HETATM    3  C   UNK N   1      22.282  15.589   5.388  0.00  0.00     0.045 A 
HETATM    4  C   UNK N   1      22.462  14.771   4.273  0.00  0.00     0.033 A 
HETATM    5  C   UNK N   1      21.921  15.143   3.038  0.00  0.00     0.041 A 
HETATM    6  C   UNK N   1      21.205  16.339   2.892  0.00  0.00     0.095 A 
HETATM    7  C   UNK N   1      21.076  17.202   4.013  0.00  0.00     0.072 A 
HETATM    8  C   UNK N   1      21.603  16.800   5.248  0.00  0.00     0.062 A 
BRANCH   6   9
HETATM    9  O   UNK N   1      20.684  16.614   1.667  0.00  0.00    -0.354 OA
HETATM   10  C   UNK N   1      19.893  15.771   0.919  0.00  0.00     0.210 C 
ENDBRANCH   6   9
BRANCH   7  11
HETATM   11  N   UNK N   1      20.387  18.442   3.917  0.00  0.00    -0.306 N 
HETATM   12  C   UNK N   1      20.992  19.636   3.684  0.00  0.00     0.318 C 
HETATM   13  O   UNK N   1      20.334  20.659   3.710  0.00  0.00    -0.247 OA
HETATM   14  N   UNK N   1      22.301  19.696   3.352  0.00  0.00    -0.352 N 
HETATM   15  H   UNK N   1      23.008  20.214   2.904  0.00  0.00     0.160 HD
HETATM   16  H   UNK N   1      22.725  18.881   3.707  0.00  0.00     0.160 HD
HETATM   17  H   UNK N   1      19.409  18.434   4.026  0.00  0.00     0.170 HD
ENDBRANCH   7  11
ENDBRANCH   1   3
BRANCH   1  18
HETATM   18  S   UNK N   1      21.530  14.697   7.905  0.00  0.00     0.269 S 
HETATM   19  O   UNK N   1      20.941  16.039   8.365  0.00  0.00    -0.200 OA
HETATM   20  O   UNK N   1      20.336  14.137   7.117  0.00  0.00    -0.200 OA
BRANCH  18  21
HETATM   21  C   UNK N   1      21.968  13.665   9.319  0.00  0.00     0.163 A 
HETATM   22  C   UNK N   1      23.298  13.262   9.519  0.00  0.00     0.184 A 
HETATM   23  C   UNK N   1      23.626  12.433  10.600  0.00  0.00     0.198 A 
HETATM   24  F   UNK N   1      24.275  13.656   8.664  0.00  0.00    -0.201 F 
HETATM   25  C   UNK N   1      22.633  12.012  11.487  0.00  0.00     0.199 A 
HETATM   26  F   UNK N   1      24.910  12.035  10.781  0.00  0.00    -0.199 F 
HETATM   27  C   UNK N   1      21.308  12.409  11.294  0.00  0.00     0.198 A 
HETATM   28  F   UNK N   1      22.952  11.210  12.533  0.00  0.00    -0.199 F 
HETATM   29  C   UNK N   1      20.973  13.225  10.211  0.00  0.00     0.184 A 
HETATM   30  F   UNK N   1      20.343  11.995  12.151  0.00  0.00    -0.199 F 
HETATM   31  F   UNK N   1      19.678  13.568  10.024  0.00  0.00    -0.201 F 
ENDBRANCH  18  21
ENDBRANCH   1  18
TORSDOF 5
ENDMDL
MODEL 3
REMARK VINA RESULT:      -7.6     12.104     15.134
REMARK  5 active torsions:
REMARK  status: ('A' for Active; 'I' for Inactive)
REMARK    1  A    between atoms: O_2  and  C_3 
REMARK    2  A    between atoms: C_6  and  N_13 
REMARK    3  A    between atoms: C_8  and  N_9 
REMARK       I    between atoms: N_9  and  C_10 
REMARK       I    between atoms: C_10  and  N_12 
REMARK    4  A    between atoms: N_13  and  S_14 
REMARK    5  A    between atoms: S_14  and  C_17 
ROOT
HETATM    1  N   UNK N   1      34.227  17.164   9.813  0.00  0.00    -0.280 N 
HETATM    2  H   UNK N   1      33.989  17.912  10.408  0.00  0.00     0.179 HD
ENDROOT
BRANCH   1   3
HETATM    3  C   UNK N   1      34.567  15.911  10.377  0.00  0.00     0.045 A 
HETATM    4  C   UNK N   1      34.110  14.737   9.780  0.00  0.00     0.033 A 
HETATM    5  C   UNK N   1      34.562  13.497  10.241  0.00  0.00     0.041 A 
HETATM    6  C   UNK N   1      35.462  13.406  11.312  0.00  0.00     0.095 A 
HETATM    7  C   UNK N   1      35.878  14.600  11.960  0.00  0.00     0.072 A 
HETATM    8  C   UNK N   1      35.434  15.834  11.467  0.00  0.00     0.062 A 
BRANCH   6   9
HETATM    9  O   UNK N   1      35.878  12.165  11.681  0.00  0.00    -0.354 OA
HETATM   10  C   UNK N   1      35.157  11.001  11.546  0.00  0.00     0.210 C 
ENDBRANCH   6   9
BRANCH   7  11
HETATM   11  N   UNK N   1      36.766  14.568  13.070  0.00  0.00    -0.306 N 
HETATM   12  C   UNK N   1      36.438  14.087  14.297  0.00  0.00     0.318 C 
HETATM   13  O   UNK N   1      37.232  14.185  15.214  0.00  0.00    -0.247 OA
HETATM   14  N   UNK N   1      35.270  13.437  14.497  0.00  0.00    -0.352 N 
HETATM   15  H   UNK N   1      34.782  12.782  15.048  0.00  0.00     0.160 HD
HETATM   16  H   UNK N   1      34.646  13.746  13.800  0.00  0.00     0.160 HD
HETATM   17  H   UNK N   1      37.677  14.917  12.940  0.00  0.00     0.170 HD
ENDBRANCH   7  11
ENDBRANCH   1   3
BRANCH   1  18
HETATM   18  S   UNK N   1      34.219  17.411   8.068  0.00  0.00     0.269 S 
HETATM   19  O   UNK N   1      34.936  18.756   7.874  0.00  0.00    -0.200 OA
HETATM   20  O   UNK N   1      35.301  16.453   7.547  0.00  0.00    -0.200 OA
BRANCH  18  21
HETATM   21  C   UNK N   1      32.705  17.339   7.090  0.00  0.00     0.163 A 
HETATM   22  C   UNK N   1      31.462  17.151   7.717  0.00  0.00     0.184 A 
HETATM   23  C   UNK N   1      30.294  17.062   6.950  0.00  0.00     0.198 A 
HETATM   24  F   UNK N   1      31.380  17.040   9.067  0.00  0.00    -0.201 F 
HETATM   25  C   UNK N   1      30.359  17.169   5.558  0.00  0.00     0.199 A 
HETATM   26  F   UNK N   1      29.098  16.867   7.558  0.00  0.00    -0.199 F 
HETATM   27  C   UNK N   1      31.592  17.356   4.929  0.00  0.00     0.198 A 
HETATM   28  F   UNK N   1      29.228  17.083   4.816  0.00  0.00    -0.199 F 
HETATM   29  C   UNK N   1      32.762  17.432   5.688  0.00  0.00     0.184 A 
HETATM   30  F   UNK N   1      31.656  17.452   3.577  0.00  0.00    -0.199 F 
HETATM   31  F   UNK N   1      33.947  17.577   5.053  0.00  0.00    -0.201 F 
ENDBRANCH  18  21
ENDBRANCH   1  18
TORSDOF 5
ENDMDL
MODEL 4
REMARK VINA RESULT:      -7.6     12.137     15.275
REMARK  5 active torsions:
REMARK  status: ('A' for Active; 'I' for Inactive)
REMARK    1  A    between atoms: O_2  and  C_3 
REMARK    2  A    between atoms: C_6  and  N_13 
REMARK    3  A    between atoms: C_8  and  N_9 
REMARK       I    between atoms: N_9  and  C_10 
REMARK       I    between atoms: C_10  and  N_12 
REMARK    4  A    between atoms: N_13  and  S_14 
REMARK    5  A    between atoms: S_14  and  C_17 
ROOT
HETATM    1  N   UNK N   1      34.211  17.132   9.795  0.00  0.00    -0.280 N 
HETATM    2  H   UNK N   1      33.983  17.880  10.393  0.00  0.00     0.179 HD
ENDROOT
BRANCH   1   3
HETATM    3  C   UNK N   1      34.545  15.876  10.354  0.00  0.00     0.045 A 
HETATM    4  C   UNK N   1      34.096  14.705   9.745  0.00  0.00     0.033 A 
HETATM    5  C   UNK N   1      34.543  13.462  10.203  0.00  0.00     0.041 A 
HETATM    6  C   UNK N   1      35.432  13.365  11.283  0.00  0.00     0.095 A 
HETATM    7  C   UNK N   1      35.839  14.555  11.944  0.00  0.00     0.072 A 
HETATM    8  C   UNK N   1      35.400  15.792  11.453  0.00  0.00     0.062 A 
BRANCH   6   9
HETATM    9  O   UNK N   1      35.844  12.122  11.649  0.00  0.00    -0.354 OA
HETATM   10  C   UNK N   1      37.021  11.519  11.269  0.00  0.00     0.210 C 
ENDBRANCH   6   9
BRANCH   7  11
HETATM   11  N   UNK N   1      36.715  14.516  13.063  0.00  0.00    -0.306 N 
HETATM   12  C   UNK N   1      36.373  14.028  14.284  0.00  0.00     0.318 C 
HETATM   13  O   UNK N   1      37.157  14.119  15.210  0.00  0.00    -0.247 OA
HETATM   14  N   UNK N   1      35.203  13.375  14.466  0.00  0.00    -0.352 N 
HETATM   15  H   UNK N   1      34.710  12.717  15.007  0.00  0.00     0.160 HD
HETATM   16  H   UNK N   1      34.588  13.688  13.764  0.00  0.00     0.160 HD
HETATM   17  H   UNK N   1      37.627  14.866  12.946  0.00  0.00     0.170 HD
ENDBRANCH   7  11
ENDBRANCH   1   3
BRANCH   1  18
HETATM   18  S   UNK N   1      34.193  17.382   8.051  0.00  0.00     0.269 S 
HETATM   19  O   UNK N   1      34.887  18.739   7.857  0.00  0.00    -0.200 OA
HETATM   20  O   UNK N   1      35.290  16.443   7.524  0.00  0.00    -0.200 OA
BRANCH  18  21
HETATM   21  C   UNK N   1      32.678  17.287   7.077  0.00  0.00     0.163 A 
HETATM   22  C   UNK N   1      32.720  17.430   5.680  0.00  0.00     0.184 A 
HETATM   23  C   UNK N   1      31.537  17.389   4.933  0.00  0.00     0.198 A 
HETATM   24  F   UNK N   1      33.902  17.623   5.042  0.00  0.00    -0.201 F 
HETATM   25  C   UNK N   1      30.309  17.197   5.574  0.00  0.00     0.199 A 
HETATM   26  F   UNK N   1      31.581  17.541   3.587  0.00  0.00    -0.199 F 
HETATM   27  C   UNK N   1      30.260  17.054   6.962  0.00  0.00     0.198 A 
HETATM   28  F   UNK N   1      29.164  17.157   4.849  0.00  0.00    -0.199 F 
HETATM   29  C   UNK N   1      31.436  17.107   7.714  0.00  0.00     0.184 A 
HETATM   30  F   UNK N   1      29.069  16.874   7.584  0.00  0.00    -0.199 F 
HETATM   31  F   UNK N   1      31.359  17.002   9.060  0.00  0.00    -0.201 F 
ENDBRANCH  18  21
ENDBRANCH   1  18
TORSDOF 5
ENDMDL
MODEL 5
REMARK VINA RESULT:      -7.5      2.165      2.758
REMARK  5 active torsions:
REMARK  status: ('A' for Active; 'I' for Inactive)
REMARK    1  A    between atoms: O_2  and  C_3 
REMARK    2  A    between atoms: C_6  and  N_13 
REMARK    3  A    between atoms: C_8  and  N_9 
REMARK       I    between atoms: N_9  and  C_10 
REMARK       I    between atoms: C_10  and  N_12 
REMARK    4  A    between atoms: N_13  and  S_14 
REMARK    5  A    between atoms: S_14  and  C_17 
ROOT
HETATM    1  N   UNK N   1      20.797  16.307   5.378  0.00  0.00    -0.280 N 
HETATM    2  H   UNK N   1      20.437  15.670   4.720  0.00  0.00     0.179 HD
ENDROOT
BRANCH   1   3
HETATM    3  C   UNK N   1      21.611  17.377   4.935  0.00  0.00     0.045 A 
HETATM    4  C   UNK N   1      22.991  17.321   5.122  0.00  0.00     0.033 A 
HETATM    5  C   UNK N   1      23.814  18.301   4.558  0.00  0.00     0.041 A 
HETATM    6  C   UNK N   1      23.274  19.357   3.811  0.00  0.00     0.095 A 
HETATM    7  C   UNK N   1      21.863  19.449   3.673  0.00  0.00     0.072 A 
HETATM    8  C   UNK N   1      21.057  18.443   4.225  0.00  0.00     0.062 A 
BRANCH   6   9
HETATM    9  O   UNK N   1      24.142  20.252   3.269  0.00  0.00    -0.354 OA
HETATM   10  C   UNK N   1      25.421  19.977   2.840  0.00  0.00     0.210 C 
ENDBRANCH   6   9
BRANCH   7  11
HETATM   11  N   UNK N   1      21.257  20.514   2.953  0.00  0.00    -0.306 N 
HETATM   12  C   UNK N   1      20.776  20.405   1.688  0.00  0.00     0.318 C 
HETATM   13  O   UNK N   1      20.357  21.394   1.115  0.00  0.00    -0.247 OA
HETATM   14  N   UNK N   1      20.687  19.199   1.082  0.00  0.00    -0.352 N 
HETATM   15  H   UNK N   1      20.236  18.663   0.391  0.00  0.00     0.160 HD
HETATM   16  H   UNK N   1      21.351  18.613   1.512  0.00  0.00     0.160 HD
HETATM   17  H   UNK N   1      21.182  21.388   3.401  0.00  0.00     0.170 HD
ENDBRANCH   7  11
ENDBRANCH   1   3
BRANCH   1  18
HETATM   18  S   UNK N   1      20.417  16.094   7.085  0.00  0.00     0.269 S 
HETATM   19  O   UNK N   1      20.830  17.425   7.733  0.00  0.00    -0.200 OA
HETATM   20  O   UNK N   1      18.888  16.229   7.151  0.00  0.00    -0.200 OA
BRANCH  18  21
HETATM   21  C   UNK N   1      21.027  14.693   8.043  0.00  0.00     0.163 A 
HETATM   22  C   UNK N   1      20.381  14.306   9.229  0.00  0.00     0.184 A 
HETATM   23  C   UNK N   1      20.879  13.239   9.986  0.00  0.00     0.198 A 
HETATM   24  F   UNK N   1      19.278  14.969   9.661  0.00  0.00    -0.201 F 
HETATM   25  C   UNK N   1      22.017  12.548   9.560  0.00  0.00     0.199 A 
HETATM   26  F   UNK N   1      20.260  12.879  11.137  0.00  0.00    -0.199 F 
HETATM   27  C   UNK N   1      22.664  12.928   8.382  0.00  0.00     0.198 A 
HETATM   28  F   UNK N   1      22.499  11.515  10.294  0.00  0.00    -0.199 F 
HETATM   29  C   UNK N   1      22.179  14.000   7.630  0.00  0.00     0.184 A 
HETATM   30  F   UNK N   1      23.773  12.262   7.973  0.00  0.00    -0.199 F 
HETATM   31  F   UNK N   1      22.844  14.370   6.512  0.00  0.00    -0.201 F 
ENDBRANCH  18  21
ENDBRANCH   1  18
TORSDOF 5
ENDMDL
MODEL 6
REMARK VINA RESULT:      -7.4     11.806     14.626
REMARK  5 active torsions:
REMARK  status: ('A' for Active; 'I' for Inactive)
REMARK    1  A    between atoms: O_2  and  C_3 
REMARK    2  A    between atoms: C_6  and  N_13 
REMARK    3  A    between atoms: C_8  and  N_9 
REMARK       I    between atoms: N_9  and  C_10 
REMARK       I    between atoms: C_10  and  N_12 
REMARK    4  A    between atoms: N_13  and  S_14 
REMARK    5  A    between atoms: S_14  and  C_17 
ROOT
HETATM    1  N   UNK N   1      33.544  17.636   8.932  0.00  0.00    -0.280 N 
HETATM    2  H   UNK N   1      33.863  18.560   9.044  0.00  0.00     0.179 HD
ENDROOT
BRANCH   1   3
HETATM    3  C   UNK N   1      34.404  16.561   9.261  0.00  0.00     0.045 A 
HETATM    4  C   UNK N   1      34.767  15.640   8.279  0.00  0.00     0.033 A 
HETATM    5  C   UNK N   1      35.729  14.664   8.558  0.00  0.00     0.041 A 
HETATM    6  C   UNK N   1      36.333  14.582   9.820  0.00  0.00     0.095 A 
HETATM    7  C   UNK N   1      35.916  15.480  10.839  0.00  0.00     0.072 A 
HETATM    8  C   UNK N   1      34.969  16.467  10.533  0.00  0.00     0.062 A 
BRANCH   6   9
HETATM    9  O   UNK N   1      37.282  13.625  10.003  0.00  0.00    -0.354 OA
HETATM   10  C   UNK N   1      37.182  12.308   9.617  0.00  0.00     0.210 C 
ENDBRANCH   6   9
BRANCH   7  11
HETATM   11  N   UNK N   1      36.471  15.424  12.146  0.00  0.00    -0.306 N 
HETATM   12  C   UNK N   1      36.119  14.511  13.088  0.00  0.00     0.318 C 
HETATM   13  O   UNK N   1      36.579  14.595  14.211  0.00  0.00    -0.247 OA
HETATM   14  N   UNK N   1      35.321  13.465  12.773  0.00  0.00    -0.352 N 
HETATM   15  H   UNK N   1      35.048  12.547  13.002  0.00  0.00     0.160 HD
HETATM   16  H   UNK N   1      34.793  13.733  11.987  0.00  0.00     0.160 HD
HETATM   17  H   UNK N   1      37.155  16.091  12.385  0.00  0.00     0.170 HD
ENDBRANCH   7  11
ENDBRANCH   1   3
BRANCH   1  18
HETATM   18  S   UNK N   1      31.914  17.351   8.327  0.00  0.00     0.269 S 
HETATM   19  O   UNK N   1      31.425  16.128   9.118  0.00  0.00    -0.200 OA
HETATM   20  O   UNK N   1      31.068  18.451   8.986  0.00  0.00    -0.200 OA
BRANCH  18  21
HETATM   21  C   UNK N   1      31.555  17.167   6.568  0.00  0.00     0.163 A 
HETATM   22  C   UNK N   1      30.275  16.778   6.141  0.00  0.00     0.184 A 
HETATM   23  C   UNK N   1      30.012  16.604   4.776  0.00  0.00     0.198 A 
HETATM   24  F   UNK N   1      29.285  16.553   7.042  0.00  0.00    -0.201 F 
HETATM   25  C   UNK N   1      31.020  16.825   3.834  0.00  0.00     0.199 A 
HETATM   26  F   UNK N   1      28.779  16.215   4.369  0.00  0.00    -0.199 F 
HETATM   27  C   UNK N   1      32.295  17.211   4.252  0.00  0.00     0.198 A 
HETATM   28  F   UNK N   1      30.764  16.656   2.513  0.00  0.00    -0.199 F 
HETATM   29  C   UNK N   1      32.567  17.374   5.613  0.00  0.00     0.184 A 
HETATM   30  F   UNK N   1      33.276  17.419   3.339  0.00  0.00    -0.199 F 
HETATM   31  F   UNK N   1      33.818  17.715   5.996  0.00  0.00    -0.201 F 
ENDBRANCH  18  21
ENDBRANCH   1  18
TORSDOF 5
ENDMDL
MODEL 7
REMARK VINA RESULT:      -7.4     11.819     14.751
REMARK  5 active torsions:
REMARK  status: ('A' for Active; 'I' for Inactive)
REMARK    1  A    between atoms: O_2  and  C_3 
REMARK    2  A    between atoms: C_6  and  N_13 
REMARK    3  A    between atoms: C_8  and  N_9 
REMARK       I    between atoms: N_9  and  C_10 
REMARK       I    between atoms: C_10  and  N_12 
REMARK    4  A    between atoms: N_13  and  S_14 
REMARK    5  A    between atoms: S_14  and  C_17 
ROOT
HETATM    1  N   UNK N   1      33.548  17.620   8.929  0.00  0.00    -0.280 N 
HETATM    2  H   UNK N   1      33.856  18.545   9.064  0.00  0.00     0.179 HD
ENDROOT
BRANCH   1   3
HETATM    3  C   UNK N   1      34.423  16.547   9.224  0.00  0.00     0.045 A 
HETATM    4  C   UNK N   1      34.772  15.643   8.221  0.00  0.00     0.033 A 
HETATM    5  C   UNK N   1      35.747  14.671   8.465  0.00  0.00     0.041 A 
HETATM    6  C   UNK N   1      36.378  14.576   9.713  0.00  0.00     0.095 A 
HETATM    7  C   UNK N   1      35.977  15.456  10.753  0.00  0.00     0.072 A 
HETATM    8  C   UNK N   1      35.016  16.440  10.481  0.00  0.00     0.062 A 
BRANCH   6   9
HETATM    9  O   UNK N   1      37.338  13.624   9.861  0.00  0.00    -0.354 OA
HETATM   10  C   UNK N   1      37.486  12.500   9.081  0.00  0.00     0.210 C 
ENDBRANCH   6   9
BRANCH   7  11
HETATM   11  N   UNK N   1      36.560  15.386  12.048  0.00  0.00    -0.306 N 
HETATM   12  C   UNK N   1      36.117  14.573  13.042  0.00  0.00     0.318 C 
HETATM   13  O   UNK N   1      36.620  14.646  14.148  0.00  0.00    -0.247 OA
HETATM   14  N   UNK N   1      35.177  13.633  12.800  0.00  0.00    -0.352 N 
HETATM   15  H   UNK N   1      34.790  12.772  13.082  0.00  0.00     0.160 HD
HETATM   16  H   UNK N   1      34.665  13.934  12.015  0.00  0.00     0.160 HD
HETATM   17  H   UNK N   1      37.334  15.964  12.235  0.00  0.00     0.170 HD
ENDBRANCH   7  11
ENDBRANCH   1   3
BRANCH   1  18
HETATM   18  S   UNK N   1      31.917  17.331   8.326  0.00  0.00     0.269 S 
HETATM   19  O   UNK N   1      31.421  16.127   9.140  0.00  0.00    -0.200 OA
HETATM   20  O   UNK N   1      31.076  18.449   8.961  0.00  0.00    -0.200 OA
BRANCH  18  21
HETATM   21  C   UNK N   1      31.562  17.115   6.570  0.00  0.00     0.163 A 
HETATM   22  C   UNK N   1      32.555  17.363   5.608  0.00  0.00     0.184 A 
HETATM   23  C   UNK N   1      32.263  17.225   4.245  0.00  0.00     0.198 A 
HETATM   24  F   UNK N   1      33.799  17.751   5.985  0.00  0.00    -0.201 F 
HETATM   25  C   UNK N   1      30.985  16.833   3.838  0.00  0.00     0.199 A 
HETATM   26  F   UNK N   1      33.221  17.480   3.319  0.00  0.00    -0.199 F 
HETATM   27  C   UNK N   1      29.994  16.585   4.789  0.00  0.00     0.198 A 
HETATM   28  F   UNK N   1      30.704  16.700   2.518  0.00  0.00    -0.199 F 
HETATM   29  C   UNK N   1      30.275  16.732   6.149  0.00  0.00     0.184 A 
HETATM   30  F   UNK N   1      28.752  16.210   4.393  0.00  0.00    -0.199 F 
HETATM   31  F   UNK N   1      29.289  16.521   7.050  0.00  0.00    -0.201 F 
ENDBRANCH  18  21
ENDBRANCH   1  18
TORSDOF 5
ENDMDL
MODEL 8
REMARK VINA RESULT:      -7.4     12.412     14.216
REMARK  5 active torsions:
REMARK  status: ('A' for Active; 'I' for Inactive)
REMARK    1  A    between atoms: O_2  and  C_3 
REMARK    2  A    between atoms: C_6  and  N_13 
REMARK    3  A    between atoms: C_8  and  N_9 
REMARK       I    between atoms: N_9  and  C_10 
REMARK       I    between atoms: C_10  and  N_12 
REMARK    4  A    between atoms: N_13  and  S_14 
REMARK    5  A    between atoms: S_14  and  C_17 
ROOT
HETATM    1  N   UNK N   1      34.658  13.362  10.100  0.00  0.00    -0.280 N 
HETATM    2  H   UNK N   1      33.997  12.640  10.001  0.00  0.00     0.179 HD
ENDROOT
BRANCH   1   3
HETATM    3  C   UNK N   1      34.606  14.475   9.227  0.00  0.00     0.045 A 
HETATM    4  C   UNK N   1      35.321  14.450   8.031  0.00  0.00     0.033 A 
HETATM    5  C   UNK N   1      35.158  15.479   7.097  0.00  0.00     0.041 A 
HETATM    6  C   UNK N   1      34.292  16.553   7.347  0.00  0.00     0.095 A 
HETATM    7  C   UNK N   1      33.612  16.609   8.593  0.00  0.00     0.072 A 
HETATM    8  C   UNK N   1      33.769  15.556   9.504  0.00  0.00     0.062 A 
BRANCH   6   9
HETATM    9  O   UNK N   1      34.165  17.497   6.377  0.00  0.00    -0.354 OA
HETATM   10  C   UNK N   1      33.356  17.408   5.267  0.00  0.00     0.210 C 
ENDBRANCH   6   9
BRANCH   7  11
HETATM   11  N   UNK N   1      32.745  17.689   8.914  0.00  0.00    -0.306 N 
HETATM   12  C   UNK N   1      31.437  17.752   8.553  0.00  0.00     0.318 C 
HETATM   13  O   UNK N   1      30.795  18.758   8.792  0.00  0.00    -0.247 OA
HETATM   14  N   UNK N   1      30.819  16.685   7.999  0.00  0.00    -0.352 N 
HETATM   15  H   UNK N   1      29.962  16.229   7.840  0.00  0.00     0.160 HD
HETATM   16  H   UNK N   1      31.519  16.134   7.580  0.00  0.00     0.160 HD
HETATM   17  H   UNK N   1      33.117  18.440   9.431  0.00  0.00     0.170 HD
ENDBRANCH   7  11
ENDBRANCH   1   3
BRANCH   1  18
HETATM   18  S   UNK N   1      35.884  13.246  11.361  0.00  0.00     0.269 S 
HETATM   19  O   UNK N   1      36.914  12.255  10.796  0.00  0.00    -0.200 OA
HETATM   20  O   UNK N   1      36.678  14.555  11.238  0.00  0.00    -0.200 OA
BRANCH  18  21
HETATM   21  C   UNK N   1      35.474  12.846  13.071  0.00  0.00     0.163 A 
HETATM   22  C   UNK N   1      34.594  11.791  13.363  0.00  0.00     0.184 A 
HETATM   23  C   UNK N   1      34.253  11.506  14.691  0.00  0.00     0.198 A 
HETATM   24  F   UNK N   1      34.054  11.046  12.365  0.00  0.00    -0.201 F 
HETATM   25  C   UNK N   1      34.795  12.266  15.732  0.00  0.00     0.199 A 
HETATM   26  F   UNK N   1      33.392  10.496  14.968  0.00  0.00    -0.199 F 
HETATM   27  C   UNK N   1      35.670  13.316  15.449  0.00  0.00     0.198 A 
HETATM   28  F   UNK N   1      34.464  11.990  17.018  0.00  0.00    -0.199 F 
HETATM   29  C   UNK N   1      36.004  13.613  14.125  0.00  0.00     0.184 A 
HETATM   30  F   UNK N   1      36.190  14.058  16.459  0.00  0.00    -0.199 F 
HETATM   31  F   UNK N   1      36.825  14.657  13.874  0.00  0.00    -0.201 F 
ENDBRANCH  18  21
ENDBRANCH   1  18
TORSDOF 5
ENDMDL
MODEL 9
REMARK VINA RESULT:      -7.3      1.718      3.142
REMARK  5 active torsions:
REMARK  status: ('A' for Active; 'I' for Inactive)
REMARK    1  A    between atoms: O_2  and  C_3 
REMARK    2  A    between atoms: C_6  and  N_13 
REMARK    3  A    between atoms: C_8  and  N_9 
REMARK       I    between atoms: N_9  and  C_10 
REMARK       I    between atoms: C_10  and  N_12 
REMARK    4  A    between atoms: N_13  and  S_14 
REMARK    5  A    between atoms: S_14  and  C_17 
ROOT
HETATM    1  N   UNK N   1      21.444  15.291   6.115  0.00  0.00    -0.280 N 
HETATM    2  H   UNK N   1      21.232  14.525   5.533  0.00  0.00     0.179 HD
ENDROOT
BRANCH   1   3
HETATM    3  C   UNK N   1      22.142  16.398   5.576  0.00  0.00     0.045 A 
HETATM    4  C   UNK N   1      23.536  16.406   5.580  0.00  0.00     0.033 A 
HETATM    5  C   UNK N   1      24.231  17.424   4.920  0.00  0.00     0.041 A 
HETATM    6  C   UNK N   1      23.550  18.455   4.259  0.00  0.00     0.095 A 
HETATM    7  C   UNK N   1      22.130  18.481   4.308  0.00  0.00     0.072 A 
HETATM    8  C   UNK N   1      21.451  17.439   4.953  0.00  0.00     0.062 A 
BRANCH   6   9
HETATM    9  O   UNK N   1      24.297  19.390   3.614  0.00  0.00    -0.354 OA
HETATM   10  C   UNK N   1      25.355  20.088   4.151  0.00  0.00     0.210 C 
ENDBRANCH   6   9
BRANCH   7  11
HETATM   11  N   UNK N   1      21.387  19.519   3.682  0.00  0.00    -0.306 N 
HETATM   12  C   UNK N   1      20.765  19.395   2.481  0.00  0.00     0.318 C 
HETATM   13  O   UNK N   1      20.229  20.365   1.978  0.00  0.00    -0.247 OA
HETATM   14  N   UNK N   1      20.670  18.192   1.871  0.00  0.00    -0.352 N 
HETATM   15  H   UNK N   1      20.169  17.638   1.230  0.00  0.00     0.160 HD
HETATM   16  H   UNK N   1      21.411  17.639   2.210  0.00  0.00     0.160 HD
HETATM   17  H   UNK N   1      21.319  20.382   4.150  0.00  0.00     0.170 HD
ENDBRANCH   7  11
ENDBRANCH   1   3
BRANCH   1  18
HETATM   18  S   UNK N   1      20.946  15.257   7.805  0.00  0.00     0.269 S 
HETATM   19  O   UNK N   1      21.173  16.696   8.294  0.00  0.00    -0.200 OA
HETATM   20  O   UNK N   1      19.411  15.234   7.746  0.00  0.00    -0.200 OA
BRANCH  18  21
HETATM   21  C   UNK N   1      21.609  14.063   8.983  0.00  0.00     0.163 A 
HETATM   22  C   UNK N   1      22.924  13.587   8.848  0.00  0.00     0.184 A 
HETATM   23  C   UNK N   1      23.422  12.635   9.746  0.00  0.00     0.198 A 
HETATM   24  F   UNK N   1      23.719  14.033   7.843  0.00  0.00    -0.201 F 
HETATM   25  C   UNK N   1      22.616  12.160  10.784  0.00  0.00     0.199 A 
HETATM   26  F   UNK N   1      24.687  12.168   9.604  0.00  0.00    -0.199 F 
HETATM   27  C   UNK N   1      21.308  12.629  10.923  0.00  0.00     0.198 A 
HETATM   28  F   UNK N   1      23.099  11.239  11.653  0.00  0.00    -0.199 F 
HETATM   29  C   UNK N   1      20.801  13.570  10.023  0.00  0.00     0.184 A 
HETATM   30  F   UNK N   1      20.523  12.163  11.926  0.00  0.00    -0.199 F 
HETATM   31  F   UNK N   1      19.520  13.981  10.157  0.00  0.00    -0.201 F 
ENDBRANCH  18  21
ENDBRANCH   1  18
TORSDOF 5
ENDMDL
