MODEL 1
REMARK VINA RESULT:      -8.6      0.000      0.000
REMARK  17 active torsions:
REMARK  status: ('A' for Active; 'I' for Inactive)
REMARK    1  A    between atoms: C_3  and  O_48 
REMARK    2  A    between atoms: C_4  and  O_47 
REMARK    3  A    between atoms: C_5  and  O_46 
REMARK    4  A    between atoms: C_6  and  O_8 
REMARK    5  A    between atoms: O_8  and  C_9 
REMARK    6  A    between atoms: C_13  and  O_45 
REMARK    7  A    between atoms: C_15  and  O_33 
REMARK    8  A    between atoms: C_16  and  C_28 
REMARK    9  A    between atoms: C_19  and  C_20 
REMARK   10  A    between atoms: C_23  and  O_26 
REMARK   11  A    between atoms: C_28  and  C_29 
REMARK   12  A    between atoms: C_34  and  O_33 
REMARK   13  A    between atoms: C_35  and  O_44 
REMARK   14  A    between atoms: C_36  and  O_43 
REMARK   15  A    between atoms: C_37  and  O_42 
REMARK   16  A    between atoms: C_38  and  C_40 
REMARK   17  A    between atoms: C_40  and  O_41 
ROOT
HETATM    1  C   UNK N   1      29.093  14.947   5.291  0.00  0.00     0.157 A 
HETATM    2  C   UNK N   1      27.768  14.635   4.908  0.00  0.00     0.223 A 
HETATM    3  O   UNK N   1      27.407  13.481   4.800  0.00  0.00    -0.284 OA
HETATM    4  C   UNK N   1      26.855  15.659   4.628  0.00  0.00     0.085 A 
HETATM    5  C   UNK N   1      25.519  15.379   4.280  0.00  0.00     0.085 A 
HETATM    6  C   UNK N   1      24.679  16.406   3.920  0.00  0.00     0.075 A 
HETATM    7  C   UNK N   1      25.115  17.724   3.864  0.00  0.00     0.084 A 
HETATM    8  C   UNK N   1      26.416  18.051   4.294  0.00  0.00     0.014 A 
HETATM    9  C   UNK N   1      27.299  17.000   4.682  0.00  0.00     0.102 A 
HETATM   10  O   UNK N   1      28.548  17.260   5.050  0.00  0.00    -0.305 OA
HETATM   11  C   UNK N   1      29.448  16.324   5.365  0.00  0.00     0.123 A 
ENDROOT
BRANCH   7  12
HETATM   12  O   UNK N   1      24.313  18.691   3.339  0.00  0.00    -0.317 OA
BRANCH  12  13
HETATM   13  C   UNK N   1      23.001  19.007   3.715  0.00  0.00     0.298 C 
HETATM   14  C   UNK N   1      22.364  20.305   3.091  0.00  0.00     0.205 C 
HETATM   15  C   UNK N   1      21.591  19.909   1.826  0.00  0.00     0.183 C 
HETATM   16  C   UNK N   1      20.510  18.857   2.167  0.00  0.00     0.180 C 
HETATM   17  C   UNK N   1      20.833  18.236   3.543  0.00  0.00     0.179 C 
HETATM   18  O   UNK N   1      22.184  17.847   3.590  0.00  0.00    -0.348 OA
BRANCH  14  19
HETATM   19  O   UNK N   1      23.280  21.343   2.897  0.00  0.00    -0.388 OA
HETATM   20  H   UNK N   1      24.078  21.573   3.399  0.00  0.00     0.210 HD
ENDBRANCH  14  19
BRANCH  15  21
HETATM   21  O   UNK N   1      21.066  21.015   1.152  0.00  0.00    -0.390 OA
HETATM   22  H   UNK N   1      20.424  21.023   0.424  0.00  0.00     0.210 HD
ENDBRANCH  15  21
BRANCH  16  23
HETATM   23  O   UNK N   1      19.239  19.434   2.194  0.00  0.00    -0.390 OA
HETATM   24  H   UNK N   1      18.555  19.294   2.867  0.00  0.00     0.210 HD
ENDBRANCH  16  23
BRANCH  17  25
HETATM   25  C   UNK N   1      19.912  17.106   3.951  0.00  0.00     0.198 C 
BRANCH  25  26
HETATM   26  O   UNK N   1      19.411  16.487   2.805  0.00  0.00    -0.398 OA
HETATM   27  H   UNK N   1      18.654  15.904   2.640  0.00  0.00     0.209 HD
ENDBRANCH  25  26
ENDBRANCH  17  25
ENDBRANCH  12  13
ENDBRANCH   7  12
BRANCH   8  28
HETATM   28  C   UNK N   1      26.803  19.514   4.231  0.00  0.00     0.072 C 
BRANCH  28  29
HETATM   29  C   UNK N   1      26.196  20.456   5.226  0.00  0.00    -0.020 C 
HETATM   30  C   UNK N   1      26.728  20.640   6.439  0.00  0.00    -0.091 C 
HETATM   31  C   UNK N   1      26.074  21.582   7.387  0.00  0.00     0.042 C 
HETATM   32  C   UNK N   1      27.957  19.907   6.878  0.00  0.00     0.042 C 
ENDBRANCH  28  29
ENDBRANCH   8  28
BRANCH   5  33
HETATM   33  O   UNK N   1      25.035  14.124   4.262  0.00  0.00    -0.360 OA
HETATM   34  H   UNK N   1      24.512  13.807   4.973  0.00  0.00     0.217 HD
ENDBRANCH   5  33
BRANCH  11  35
HETATM   35  C   UNK N   1      30.806  16.797   5.754  0.00  0.00     0.001 A 
HETATM   36  C   UNK N   1      31.114  16.912   7.119  0.00  0.00     0.017 A 
HETATM   37  C   UNK N   1      32.373  17.351   7.535  0.00  0.00     0.037 A 
HETATM   38  C   UNK N   1      33.347  17.692   6.594  0.00  0.00     0.068 A 
HETATM   39  C   UNK N   1      33.046  17.585   5.225  0.00  0.00     0.037 A 
HETATM   40  C   UNK N   1      31.788  17.140   4.811  0.00  0.00     0.017 A 
BRANCH  38  41
HETATM   41  O   UNK N   1      34.558  18.117   7.026  0.00  0.00    -0.356 OA
HETATM   42  C   UNK N   1      34.788  18.560   8.309  0.00  0.00     0.210 C 
ENDBRANCH  38  41
ENDBRANCH  11  35
BRANCH   1  43
HETATM   43  O   UNK N   1      30.027  13.988   5.597  0.00  0.00    -0.311 OA
BRANCH  43  44
HETATM   44  C   UNK N   1      30.889  13.317   4.735  0.00  0.00     0.298 C 
HETATM   45  C   UNK N   1      30.176  12.163   4.017  0.00  0.00     0.205 C 
HETATM   46  C   UNK N   1      31.203  11.430   3.133  0.00  0.00     0.183 C 
HETATM   47  C   UNK N   1      32.075  12.398   2.320  0.00  0.00     0.178 C 
HETATM   48  C   UNK N   1      32.532  13.514   3.255  0.00  0.00     0.152 C 
HETATM   49  C   UNK N   1      33.447  14.512   2.569  0.00  0.00     0.042 C 
HETATM   50  O   UNK N   1      31.382  14.163   3.730  0.00  0.00    -0.351 OA
BRANCH  45  51
HETATM   51  O   UNK N   1      29.628  11.271   4.939  0.00  0.00    -0.388 OA
HETATM   52  H   UNK N   1      28.904  10.626   4.979  0.00  0.00     0.210 HD
ENDBRANCH  45  51
BRANCH  46  53
HETATM   53  O   UNK N   1      30.554  10.543   2.273  0.00  0.00    -0.390 OA
HETATM   54  H   UNK N   1      30.902   9.650   2.123  0.00  0.00     0.210 HD
ENDBRANCH  46  53
BRANCH  47  55
HETATM   55  O   UNK N   1      33.178  11.713   1.803  0.00  0.00    -0.390 OA
HETATM   56  H   UNK N   1      33.230  10.751   1.689  0.00  0.00     0.210 HD
ENDBRANCH  47  55
ENDBRANCH  43  44
ENDBRANCH   1  43
TORSDOF 17
ENDMDL
MODEL 2
REMARK VINA RESULT:      -8.6      1.729      5.018
REMARK  17 active torsions:
REMARK  status: ('A' for Active; 'I' for Inactive)
REMARK    1  A    between atoms: C_3  and  O_48 
REMARK    2  A    between atoms: C_4  and  O_47 
REMARK    3  A    between atoms: C_5  and  O_46 
REMARK    4  A    between atoms: C_6  and  O_8 
REMARK    5  A    between atoms: O_8  and  C_9 
REMARK    6  A    between atoms: C_13  and  O_45 
REMARK    7  A    between atoms: C_15  and  O_33 
REMARK    8  A    between atoms: C_16  and  C_28 
REMARK    9  A    between atoms: C_19  and  C_20 
REMARK   10  A    between atoms: C_23  and  O_26 
REMARK   11  A    between atoms: C_28  and  C_29 
REMARK   12  A    between atoms: C_34  and  O_33 
REMARK   13  A    between atoms: C_35  and  O_44 
REMARK   14  A    between atoms: C_36  and  O_43 
REMARK   15  A    between atoms: C_37  and  O_42 
REMARK   16  A    between atoms: C_38  and  C_40 
REMARK   17  A    between atoms: C_40  and  O_41 
ROOT
HETATM    1  C   UNK N   1      28.787  16.892   6.224  0.00  0.00     0.157 A 
HETATM    2  C   UNK N   1      28.040  18.068   6.471  0.00  0.00     0.223 A 
HETATM    3  O   UNK N   1      28.253  18.745   7.456  0.00  0.00    -0.284 OA
HETATM    4  C   UNK N   1      27.026  18.458   5.588  0.00  0.00     0.085 A 
HETATM    5  C   UNK N   1      26.291  19.643   5.788  0.00  0.00     0.085 A 
HETATM    6  C   UNK N   1      25.241  19.942   4.954  0.00  0.00     0.075 A 
HETATM    7  C   UNK N   1      24.860  19.095   3.920  0.00  0.00     0.084 A 
HETATM    8  C   UNK N   1      25.630  17.950   3.634  0.00  0.00     0.014 A 
HETATM    9  C   UNK N   1      26.730  17.628   4.483  0.00  0.00     0.102 A 
HETATM   10  O   UNK N   1      27.453  16.534   4.275  0.00  0.00    -0.305 OA
HETATM   11  C   UNK N   1      28.456  16.137   5.063  0.00  0.00     0.123 A 
ENDROOT
BRANCH   7  12
HETATM   12  O   UNK N   1      23.715  19.332   3.223  0.00  0.00    -0.317 OA
BRANCH  12  13
HETATM   13  C   UNK N   1      22.398  19.246   3.693  0.00  0.00     0.298 C 
HETATM   14  C   UNK N   1      21.363  20.294   3.136  0.00  0.00     0.205 C 
HETATM   15  C   UNK N   1      20.655  19.681   1.921  0.00  0.00     0.183 C 
HETATM   16  C   UNK N   1      19.961  18.358   2.317  0.00  0.00     0.180 C 
HETATM   17  C   UNK N   1      20.549  17.866   3.658  0.00  0.00     0.179 C 
HETATM   18  O   UNK N   1      21.955  17.896   3.606  0.00  0.00    -0.348 OA
BRANCH  14  19
HETATM   19  O   UNK N   1      21.915  21.556   2.897  0.00  0.00    -0.388 OA
HETATM   20  H   UNK N   1      22.789  21.800   2.553  0.00  0.00     0.210 HD
ENDBRANCH  14  19
BRANCH  15  21
HETATM   21  O   UNK N   1      19.780  20.578   1.302  0.00  0.00    -0.390 OA
HETATM   22  H   UNK N   1      19.738  21.542   1.406  0.00  0.00     0.210 HD
ENDBRANCH  15  21
BRANCH  16  23
HETATM   23  O   UNK N   1      18.581  18.532   2.441  0.00  0.00    -0.390 OA
HETATM   24  H   UNK N   1      18.126  19.096   3.085  0.00  0.00     0.210 HD
ENDBRANCH  16  23
BRANCH  17  25
HETATM   25  C   UNK N   1      20.035  16.516   4.109  0.00  0.00     0.198 C 
BRANCH  25  26
HETATM   26  O   UNK N   1      18.665  16.608   4.360  0.00  0.00    -0.398 OA
HETATM   27  H   UNK N   1      17.877  16.452   3.816  0.00  0.00     0.209 HD
ENDBRANCH  25  26
ENDBRANCH  17  25
ENDBRANCH  12  13
ENDBRANCH   7  12
BRANCH   8  28
HETATM   28  C   UNK N   1      25.167  17.095   2.472  0.00  0.00     0.072 C 
BRANCH  28  29
HETATM   29  C   UNK N   1      24.719  15.693   2.752  0.00  0.00    -0.020 C 
HETATM   30  C   UNK N   1      25.462  14.634   2.411  0.00  0.00    -0.091 C 
HETATM   31  C   UNK N   1      24.960  13.265   2.707  0.00  0.00     0.042 C 
HETATM   32  C   UNK N   1      26.780  14.789   1.720  0.00  0.00     0.042 C 
ENDBRANCH  28  29
ENDBRANCH   8  28
BRANCH   5  33
HETATM   33  O   UNK N   1      26.565  20.490   6.796  0.00  0.00    -0.360 OA
HETATM   34  H   UNK N   1      27.444  20.588   7.107  0.00  0.00     0.217 HD
ENDBRANCH   5  33
BRANCH  11  35
HETATM   35  C   UNK N   1      29.159  14.880   4.681  0.00  0.00     0.001 A 
HETATM   36  C   UNK N   1      30.401  14.973   4.032  0.00  0.00     0.017 A 
HETATM   37  C   UNK N   1      31.098  13.824   3.653  0.00  0.00     0.037 A 
HETATM   38  C   UNK N   1      30.565  12.559   3.907  0.00  0.00     0.068 A 
HETATM   39  C   UNK N   1      29.319  12.455   4.552  0.00  0.00     0.037 A 
HETATM   40  C   UNK N   1      28.626  13.606   4.935  0.00  0.00     0.017 A 
BRANCH  38  41
HETATM   41  O   UNK N   1      31.263  11.463   3.526  0.00  0.00    -0.356 OA
HETATM   42  C   UNK N   1      32.188  11.474   2.507  0.00  0.00     0.210 C 
ENDBRANCH  38  41
ENDBRANCH  11  35
BRANCH   1  43
HETATM   43  O   UNK N   1      29.805  16.470   7.042  0.00  0.00    -0.311 OA
BRANCH  43  44
HETATM   44  C   UNK N   1      31.069  17.027   7.204  0.00  0.00     0.298 C 
HETATM   45  C   UNK N   1      31.671  16.663   8.569  0.00  0.00     0.205 C 
HETATM   46  C   UNK N   1      33.037  17.364   8.702  0.00  0.00     0.183 C 
HETATM   47  C   UNK N   1      33.897  17.219   7.437  0.00  0.00     0.178 C 
HETATM   48  C   UNK N   1      33.007  17.506   6.231  0.00  0.00     0.152 C 
HETATM   49  C   UNK N   1      33.765  17.440   4.918  0.00  0.00     0.042 C 
HETATM   50  O   UNK N   1      31.971  16.558   6.236  0.00  0.00    -0.351 OA
BRANCH  45  51
HETATM   51  O   UNK N   1      30.830  17.071   9.604  0.00  0.00    -0.388 OA
HETATM   52  H   UNK N   1      30.711  17.847  10.175  0.00  0.00     0.210 HD
ENDBRANCH  45  51
BRANCH  46  53
HETATM   53  O   UNK N   1      33.731  16.863   9.804  0.00  0.00    -0.390 OA
HETATM   54  H   UNK N   1      33.261  16.431  10.534  0.00  0.00     0.210 HD
ENDBRANCH  46  53
BRANCH  47  55
HETATM   55  O   UNK N   1      34.958  18.127   7.487  0.00  0.00    -0.390 OA
HETATM   56  H   UNK N   1      35.730  18.111   6.900  0.00  0.00     0.210 HD
ENDBRANCH  47  55
ENDBRANCH  43  44
ENDBRANCH   1  43
TORSDOF 17
ENDMDL
MODEL 3
REMARK VINA RESULT:      -8.4      2.970      9.780
REMARK  17 active torsions:
REMARK  status: ('A' for Active; 'I' for Inactive)
REMARK    1  A    between atoms: C_3  and  O_48 
REMARK    2  A    between atoms: C_4  and  O_47 
REMARK    3  A    between atoms: C_5  and  O_46 
REMARK    4  A    between atoms: C_6  and  O_8 
REMARK    5  A    between atoms: O_8  and  C_9 
REMARK    6  A    between atoms: C_13  and  O_45 
REMARK    7  A    between atoms: C_15  and  O_33 
REMARK    8  A    between atoms: C_16  and  C_28 
REMARK    9  A    between atoms: C_19  and  C_20 
REMARK   10  A    between atoms: C_23  and  O_26 
REMARK   11  A    between atoms: C_28  and  C_29 
REMARK   12  A    between atoms: C_34  and  O_33 
REMARK   13  A    between atoms: C_35  and  O_44 
REMARK   14  A    between atoms: C_36  and  O_43 
REMARK   15  A    between atoms: C_37  and  O_42 
REMARK   16  A    between atoms: C_38  and  C_40 
REMARK   17  A    between atoms: C_40  and  O_41 
ROOT
HETATM    1  C   UNK N   1      24.485  15.208   4.070  0.00  0.00     0.157 A 
HETATM    2  C   UNK N   1      25.745  14.966   3.472  0.00  0.00     0.223 A 
HETATM    3  O   UNK N   1      25.856  14.183   2.551  0.00  0.00    -0.284 OA
HETATM    4  C   UNK N   1      26.888  15.617   3.950  0.00  0.00     0.085 A 
HETATM    5  C   UNK N   1      28.149  15.424   3.351  0.00  0.00     0.085 A 
HETATM    6  C   UNK N   1      29.263  16.005   3.908  0.00  0.00     0.075 A 
HETATM    7  C   UNK N   1      29.192  16.766   5.069  0.00  0.00     0.084 A 
HETATM    8  C   UNK N   1      27.938  17.055   5.640  0.00  0.00     0.014 A 
HETATM    9  C   UNK N   1      26.768  16.470   5.070  0.00  0.00     0.102 A 
HETATM   10  O   UNK N   1      25.571  16.681   5.605  0.00  0.00    -0.305 OA
HETATM   11  C   UNK N   1      24.443  16.117   5.165  0.00  0.00     0.123 A 
ENDROOT
BRANCH   7  12
HETATM   12  O   UNK N   1      30.330  17.181   5.689  0.00  0.00    -0.317 OA
BRANCH  12  13
HETATM   13  C   UNK N   1      31.421  16.396   6.084  0.00  0.00     0.298 C 
HETATM   14  C   UNK N   1      32.859  17.009   5.892  0.00  0.00     0.205 C 
HETATM   15  C   UNK N   1      33.269  17.707   7.195  0.00  0.00     0.183 C 
HETATM   16  C   UNK N   1      33.236  16.705   8.372  0.00  0.00     0.180 C 
HETATM   17  C   UNK N   1      32.405  15.472   7.955  0.00  0.00     0.179 C 
HETATM   18  O   UNK N   1      31.183  15.883   7.391  0.00  0.00    -0.348 OA
BRANCH  14  19
HETATM   19  O   UNK N   1      32.980  17.812   4.754  0.00  0.00    -0.388 OA
HETATM   20  H   UNK N   1      32.297  18.153   4.155  0.00  0.00     0.210 HD
ENDBRANCH  14  19
BRANCH  15  21
HETATM   21  O   UNK N   1      34.499  18.362   7.088  0.00  0.00    -0.390 OA
HETATM   22  H   UNK N   1      34.871  19.038   7.675  0.00  0.00     0.210 HD
ENDBRANCH  15  21
BRANCH  16  23
HETATM   23  O   UNK N   1      34.525  16.308   8.731  0.00  0.00    -0.390 OA
HETATM   24  H   UNK N   1      35.043  16.639   9.481  0.00  0.00     0.210 HD
ENDBRANCH  16  23
BRANCH  17  25
HETATM   25  C   UNK N   1      32.196  14.456   9.058  0.00  0.00     0.198 C 
BRANCH  25  26
HETATM   26  O   UNK N   1      32.256  15.102  10.293  0.00  0.00    -0.398 OA
HETATM   27  H   UNK N   1      31.795  15.869  10.667  0.00  0.00     0.209 HD
ENDBRANCH  25  26
ENDBRANCH  17  25
ENDBRANCH  12  13
ENDBRANCH   7  12
BRANCH   8  28
HETATM   28  C   UNK N   1      27.942  17.917   6.886  0.00  0.00     0.072 C 
BRANCH  28  29
HETATM   29  C   UNK N   1      28.037  17.242   8.221  0.00  0.00    -0.020 C 
HETATM   30  C   UNK N   1      28.929  17.622   9.142  0.00  0.00    -0.091 C 
HETATM   31  C   UNK N   1      28.981  16.907  10.446  0.00  0.00     0.042 C 
HETATM   32  C   UNK N   1      29.893  18.738   8.888  0.00  0.00     0.042 C 
ENDBRANCH  28  29
ENDBRANCH   8  28
BRANCH   5  33
HETATM   33  O   UNK N   1      28.309  14.661   2.255  0.00  0.00    -0.360 OA
HETATM   34  H   UNK N   1      29.107  14.189   2.118  0.00  0.00     0.217 HD
ENDBRANCH   5  33
BRANCH  11  35
HETATM   35  C   UNK N   1      23.187  16.463   5.888  0.00  0.00     0.001 A 
HETATM   36  C   UNK N   1      22.621  15.512   6.751  0.00  0.00     0.017 A 
HETATM   37  C   UNK N   1      21.444  15.789   7.450  0.00  0.00     0.037 A 
HETATM   38  C   UNK N   1      20.804  17.020   7.293  0.00  0.00     0.068 A 
HETATM   39  C   UNK N   1      21.360  17.978   6.427  0.00  0.00     0.037 A 
HETATM   40  C   UNK N   1      22.541  17.701   5.733  0.00  0.00     0.017 A 
BRANCH  38  41
HETATM   41  O   UNK N   1      19.663  17.260   7.982  0.00  0.00    -0.356 OA
HETATM   42  C   UNK N   1      19.593  18.124   9.051  0.00  0.00     0.210 C 
ENDBRANCH  38  41
ENDBRANCH  11  35
BRANCH   1  43
HETATM   43  O   UNK N   1      23.327  14.615   3.632  0.00  0.00    -0.311 OA
BRANCH  43  44
HETATM   44  C   UNK N   1      22.404  15.100   2.710  0.00  0.00     0.298 C 
HETATM   45  C   UNK N   1      21.770  13.961   1.901  0.00  0.00     0.205 C 
HETATM   46  C   UNK N   1      20.813  14.575   0.862  0.00  0.00     0.183 C 
HETATM   47  C   UNK N   1      19.911  15.662   1.466  0.00  0.00     0.178 C 
HETATM   48  C   UNK N   1      20.784  16.569   2.328  0.00  0.00     0.152 C 
HETATM   49  C   UNK N   1      20.004  17.718   2.942  0.00  0.00     0.042 C 
HETATM   50  O   UNK N   1      21.347  15.775   3.339  0.00  0.00    -0.351 OA
BRANCH  45  51
HETATM   51  O   UNK N   1      22.751  13.212   1.250  0.00  0.00    -0.388 OA
HETATM   52  H   UNK N   1      22.801  12.515   0.578  0.00  0.00     0.210 HD
ENDBRANCH  45  51
BRANCH  46  53
HETATM   53  O   UNK N   1      20.027  13.579   0.281  0.00  0.00    -0.390 OA
HETATM   54  H   UNK N   1      19.238  13.240   0.731  0.00  0.00     0.210 HD
ENDBRANCH  46  53
BRANCH  47  55
HETATM   55  O   UNK N   1      19.311  16.396   0.438  0.00  0.00    -0.390 OA
HETATM   56  H   UNK N   1      18.434  16.215   0.066  0.00  0.00     0.210 HD
ENDBRANCH  47  55
ENDBRANCH  43  44
ENDBRANCH   1  43
TORSDOF 17
ENDMDL
MODEL 4
REMARK VINA RESULT:      -8.3      2.477     10.495
REMARK  17 active torsions:
REMARK  status: ('A' for Active; 'I' for Inactive)
REMARK    1  A    between atoms: C_3  and  O_48 
REMARK    2  A    between atoms: C_4  and  O_47 
REMARK    3  A    between atoms: C_5  and  O_46 
REMARK    4  A    between atoms: C_6  and  O_8 
REMARK    5  A    between atoms: O_8  and  C_9 
REMARK    6  A    between atoms: C_13  and  O_45 
REMARK    7  A    between atoms: C_15  and  O_33 
REMARK    8  A    between atoms: C_16  and  C_28 
REMARK    9  A    between atoms: C_19  and  C_20 
REMARK   10  A    between atoms: C_23  and  O_26 
REMARK   11  A    between atoms: C_28  and  C_29 
REMARK   12  A    between atoms: C_34  and  O_33 
REMARK   13  A    between atoms: C_35  and  O_44 
REMARK   14  A    between atoms: C_36  and  O_43 
REMARK   15  A    between atoms: C_37  and  O_42 
REMARK   16  A    between atoms: C_38  and  C_40 
REMARK   17  A    between atoms: C_40  and  O_41 
ROOT
HETATM    1  C   UNK N   1      23.768  17.598   5.039  0.00  0.00     0.157 A 
HETATM    2  C   UNK N   1      24.805  18.512   4.736  0.00  0.00     0.223 A 
HETATM    3  O   UNK N   1      24.553  19.663   4.441  0.00  0.00    -0.284 OA
HETATM    4  C   UNK N   1      26.140  18.094   4.752  0.00  0.00     0.085 A 
HETATM    5  C   UNK N   1      27.196  18.990   4.491  0.00  0.00     0.085 A 
HETATM    6  C   UNK N   1      28.486  18.522   4.422  0.00  0.00     0.075 A 
HETATM    7  C   UNK N   1      28.787  17.174   4.580  0.00  0.00     0.084 A 
HETATM    8  C   UNK N   1      27.769  16.267   4.934  0.00  0.00     0.014 A 
HETATM    9  C   UNK N   1      26.425  16.736   5.021  0.00  0.00     0.102 A 
HETATM   10  O   UNK N   1      25.430  15.904   5.308  0.00  0.00    -0.305 OA
HETATM   11  C   UNK N   1      24.143  16.259   5.344  0.00  0.00     0.123 A 
ENDROOT
BRANCH   7  12
HETATM   12  O   UNK N   1      30.046  16.718   4.336  0.00  0.00    -0.317 OA
BRANCH  12  13
HETATM   13  C   UNK N   1      30.983  16.261   5.271  0.00  0.00     0.298 C 
HETATM   14  C   UNK N   1      31.976  15.132   4.805  0.00  0.00     0.205 C 
HETATM   15  C   UNK N   1      33.259  15.794   4.285  0.00  0.00     0.183 C 
HETATM   16  C   UNK N   1      33.888  16.679   5.385  0.00  0.00     0.180 C 
HETATM   17  C   UNK N   1      32.827  16.954   6.473  0.00  0.00     0.179 C 
HETATM   18  O   UNK N   1      31.625  17.378   5.877  0.00  0.00    -0.348 OA
BRANCH  14  19
HETATM   19  O   UNK N   1      31.407  14.215   3.914  0.00  0.00    -0.388 OA
HETATM   20  H   UNK N   1      31.018  13.342   4.082  0.00  0.00     0.210 HD
ENDBRANCH  14  19
BRANCH  15  21
HETATM   21  O   UNK N   1      34.166  14.868   3.763  0.00  0.00    -0.390 OA
HETATM   22  H   UNK N   1      33.976  14.008   3.354  0.00  0.00     0.210 HD
ENDBRANCH  15  21
BRANCH  16  23
HETATM   23  O   UNK N   1      35.001  16.058   5.955  0.00  0.00    -0.390 OA
HETATM   24  H   UNK N   1      35.927  16.330   5.858  0.00  0.00     0.210 HD
ENDBRANCH  16  23
BRANCH  17  25
HETATM   25  C   UNK N   1      33.277  17.905   7.561  0.00  0.00     0.198 C 
BRANCH  25  26
HETATM   26  O   UNK N   1      34.551  18.385   7.251  0.00  0.00    -0.398 OA
HETATM   27  H   UNK N   1      35.444  18.026   7.368  0.00  0.00     0.209 HD
ENDBRANCH  25  26
ENDBRANCH  17  25
ENDBRANCH  12  13
ENDBRANCH   7  12
BRANCH   8  28
HETATM   28  C   UNK N   1      28.184  14.821   5.120  0.00  0.00     0.072 C 
BRANCH  28  29
HETATM   29  C   UNK N   1      27.911  13.853   4.010  0.00  0.00    -0.020 C 
HETATM   30  C   UNK N   1      27.026  12.859   4.143  0.00  0.00    -0.091 C 
HETATM   31  C   UNK N   1      26.803  11.922   3.008  0.00  0.00     0.042 C 
HETATM   32  C   UNK N   1      26.264  12.651   5.414  0.00  0.00     0.042 C 
ENDBRANCH  28  29
ENDBRANCH   8  28
BRANCH   5  33
HETATM   33  O   UNK N   1      26.982  20.301   4.277  0.00  0.00    -0.360 OA
HETATM   34  H   UNK N   1      26.287  20.746   4.721  0.00  0.00     0.217 HD
ENDBRANCH   5  33
BRANCH  11  35
HETATM   35  C   UNK N   1      23.157  15.194   5.681  0.00  0.00     0.001 A 
HETATM   36  C   UNK N   1      22.921  14.173   4.747  0.00  0.00     0.017 A 
HETATM   37  C   UNK N   1      22.006  13.153   5.016  0.00  0.00     0.037 A 
HETATM   38  C   UNK N   1      21.302  13.137   6.222  0.00  0.00     0.068 A 
HETATM   39  C   UNK N   1      21.527  14.158   7.161  0.00  0.00     0.037 A 
HETATM   40  C   UNK N   1      22.447  15.175   6.893  0.00  0.00     0.017 A 
BRANCH  38  41
HETATM   41  O   UNK N   1      20.419  12.137   6.454  0.00  0.00    -0.356 OA
HETATM   42  C   UNK N   1      20.376  10.981   5.709  0.00  0.00     0.210 C 
ENDBRANCH  38  41
ENDBRANCH  11  35
BRANCH   1  43
HETATM   43  O   UNK N   1      22.442  17.955   5.058  0.00  0.00    -0.311 OA
BRANCH  43  44
HETATM   44  C   UNK N   1      21.493  17.803   4.052  0.00  0.00     0.298 C 
HETATM   45  C   UNK N   1      21.171  19.144   3.379  0.00  0.00     0.205 C 
HETATM   46  C   UNK N   1      20.072  18.908   2.325  0.00  0.00     0.183 C 
HETATM   47  C   UNK N   1      20.349  17.676   1.452  0.00  0.00     0.178 C 
HETATM   48  C   UNK N   1      20.779  16.537   2.374  0.00  0.00     0.152 C 
HETATM   49  C   UNK N   1      21.034  15.244   1.622  0.00  0.00     0.042 C 
HETATM   50  O   UNK N   1      21.946  16.948   3.035  0.00  0.00    -0.351 OA
BRANCH  45  51
HETATM   51  O   UNK N   1      20.729  20.075   4.319  0.00  0.00    -0.388 OA
HETATM   52  H   UNK N   1      21.105  20.779   4.871  0.00  0.00     0.210 HD
ENDBRANCH  45  51
BRANCH  46  53
HETATM   53  O   UNK N   1      19.929  20.037   1.517  0.00  0.00    -0.390 OA
HETATM   54  H   UNK N   1      20.657  20.341   0.953  0.00  0.00     0.210 HD
ENDBRANCH  46  53
BRANCH  47  55
HETATM   55  O   UNK N   1      19.190  17.327   0.754  0.00  0.00    -0.390 OA
HETATM   56  H   UNK N   1      19.078  16.516   0.234  0.00  0.00     0.210 HD
ENDBRANCH  47  55
ENDBRANCH  43  44
ENDBRANCH   1  43
TORSDOF 17
ENDMDL
MODEL 5
REMARK VINA RESULT:      -8.2     10.947     16.154
REMARK  17 active torsions:
REMARK  status: ('A' for Active; 'I' for Inactive)
REMARK    1  A    between atoms: C_3  and  O_48 
REMARK    2  A    between atoms: C_4  and  O_47 
REMARK    3  A    between atoms: C_5  and  O_46 
REMARK    4  A    between atoms: C_6  and  O_8 
REMARK    5  A    between atoms: O_8  and  C_9 
REMARK    6  A    between atoms: C_13  and  O_45 
REMARK    7  A    between atoms: C_15  and  O_33 
REMARK    8  A    between atoms: C_16  and  C_28 
REMARK    9  A    between atoms: C_19  and  C_20 
REMARK   10  A    between atoms: C_23  and  O_26 
REMARK   11  A    between atoms: C_28  and  C_29 
REMARK   12  A    between atoms: C_34  and  O_33 
REMARK   13  A    between atoms: C_35  and  O_44 
REMARK   14  A    between atoms: C_36  and  O_43 
REMARK   15  A    between atoms: C_37  and  O_42 
REMARK   16  A    between atoms: C_38  and  C_40 
REMARK   17  A    between atoms: C_40  and  O_41 
ROOT
HETATM    1  C   UNK N   1      27.601  24.478  -4.725  0.00  0.00     0.157 A 
HETATM    2  C   UNK N   1      28.482  24.073  -3.695  0.00  0.00     0.223 A 
HETATM    3  O   UNK N   1      28.402  24.553  -2.582  0.00  0.00    -0.284 OA
HETATM    4  C   UNK N   1      29.478  23.123  -3.952  0.00  0.00     0.085 A 
HETATM    5  C   UNK N   1      30.346  22.673  -2.937  0.00  0.00     0.085 A 
HETATM    6  C   UNK N   1      31.370  21.812  -3.249  0.00  0.00     0.075 A 
HETATM    7  C   UNK N   1      31.597  21.382  -4.551  0.00  0.00     0.084 A 
HETATM    8  C   UNK N   1      30.694  21.737  -5.572  0.00  0.00     0.014 A 
HETATM    9  C   UNK N   1      29.618  22.622  -5.266  0.00  0.00     0.102 A 
HETATM   10  O   UNK N   1      28.771  23.017  -6.209  0.00  0.00    -0.305 OA
HETATM   11  C   UNK N   1      27.781  23.891  -6.010  0.00  0.00     0.123 A 
ENDROOT
BRANCH   7  12
HETATM   12  O   UNK N   1      32.717  20.671  -4.855  0.00  0.00    -0.317 OA
BRANCH  12  13
HETATM   13  C   UNK N   1      33.916  20.620  -4.133  0.00  0.00     0.298 C 
HETATM   14  C   UNK N   1      34.563  19.202  -3.908  0.00  0.00     0.205 C 
HETATM   15  C   UNK N   1      35.575  18.945  -5.032  0.00  0.00     0.183 C 
HETATM   16  C   UNK N   1      36.648  20.058  -5.053  0.00  0.00     0.180 C 
HETATM   17  C   UNK N   1      36.128  21.268  -4.246  0.00  0.00     0.179 C 
HETATM   18  O   UNK N   1      34.820  21.591  -4.652  0.00  0.00    -0.348 OA
BRANCH  14  19
HETATM   19  O   UNK N   1      33.627  18.178  -3.738  0.00  0.00    -0.388 OA
HETATM   20  H   UNK N   1      33.273  17.544  -4.381  0.00  0.00     0.210 HD
ENDBRANCH  14  19
BRANCH  15  21
HETATM   21  O   UNK N   1      36.135  17.666  -4.966  0.00  0.00    -0.390 OA
HETATM   22  H   UNK N   1      36.786  17.265  -5.563  0.00  0.00     0.210 HD
ENDBRANCH  15  21
BRANCH  16  23
HETATM   23  O   UNK N   1      37.851  19.607  -4.507  0.00  0.00    -0.390 OA
HETATM   24  H   UNK N   1      38.692  20.089  -4.487  0.00  0.00     0.210 HD
ENDBRANCH  16  23
BRANCH  17  25
HETATM   25  C   UNK N   1      37.037  22.478  -4.278  0.00  0.00     0.198 C 
BRANCH  25  26
HETATM   26  O   UNK N   1      37.929  22.409  -3.206  0.00  0.00    -0.398 OA
HETATM   27  H   UNK N   1      37.813  22.383  -2.244  0.00  0.00     0.209 HD
ENDBRANCH  25  26
ENDBRANCH  17  25
ENDBRANCH  12  13
ENDBRANCH   7  12
BRANCH   8  28
HETATM   28  C   UNK N   1      30.993  21.202  -6.958  0.00  0.00     0.072 C 
BRANCH  28  29
HETATM   29  C   UNK N   1      30.725  19.755  -7.237  0.00  0.00    -0.020 C 
HETATM   30  C   UNK N   1      29.565  19.340  -7.759  0.00  0.00    -0.091 C 
HETATM   31  C   UNK N   1      29.354  17.888  -8.006  0.00  0.00     0.042 C 
HETATM   32  C   UNK N   1      28.463  20.299  -8.084  0.00  0.00     0.042 C 
ENDBRANCH  28  29
ENDBRANCH   8  28
BRANCH   5  33
HETATM   33  O   UNK N   1      30.223  23.082  -1.661  0.00  0.00    -0.360 OA
HETATM   34  H   UNK N   1      30.797  22.749  -1.000  0.00  0.00     0.217 HD
ENDBRANCH   5  33
BRANCH  11  35
HETATM   35  C   UNK N   1      26.926  24.224  -7.184  0.00  0.00     0.001 A 
HETATM   36  C   UNK N   1      25.884  23.349  -7.530  0.00  0.00     0.017 A 
HETATM   37  C   UNK N   1      25.057  23.617  -8.623  0.00  0.00     0.037 A 
HETATM   38  C   UNK N   1      25.259  24.761  -9.397  0.00  0.00     0.068 A 
HETATM   39  C   UNK N   1      26.303  25.641  -9.062  0.00  0.00     0.037 A 
HETATM   40  C   UNK N   1      27.127  25.374  -7.965  0.00  0.00     0.017 A 
BRANCH  38  41
HETATM   41  O   UNK N   1      24.443  24.993 -10.452  0.00  0.00    -0.356 OA
HETATM   42  C   UNK N   1      24.386  26.199 -11.112  0.00  0.00     0.210 C 
ENDBRANCH  38  41
ENDBRANCH  11  35
BRANCH   1  43
HETATM   43  O   UNK N   1      26.594  25.391  -4.529  0.00  0.00    -0.311 OA
BRANCH  43  44
HETATM   44  C   UNK N   1      26.657  26.777  -4.618  0.00  0.00     0.298 C 
HETATM   45  C   UNK N   1      26.850  27.419  -3.237  0.00  0.00     0.205 C 
HETATM   46  C   UNK N   1      26.846  28.951  -3.407  0.00  0.00     0.183 C 
HETATM   47  C   UNK N   1      27.721  29.414  -4.582  0.00  0.00     0.178 C 
HETATM   48  C   UNK N   1      27.416  28.513  -5.775  0.00  0.00     0.152 C 
HETATM   49  C   UNK N   1      28.192  28.910  -7.018  0.00  0.00     0.042 C 
HETATM   50  O   UNK N   1      27.740  27.199  -5.406  0.00  0.00    -0.351 OA
BRANCH  45  51
HETATM   51  O   UNK N   1      25.826  27.040  -2.369  0.00  0.00    -0.388 OA
HETATM   52  H   UNK N   1      25.413  27.364  -1.553  0.00  0.00     0.210 HD
ENDBRANCH  45  51
BRANCH  46  53
HETATM   53  O   UNK N   1      27.271  29.568  -2.230  0.00  0.00    -0.390 OA
HETATM   54  H   UNK N   1      26.983  29.240  -1.363  0.00  0.00     0.210 HD
ENDBRANCH  46  53
BRANCH  47  55
HETATM   55  O   UNK N   1      27.427  30.745  -4.887  0.00  0.00    -0.390 OA
HETATM   56  H   UNK N   1      26.540  31.138  -4.859  0.00  0.00     0.210 HD
ENDBRANCH  47  55
ENDBRANCH  43  44
ENDBRANCH   1  43
TORSDOF 17
ENDMDL
MODEL 6
REMARK VINA RESULT:      -8.2      1.876      5.443
REMARK  17 active torsions:
REMARK  status: ('A' for Active; 'I' for Inactive)
REMARK    1  A    between atoms: C_3  and  O_48 
REMARK    2  A    between atoms: C_4  and  O_47 
REMARK    3  A    between atoms: C_5  and  O_46 
REMARK    4  A    between atoms: C_6  and  O_8 
REMARK    5  A    between atoms: O_8  and  C_9 
REMARK    6  A    between atoms: C_13  and  O_45 
REMARK    7  A    between atoms: C_15  and  O_33 
REMARK    8  A    between atoms: C_16  and  C_28 
REMARK    9  A    between atoms: C_19  and  C_20 
REMARK   10  A    between atoms: C_23  and  O_26 
REMARK   11  A    between atoms: C_28  and  C_29 
REMARK   12  A    between atoms: C_34  and  O_33 
REMARK   13  A    between atoms: C_35  and  O_44 
REMARK   14  A    between atoms: C_36  and  O_43 
REMARK   15  A    between atoms: C_37  and  O_42 
REMARK   16  A    between atoms: C_38  and  C_40 
REMARK   17  A    between atoms: C_40  and  O_41 
ROOT
HETATM    1  C   UNK N   1      28.485  16.980   4.083  0.00  0.00     0.157 A 
HETATM    2  C   UNK N   1      27.600  18.052   4.348  0.00  0.00     0.223 A 
HETATM    3  O   UNK N   1      28.023  19.145   4.663  0.00  0.00    -0.284 OA
HETATM    4  C   UNK N   1      26.216  17.859   4.268  0.00  0.00     0.085 A 
HETATM    5  C   UNK N   1      25.311  18.916   4.490  0.00  0.00     0.085 A 
HETATM    6  C   UNK N   1      23.960  18.666   4.497  0.00  0.00     0.075 A 
HETATM    7  C   UNK N   1      23.449  17.387   4.314  0.00  0.00     0.084 A 
HETATM    8  C   UNK N   1      24.318  16.325   3.997  0.00  0.00     0.014 A 
HETATM    9  C   UNK N   1      25.724  16.567   3.975  0.00  0.00     0.102 A 
HETATM   10  O   UNK N   1      26.580  15.583   3.725  0.00  0.00    -0.305 OA
HETATM   11  C   UNK N   1      27.909  15.721   3.750  0.00  0.00     0.123 A 
ENDROOT
BRANCH   7  12
HETATM   12  O   UNK N   1      22.122  17.144   4.498  0.00  0.00    -0.317 OA
BRANCH  12  13
HETATM   13  C   UNK N   1      21.050  17.661   3.759  0.00  0.00     0.298 C 
HETATM   14  C   UNK N   1      20.692  19.179   3.973  0.00  0.00     0.205 C 
HETATM   15  C   UNK N   1      21.433  20.008   2.916  0.00  0.00     0.183 C 
HETATM   16  C   UNK N   1      21.050  19.532   1.496  0.00  0.00     0.180 C 
HETATM   17  C   UNK N   1      20.403  18.133   1.595  0.00  0.00     0.179 C 
HETATM   18  O   UNK N   1      21.199  17.290   2.392  0.00  0.00    -0.348 OA
BRANCH  14  19
HETATM   19  O   UNK N   1      20.886  19.623   5.284  0.00  0.00    -0.388 OA
HETATM   20  H   UNK N   1      21.423  20.358   5.621  0.00  0.00     0.210 HD
ENDBRANCH  14  19
BRANCH  15  21
HETATM   21  O   UNK N   1      21.246  21.383   3.086  0.00  0.00    -0.390 OA
HETATM   22  H   UNK N   1      20.724  21.989   2.538  0.00  0.00     0.210 HD
ENDBRANCH  15  21
BRANCH  16  23
HETATM   23  O   UNK N   1      20.161  20.423   0.890  0.00  0.00    -0.390 OA
HETATM   24  H   UNK N   1      20.300  21.373   0.753  0.00  0.00     0.210 HD
ENDBRANCH  16  23
BRANCH  17  25
HETATM   25  C   UNK N   1      20.079  17.497   0.261  0.00  0.00     0.198 C 
BRANCH  25  26
HETATM   26  O   UNK N   1      18.818  16.903   0.331  0.00  0.00    -0.398 OA
HETATM   27  H   UNK N   1      18.419  16.134  -0.105  0.00  0.00     0.209 HD
ENDBRANCH  25  26
ENDBRANCH  17  25
ENDBRANCH  12  13
ENDBRANCH   7  12
BRANCH   8  28
HETATM   28  C   UNK N   1      23.680  14.968   3.781  0.00  0.00     0.072 C 
BRANCH  28  29
HETATM   29  C   UNK N   1      23.290  14.577   2.388  0.00  0.00    -0.020 C 
HETATM   30  C   UNK N   1      24.005  13.700   1.675  0.00  0.00    -0.091 C 
HETATM   31  C   UNK N   1      23.572  13.357   0.293  0.00  0.00     0.042 C 
HETATM   32  C   UNK N   1      25.244  13.065   2.225  0.00  0.00     0.042 C 
ENDBRANCH  28  29
ENDBRANCH   8  28
BRANCH   5  33
HETATM   33  O   UNK N   1      25.728  20.173   4.725  0.00  0.00    -0.360 OA
HETATM   34  H   UNK N   1      25.133  20.893   4.643  0.00  0.00     0.217 HD
ENDBRANCH   5  33
BRANCH  11  35
HETATM   35  C   UNK N   1      28.720  14.509   3.448  0.00  0.00     0.001 A 
HETATM   36  C   UNK N   1      29.034  14.223   2.109  0.00  0.00     0.017 A 
HETATM   37  C   UNK N   1      29.791  13.098   1.775  0.00  0.00     0.037 A 
HETATM   38  C   UNK N   1      30.242  12.231   2.771  0.00  0.00     0.068 A 
HETATM   39  C   UNK N   1      29.929  12.504   4.114  0.00  0.00     0.037 A 
HETATM   40  C   UNK N   1      29.176  13.634   4.447  0.00  0.00     0.017 A 
BRANCH  38  41
HETATM   41  O   UNK N   1      30.972  11.146   2.417  0.00  0.00    -0.356 OA
HETATM   42  C   UNK N   1      32.240  10.902   2.891  0.00  0.00     0.210 C 
ENDBRANCH  38  41
ENDBRANCH  11  35
BRANCH   1  43
HETATM   43  O   UNK N   1      29.850  17.113   4.126  0.00  0.00    -0.311 OA
BRANCH  43  44
HETATM   44  C   UNK N   1      30.703  16.913   5.207  0.00  0.00     0.298 C 
HETATM   45  C   UNK N   1      32.113  17.446   4.914  0.00  0.00     0.205 C 
HETATM   46  C   UNK N   1      33.013  17.135   6.125  0.00  0.00     0.183 C 
HETATM   47  C   UNK N   1      32.340  17.481   7.461  0.00  0.00     0.178 C 
HETATM   48  C   UNK N   1      30.911  16.949   7.417  0.00  0.00     0.152 C 
HETATM   49  C   UNK N   1      30.158  17.192   8.713  0.00  0.00     0.042 C 
HETATM   50  O   UNK N   1      30.256  17.588   6.353  0.00  0.00    -0.351 OA
BRANCH  45  51
HETATM   51  O   UNK N   1      32.639  16.846   3.770  0.00  0.00    -0.388 OA
HETATM   52  H   UNK N   1      32.681  17.021   2.816  0.00  0.00     0.210 HD
ENDBRANCH  45  51
BRANCH  46  53
HETATM   53  O   UNK N   1      34.224  17.819   6.014  0.00  0.00    -0.390 OA
HETATM   54  H   UNK N   1      34.558  18.363   6.745  0.00  0.00     0.210 HD
ENDBRANCH  46  53
BRANCH  47  55
HETATM   55  O   UNK N   1      33.050  16.888   8.509  0.00  0.00    -0.390 OA
HETATM   56  H   UNK N   1      32.737  16.135   9.036  0.00  0.00     0.210 HD
ENDBRANCH  47  55
ENDBRANCH  43  44
ENDBRANCH   1  43
TORSDOF 17
ENDMDL
MODEL 7
REMARK VINA RESULT:      -8.1      2.376      9.558
REMARK  17 active torsions:
REMARK  status: ('A' for Active; 'I' for Inactive)
REMARK    1  A    between atoms: C_3  and  O_48 
REMARK    2  A    between atoms: C_4  and  O_47 
REMARK    3  A    between atoms: C_5  and  O_46 
REMARK    4  A    between atoms: C_6  and  O_8 
REMARK    5  A    between atoms: O_8  and  C_9 
REMARK    6  A    between atoms: C_13  and  O_45 
REMARK    7  A    between atoms: C_15  and  O_33 
REMARK    8  A    between atoms: C_16  and  C_28 
REMARK    9  A    between atoms: C_19  and  C_20 
REMARK   10  A    between atoms: C_23  and  O_26 
REMARK   11  A    between atoms: C_28  and  C_29 
REMARK   12  A    between atoms: C_34  and  O_33 
REMARK   13  A    between atoms: C_35  and  O_44 
REMARK   14  A    between atoms: C_36  and  O_43 
REMARK   15  A    between atoms: C_37  and  O_42 
REMARK   16  A    between atoms: C_38  and  C_40 
REMARK   17  A    between atoms: C_40  and  O_41 
ROOT
HETATM    1  C   UNK N   1      25.810  15.976   3.646  0.00  0.00     0.157 A 
HETATM    2  C   UNK N   1      26.841  15.083   4.022  0.00  0.00     0.223 A 
HETATM    3  O   UNK N   1      26.757  13.897   3.778  0.00  0.00    -0.284 OA
HETATM    4  C   UNK N   1      27.968  15.556   4.704  0.00  0.00     0.085 A 
HETATM    5  C   UNK N   1      29.027  14.697   5.059  0.00  0.00     0.085 A 
HETATM    6  C   UNK N   1      30.072  15.179   5.810  0.00  0.00     0.075 A 
HETATM    7  C   UNK N   1      30.110  16.494   6.257  0.00  0.00     0.084 A 
HETATM    8  C   UNK N   1      29.116  17.403   5.843  0.00  0.00     0.014 A 
HETATM    9  C   UNK N   1      28.028  16.924   5.053  0.00  0.00     0.102 A 
HETATM   10  O   UNK N   1      27.048  17.737   4.680  0.00  0.00    -0.305 OA
HETATM   11  C   UNK N   1      25.969  17.347   3.996  0.00  0.00     0.123 A 
ENDROOT
BRANCH   7  12
HETATM   12  O   UNK N   1      31.066  16.894   7.139  0.00  0.00    -0.317 OA
BRANCH  12  13
HETATM   13  C   UNK N   1      32.313  16.300   7.371  0.00  0.00     0.298 C 
HETATM   14  C   UNK N   1      33.593  17.155   7.039  0.00  0.00     0.205 C 
HETATM   15  C   UNK N   1      34.036  17.886   8.313  0.00  0.00     0.183 C 
HETATM   16  C   UNK N   1      34.315  16.869   9.444  0.00  0.00     0.180 C 
HETATM   17  C   UNK N   1      33.658  15.520   9.076  0.00  0.00     0.179 C 
HETATM   18  O   UNK N   1      32.326  15.727   8.675  0.00  0.00    -0.348 OA
BRANCH  14  19
HETATM   19  O   UNK N   1      33.438  17.991   5.928  0.00  0.00    -0.388 OA
HETATM   20  H   UNK N   1      33.967  18.055   5.118  0.00  0.00     0.210 HD
ENDBRANCH  14  19
BRANCH  15  21
HETATM   21  O   UNK N   1      35.116  18.745   8.090  0.00  0.00    -0.390 OA
HETATM   22  H   UNK N   1      35.390  19.158   7.256  0.00  0.00     0.210 HD
ENDBRANCH  15  21
BRANCH  16  23
HETATM   23  O   UNK N   1      35.687  16.692   9.634  0.00  0.00    -0.390 OA
HETATM   24  H   UNK N   1      36.362  17.388   9.647  0.00  0.00     0.210 HD
ENDBRANCH  16  23
BRANCH  17  25
HETATM   25  C   UNK N   1      33.760  14.461  10.153  0.00  0.00     0.198 C 
BRANCH  25  26
HETATM   26  O   UNK N   1      33.692  15.073  11.405  0.00  0.00    -0.398 OA
HETATM   27  H   UNK N   1      34.359  15.311  12.067  0.00  0.00     0.209 HD
ENDBRANCH  25  26
ENDBRANCH  17  25
ENDBRANCH  12  13
ENDBRANCH   7  12
BRANCH   8  28
HETATM   28  C   UNK N   1      29.245  18.826   6.346  0.00  0.00     0.072 C 
BRANCH  28  29
HETATM   29  C   UNK N   1      28.125  19.399   7.161  0.00  0.00    -0.020 C 
HETATM   30  C   UNK N   1      27.361  20.397   6.704  0.00  0.00    -0.091 C 
HETATM   31  C   UNK N   1      26.269  20.931   7.562  0.00  0.00     0.042 C 
HETATM   32  C   UNK N   1      27.587  21.007   5.356  0.00  0.00     0.042 C 
ENDBRANCH  28  29
ENDBRANCH   8  28
BRANCH   5  33
HETATM   33  O   UNK N   1      29.041  13.399   4.708  0.00  0.00    -0.360 OA
HETATM   34  H   UNK N   1      28.345  12.829   4.973  0.00  0.00     0.217 HD
ENDBRANCH   5  33
BRANCH  11  35
HETATM   35  C   UNK N   1      24.964  18.394   3.663  0.00  0.00     0.001 A 
HETATM   36  C   UNK N   1      23.626  18.190   4.038  0.00  0.00     0.017 A 
HETATM   37  C   UNK N   1      22.647  19.142   3.747  0.00  0.00     0.037 A 
HETATM   38  C   UNK N   1      22.983  20.315   3.067  0.00  0.00     0.068 A 
HETATM   39  C   UNK N   1      24.318  20.526   2.682  0.00  0.00     0.037 A 
HETATM   40  C   UNK N   1      25.298  19.575   2.979  0.00  0.00     0.017 A 
BRANCH  38  41
HETATM   41  O   UNK N   1      22.012  21.218   2.796  0.00  0.00    -0.356 OA
HETATM   42  C   UNK N   1      20.724  20.865   2.460  0.00  0.00     0.210 C 
ENDBRANCH  38  41
ENDBRANCH  11  35
BRANCH   1  43
HETATM   43  O   UNK N   1      24.690  15.575   2.959  0.00  0.00    -0.311 OA
BRANCH  43  44
HETATM   44  C   UNK N   1      23.535  14.985   3.462  0.00  0.00     0.298 C 
HETATM   45  C   UNK N   1      23.363  13.553   2.938  0.00  0.00     0.205 C 
HETATM   46  C   UNK N   1      22.037  12.990   3.484  0.00  0.00     0.183 C 
HETATM   47  C   UNK N   1      21.852  13.271   4.983  0.00  0.00     0.178 C 
HETATM   48  C   UNK N   1      22.222  14.729   5.234  0.00  0.00     0.152 C 
HETATM   49  C   UNK N   1      22.030  15.138   6.684  0.00  0.00     0.042 C 
HETATM   50  O   UNK N   1      23.565  14.894   4.862  0.00  0.00    -0.351 OA
BRANCH  45  51
HETATM   51  O   UNK N   1      23.343  13.536   1.544  0.00  0.00    -0.388 OA
HETATM   52  H   UNK N   1      22.718  13.322   0.833  0.00  0.00     0.210 HD
ENDBRANCH  45  51
BRANCH  46  53
HETATM   53  O   UNK N   1      21.962  11.616   3.248  0.00  0.00    -0.390 OA
HETATM   54  H   UNK N   1      21.108  11.181   3.104  0.00  0.00     0.210 HD
ENDBRANCH  46  53
BRANCH  47  55
HETATM   55  O   UNK N   1      20.522  13.036   5.341  0.00  0.00    -0.390 OA
HETATM   56  H   UNK N   1      20.202  12.935   6.252  0.00  0.00     0.210 HD
ENDBRANCH  47  55
ENDBRANCH  43  44
ENDBRANCH   1  43
TORSDOF 17
ENDMDL
MODEL 8
REMARK VINA RESULT:      -8.0      2.328      3.524
REMARK  17 active torsions:
REMARK  status: ('A' for Active; 'I' for Inactive)
REMARK    1  A    between atoms: C_3  and  O_48 
REMARK    2  A    between atoms: C_4  and  O_47 
REMARK    3  A    between atoms: C_5  and  O_46 
REMARK    4  A    between atoms: C_6  and  O_8 
REMARK    5  A    between atoms: O_8  and  C_9 
REMARK    6  A    between atoms: C_13  and  O_45 
REMARK    7  A    between atoms: C_15  and  O_33 
REMARK    8  A    between atoms: C_16  and  C_28 
REMARK    9  A    between atoms: C_19  and  C_20 
REMARK   10  A    between atoms: C_23  and  O_26 
REMARK   11  A    between atoms: C_28  and  C_29 
REMARK   12  A    between atoms: C_34  and  O_33 
REMARK   13  A    between atoms: C_35  and  O_44 
REMARK   14  A    between atoms: C_36  and  O_43 
REMARK   15  A    between atoms: C_37  and  O_42 
REMARK   16  A    between atoms: C_38  and  C_40 
REMARK   17  A    between atoms: C_40  and  O_41 
ROOT
HETATM    1  C   UNK N   1      31.483  15.795   4.694  0.00  0.00     0.157 A 
HETATM    2  C   UNK N   1      30.422  15.639   3.772  0.00  0.00     0.223 A 
HETATM    3  O   UNK N   1      30.594  15.065   2.716  0.00  0.00    -0.284 OA
HETATM    4  C   UNK N   1      29.157  16.167   4.057  0.00  0.00     0.085 A 
HETATM    5  C   UNK N   1      28.072  15.995   3.175  0.00  0.00     0.085 A 
HETATM    6  C   UNK N   1      26.872  16.608   3.444  0.00  0.00     0.075 A 
HETATM    7  C   UNK N   1      26.696  17.420   4.558  0.00  0.00     0.084 A 
HETATM    8  C   UNK N   1      27.729  17.538   5.508  0.00  0.00     0.014 A 
HETATM    9  C   UNK N   1      28.979  16.900   5.252  0.00  0.00     0.102 A 
HETATM   10  O   UNK N   1      29.993  17.023   6.100  0.00  0.00    -0.305 OA
HETATM   11  C   UNK N   1      31.209  16.508   5.895  0.00  0.00     0.123 A 
ENDROOT
BRANCH   7  12
HETATM   12  O   UNK N   1      25.555  18.149   4.705  0.00  0.00    -0.317 OA
BRANCH  12  13
HETATM   13  C   UNK N   1      24.383  18.060   3.943  0.00  0.00     0.298 C 
HETATM   14  C   UNK N   1      23.290  17.031   4.418  0.00  0.00     0.205 C 
HETATM   15  C   UNK N   1      22.292  17.765   5.324  0.00  0.00     0.183 C 
HETATM   16  C   UNK N   1      21.657  18.954   4.569  0.00  0.00     0.180 C 
HETATM   17  C   UNK N   1      22.523  19.281   3.333  0.00  0.00     0.179 C 
HETATM   18  O   UNK N   1      23.877  19.369   3.704  0.00  0.00    -0.348 OA
BRANCH  14  19
HETATM   19  O   UNK N   1      23.820  15.866   4.981  0.00  0.00    -0.388 OA
HETATM   20  H   UNK N   1      23.372  15.068   5.301  0.00  0.00     0.210 HD
ENDBRANCH  14  19
BRANCH  15  21
HETATM   21  O   UNK N   1      21.333  16.906   5.870  0.00  0.00    -0.390 OA
HETATM   22  H   UNK N   1      21.476  16.073   6.345  0.00  0.00     0.210 HD
ENDBRANCH  15  21
BRANCH  16  23
HETATM   23  O   UNK N   1      20.353  18.657   4.168  0.00  0.00    -0.390 OA
HETATM   24  H   UNK N   1      20.050  18.496   3.261  0.00  0.00     0.210 HD
ENDBRANCH  16  23
BRANCH  17  25
HETATM   25  C   UNK N   1      22.075  20.503   2.560  0.00  0.00     0.198 C 
BRANCH  25  26
HETATM   26  O   UNK N   1      21.052  21.141   3.264  0.00  0.00    -0.398 OA
HETATM   27  H   UNK N   1      20.094  21.209   3.130  0.00  0.00     0.209 HD
ENDBRANCH  25  26
ENDBRANCH  17  25
ENDBRANCH  12  13
ENDBRANCH   7  12
BRANCH   8  28
HETATM   28  C   UNK N   1      27.447  18.416   6.711  0.00  0.00     0.072 C 
BRANCH  28  29
HETATM   29  C   UNK N   1      28.603  18.861   7.555  0.00  0.00    -0.020 C 
HETATM   30  C   UNK N   1      28.847  18.323   8.756  0.00  0.00    -0.091 C 
HETATM   31  C   UNK N   1      30.004  18.813   9.553  0.00  0.00     0.042 C 
HETATM   32  C   UNK N   1      27.972  17.253   9.330  0.00  0.00     0.042 C 
ENDBRANCH  28  29
ENDBRANCH   8  28
BRANCH   5  33
HETATM   33  O   UNK N   1      28.176  15.266   2.049  0.00  0.00    -0.360 OA
HETATM   34  H   UNK N   1      29.001  15.185   1.612  0.00  0.00     0.217 HD
ENDBRANCH   5  33
BRANCH  11  35
HETATM   35  C   UNK N   1      32.231  16.746   6.953  0.00  0.00     0.001 A 
HETATM   36  C   UNK N   1      33.228  17.707   6.723  0.00  0.00     0.017 A 
HETATM   37  C   UNK N   1      34.209  17.966   7.683  0.00  0.00     0.037 A 
HETATM   38  C   UNK N   1      34.217  17.263   8.890  0.00  0.00     0.068 A 
HETATM   39  C   UNK N   1      33.226  16.295   9.127  0.00  0.00     0.037 A 
HETATM   40  C   UNK N   1      32.242  16.041   8.168  0.00  0.00     0.017 A 
BRANCH  38  41
HETATM   41  O   UNK N   1      35.182  17.533   9.800  0.00  0.00    -0.356 OA
HETATM   42  C   UNK N   1      35.544  16.658  10.799  0.00  0.00     0.210 C 
ENDBRANCH  38  41
ENDBRANCH  11  35
BRANCH   1  43
HETATM   43  O   UNK N   1      32.739  15.284   4.479  0.00  0.00    -0.311 OA
BRANCH  43  44
HETATM   44  C   UNK N   1      33.339  14.184   5.085  0.00  0.00     0.298 C 
HETATM   45  C   UNK N   1      33.653  13.084   4.062  0.00  0.00     0.205 C 
HETATM   46  C   UNK N   1      34.254  11.879   4.812  0.00  0.00     0.183 C 
HETATM   47  C   UNK N   1      35.331  12.295   5.824  0.00  0.00     0.178 C 
HETATM   48  C   UNK N   1      34.799  13.493   6.607  0.00  0.00     0.152 C 
HETATM   49  C   UNK N   1      35.766  13.965   7.678  0.00  0.00     0.042 C 
HETATM   50  O   UNK N   1      34.560  14.525   5.687  0.00  0.00    -0.351 OA
BRANCH  45  51
HETATM   51  O   UNK N   1      32.496  12.690   3.390  0.00  0.00    -0.388 OA
HETATM   52  H   UNK N   1      32.242  12.389   2.503  0.00  0.00     0.210 HD
ENDBRANCH  45  51
BRANCH  46  53
HETATM   53  O   UNK N   1      34.787  10.963   3.904  0.00  0.00    -0.390 OA
HETATM   54  H   UNK N   1      34.933  10.038   4.157  0.00  0.00     0.210 HD
ENDBRANCH  46  53
BRANCH  47  55
HETATM   55  O   UNK N   1      35.599  11.229   6.686  0.00  0.00    -0.390 OA
HETATM   56  H   UNK N   1      35.129  11.056   7.518  0.00  0.00     0.210 HD
ENDBRANCH  47  55
ENDBRANCH  43  44
ENDBRANCH   1  43
TORSDOF 17
ENDMDL
MODEL 9
REMARK VINA RESULT:      -7.9      6.001     10.302
REMARK  17 active torsions:
REMARK  status: ('A' for Active; 'I' for Inactive)
REMARK    1  A    between atoms: C_3  and  O_48 
REMARK    2  A    between atoms: C_4  and  O_47 
REMARK    3  A    between atoms: C_5  and  O_46 
REMARK    4  A    between atoms: C_6  and  O_8 
REMARK    5  A    between atoms: O_8  and  C_9 
REMARK    6  A    between atoms: C_13  and  O_45 
REMARK    7  A    between atoms: C_15  and  O_33 
REMARK    8  A    between atoms: C_16  and  C_28 
REMARK    9  A    between atoms: C_19  and  C_20 
REMARK   10  A    between atoms: C_23  and  O_26 
REMARK   11  A    between atoms: C_28  and  C_29 
REMARK   12  A    between atoms: C_34  and  O_33 
REMARK   13  A    between atoms: C_35  and  O_44 
REMARK   14  A    between atoms: C_36  and  O_43 
REMARK   15  A    between atoms: C_37  and  O_42 
REMARK   16  A    between atoms: C_38  and  C_40 
REMARK   17  A    between atoms: C_40  and  O_41 
ROOT
HETATM    1  C   UNK N   1      35.177  13.389  10.894  0.00  0.00     0.157 A 
HETATM    2  C   UNK N   1      35.200  14.782  10.650  0.00  0.00     0.223 A 
HETATM    3  O   UNK N   1      35.752  15.540  11.422  0.00  0.00    -0.284 OA
HETATM    4  C   UNK N   1      34.566  15.310   9.519  0.00  0.00     0.085 A 
HETATM    5  C   UNK N   1      34.604  16.689   9.231  0.00  0.00     0.085 A 
HETATM    6  C   UNK N   1      33.890  17.181   8.165  0.00  0.00     0.075 A 
HETATM    7  C   UNK N   1      33.104  16.360   7.365  0.00  0.00     0.084 A 
HETATM    8  C   UNK N   1      33.117  14.966   7.567  0.00  0.00     0.014 A 
HETATM    9  C   UNK N   1      33.861  14.435   8.663  0.00  0.00     0.102 A 
HETATM   10  O   UNK N   1      33.863  13.131   8.915  0.00  0.00    -0.305 OA
HETATM   11  C   UNK N   1      34.483  12.570   9.957  0.00  0.00     0.123 A 
ENDROOT
BRANCH   7  12
HETATM   12  O   UNK N   1      32.277  16.901   6.429  0.00  0.00    -0.317 OA
BRANCH  12  13
HETATM   13  C   UNK N   1      31.073  17.583   6.646  0.00  0.00     0.298 C 
HETATM   14  C   UNK N   1      30.047  17.634   5.454  0.00  0.00     0.205 C 
HETATM   15  C   UNK N   1      29.066  16.464   5.604  0.00  0.00     0.183 C 
HETATM   16  C   UNK N   1      28.348  16.539   6.971  0.00  0.00     0.180 C 
HETATM   17  C   UNK N   1      29.138  17.486   7.900  0.00  0.00     0.179 C 
HETATM   18  O   UNK N   1      30.505  17.151   7.879  0.00  0.00    -0.348 OA
BRANCH  14  19
HETATM   19  O   UNK N   1      30.650  17.713   4.195  0.00  0.00    -0.388 OA
HETATM   20  H   UNK N   1      30.397  17.300   3.355  0.00  0.00     0.210 HD
ENDBRANCH  14  19
BRANCH  15  21
HETATM   21  O   UNK N   1      28.170  16.375   4.535  0.00  0.00    -0.390 OA
HETATM   22  H   UNK N   1      27.631  17.081   4.145  0.00  0.00     0.210 HD
ENDBRANCH  15  21
BRANCH  16  23
HETATM   23  O   UNK N   1      27.038  17.002   6.826  0.00  0.00    -0.390 OA
HETATM   24  H   UNK N   1      26.291  16.511   6.450  0.00  0.00     0.210 HD
ENDBRANCH  16  23
BRANCH  17  25
HETATM   25  C   UNK N   1      28.604  17.566   9.314  0.00  0.00     0.198 C 
BRANCH  25  26
HETATM   26  O   UNK N   1      27.418  18.301   9.315  0.00  0.00    -0.398 OA
HETATM   27  H   UNK N   1      26.832  18.620   8.611  0.00  0.00     0.209 HD
ENDBRANCH  25  26
ENDBRANCH  17  25
ENDBRANCH  12  13
ENDBRANCH   7  12
BRANCH   8  28
HETATM   28  C   UNK N   1      32.259  14.137   6.634  0.00  0.00     0.072 C 
BRANCH  28  29
HETATM   29  C   UNK N   1      32.859  13.665   5.344  0.00  0.00    -0.020 C 
HETATM   30  C   UNK N   1      33.205  12.388   5.153  0.00  0.00    -0.091 C 
HETATM   31  C   UNK N   1      33.804  11.980   3.854  0.00  0.00     0.042 C 
HETATM   32  C   UNK N   1      33.024  11.356   6.223  0.00  0.00     0.042 C 
ENDBRANCH  28  29
ENDBRANCH   8  28
BRANCH   5  33
HETATM   33  O   UNK N   1      35.300  17.557   9.987  0.00  0.00    -0.360 OA
HETATM   34  H   UNK N   1      35.940  17.246  10.596  0.00  0.00     0.217 HD
ENDBRANCH   5  33
BRANCH  11  35
HETATM   35  C   UNK N   1      34.379  11.090  10.089  0.00  0.00     0.001 A 
HETATM   36  C   UNK N   1      33.105  10.500  10.080  0.00  0.00     0.017 A 
HETATM   37  C   UNK N   1      32.956   9.116  10.202  0.00  0.00     0.037 A 
HETATM   38  C   UNK N   1      34.077   8.296  10.344  0.00  0.00     0.068 A 
HETATM   39  C   UNK N   1      35.356   8.878  10.360  0.00  0.00     0.037 A 
HETATM   40  C   UNK N   1      35.504  10.261  10.232  0.00  0.00     0.017 A 
BRANCH  38  41
HETATM   41  O   UNK N   1      33.900   6.959  10.463  0.00  0.00    -0.356 OA
HETATM   42  C   UNK N   1      32.662   6.358  10.468  0.00  0.00     0.210 C 
ENDBRANCH  38  41
ENDBRANCH  11  35
BRANCH   1  43
HETATM   43  O   UNK N   1      35.797  12.810  11.974  0.00  0.00    -0.311 OA
BRANCH  43  44
HETATM   44  C   UNK N   1      35.544  13.017  13.326  0.00  0.00     0.298 C 
HETATM   45  C   UNK N   1      35.082  11.725  14.013  0.00  0.00     0.205 C 
HETATM   46  C   UNK N   1      34.761  12.045  15.486  0.00  0.00     0.183 C 
HETATM   47  C   UNK N   1      35.848  12.903  16.151  0.00  0.00     0.178 C 
HETATM   48  C   UNK N   1      36.209  14.030  15.187  0.00  0.00     0.152 C 
HETATM   49  C   UNK N   1      37.246  14.978  15.761  0.00  0.00     0.042 C 
HETATM   50  O   UNK N   1      36.695  13.439  14.011  0.00  0.00    -0.351 OA
BRANCH  45  51
HETATM   51  O   UNK N   1      33.946  11.212  13.386  0.00  0.00    -0.388 OA
HETATM   52  H   UNK N   1      33.562  10.344  13.183  0.00  0.00     0.210 HD
ENDBRANCH  45  51
BRANCH  46  53
HETATM   53  O   UNK N   1      34.585  10.863  16.209  0.00  0.00    -0.390 OA
HETATM   54  H   UNK N   1      34.053  10.850  17.020  0.00  0.00     0.210 HD
ENDBRANCH  46  53
BRANCH  47  55
HETATM   55  O   UNK N   1      35.362  13.425  17.352  0.00  0.00    -0.390 OA
HETATM   56  H   UNK N   1      34.613  14.036  17.429  0.00  0.00     0.210 HD
ENDBRANCH  47  55
ENDBRANCH  43  44
ENDBRANCH   1  43
TORSDOF 17
ENDMDL
