MODEL 1
REMARK VINA RESULT:      -7.1      0.000      0.000
REMARK  5 active torsions:
REMARK  status: ('A' for Active; 'I' for Inactive)
REMARK    1  A    between atoms: C_2  and  C_3 
REMARK    2  A    between atoms: C_3  and  N_4 
REMARK    3  A    between atoms: C_6  and  C_17 
REMARK    4  A    between atoms: C_7  and  C_10 
REMARK    5  A    between atoms: C_20  and  S_23 
ROOT
HETATM    1  N   UNK N   1      28.947  17.970   6.563  0.00  0.00    -0.344 N 
HETATM    2  C   UNK N   1      29.709  17.742   7.766  0.00  0.00     0.166 A 
HETATM    3  C   UNK N   1      30.947  17.030   7.225  0.00  0.00    -0.013 A 
HETATM    4  C   UNK N   1      30.848  16.881   5.869  0.00  0.00     0.051 A 
HETATM    5  C   UNK N   1      29.588  17.493   5.489  0.00  0.00     0.255 A 
HETATM    6  O   UNK N   1      29.129  17.535   4.355  0.00  0.00    -0.267 OA
ENDROOT
BRANCH   3   7
HETATM    7  C   UNK N   1      32.059  16.639   8.150  0.00  0.00    -0.027 A 
HETATM    8  C   UNK N   1      32.021  15.399   8.819  0.00  0.00     0.013 A 
HETATM    9  C   UNK N   1      33.065  15.018   9.679  0.00  0.00     0.024 A 
HETATM   10  C   UNK N   1      34.169  15.872   9.867  0.00  0.00     0.058 A 
HETATM   11  C   UNK N   1      34.161  17.135   9.260  0.00  0.00     0.024 A 
HETATM   12  C   UNK N   1      33.124  17.497   8.414  0.00  0.00     0.013 A 
BRANCH  10  13
HETATM   13  S   UNK N   1      35.514  15.462  11.010  0.00  0.00     0.171 S 
HETATM   14  O   UNK N   1      36.022  14.012  11.030  0.00  0.00    -0.223 OA
HETATM   15  O   UNK N   1      36.770  16.277  10.664  0.00  0.00    -0.223 OA
HETATM   16  C   UNK N   1      35.946  14.919   9.316  0.00  0.00     0.167 C 
ENDBRANCH  10  13
ENDBRANCH   3   7
BRANCH   4  17
HETATM   17  C   UNK N   1      31.755  16.217   4.870  0.00  0.00    -0.020 A 
HETATM   18  C   UNK N   1      32.466  16.946   3.908  0.00  0.00     0.013 A 
HETATM   19  C   UNK N   1      33.321  16.313   3.005  0.00  0.00     0.007 A 
HETATM   20  C   UNK N   1      33.489  14.931   3.059  0.00  0.00    -0.062 A 
HETATM   21  C   UNK N   1      32.811  14.187   4.027  0.00  0.00     0.007 A 
HETATM   22  C   UNK N   1      34.390  14.256   2.090  0.00  0.00     0.048 C 
HETATM   23  C   UNK N   1      31.960  14.828   4.933  0.00  0.00     0.013 A 
ENDBRANCH   4  17
BRANCH   1  24
HETATM   24  C   UNK N   1      27.634  18.572   6.557  0.00  0.00     0.126 C 
BRANCH  24  25
HETATM   25  C   UNK N   1      27.708  20.075   6.771  0.00  0.00     0.015 C 
HETATM   26  C   UNK N   1      27.463  20.789   5.456  0.00  0.00     0.006 C 
ENDBRANCH  24  25
ENDBRANCH   1  24
TORSDOF 5
ENDMDL
MODEL 2
REMARK VINA RESULT:      -7.1      2.751      5.908
REMARK  5 active torsions:
REMARK  status: ('A' for Active; 'I' for Inactive)
REMARK    1  A    between atoms: C_2  and  C_3 
REMARK    2  A    between atoms: C_3  and  N_4 
REMARK    3  A    between atoms: C_6  and  C_17 
REMARK    4  A    between atoms: C_7  and  C_10 
REMARK    5  A    between atoms: C_20  and  S_23 
ROOT
HETATM    1  N   UNK N   1      28.493  15.269   2.710  0.00  0.00    -0.344 N 
HETATM    2  C   UNK N   1      29.805  15.219   3.307  0.00  0.00     0.166 A 
HETATM    3  C   UNK N   1      29.764  16.414   4.257  0.00  0.00    -0.013 A 
HETATM    4  C   UNK N   1      28.555  17.046   4.166  0.00  0.00     0.051 A 
HETATM    5  C   UNK N   1      27.781  16.293   3.195  0.00  0.00     0.255 A 
HETATM    6  O   UNK N   1      26.649  16.567   2.820  0.00  0.00    -0.267 OA
ENDROOT
BRANCH   3   7
HETATM    7  C   UNK N   1      30.936  16.717   5.140  0.00  0.00    -0.027 A 
HETATM    8  C   UNK N   1      32.114  17.263   4.591  0.00  0.00     0.013 A 
HETATM    9  C   UNK N   1      33.214  17.563   5.412  0.00  0.00     0.024 A 
HETATM   10  C   UNK N   1      33.140  17.330   6.800  0.00  0.00     0.058 A 
HETATM   11  C   UNK N   1      31.996  16.715   7.325  0.00  0.00     0.024 A 
HETATM   12  C   UNK N   1      30.918  16.425   6.502  0.00  0.00     0.013 A 
BRANCH  10  13
HETATM   13  S   UNK N   1      34.547  17.639   7.899  0.00  0.00     0.171 S 
HETATM   14  O   UNK N   1      34.880  19.097   8.248  0.00  0.00    -0.223 OA
HETATM   15  O   UNK N   1      34.300  16.991   9.270  0.00  0.00    -0.223 OA
HETATM   16  C   UNK N   1      33.058  18.493   8.535  0.00  0.00     0.167 C 
ENDBRANCH  10  13
ENDBRANCH   3   7
BRANCH   4  17
HETATM   17  C   UNK N   1      28.023  18.281   4.837  0.00  0.00    -0.020 A 
HETATM   18  C   UNK N   1      27.922  18.389   6.230  0.00  0.00     0.013 A 
HETATM   19  C   UNK N   1      27.449  19.554   6.835  0.00  0.00     0.007 A 
HETATM   20  C   UNK N   1      27.075  20.643   6.049  0.00  0.00    -0.062 A 
HETATM   21  C   UNK N   1      27.192  20.568   4.660  0.00  0.00     0.007 A 
HETATM   22  C   UNK N   1      26.559  21.879   6.692  0.00  0.00     0.048 C 
HETATM   23  C   UNK N   1      27.674  19.399   4.060  0.00  0.00     0.013 A 
ENDBRANCH   4  17
BRANCH   1  24
HETATM   24  C   UNK N   1      28.056  14.362   1.672  0.00  0.00     0.126 C 
BRANCH  24  25
HETATM   25  C   UNK N   1      28.186  12.912   2.108  0.00  0.00     0.015 C 
HETATM   26  C   UNK N   1      29.043  12.156   1.112  0.00  0.00     0.006 C 
ENDBRANCH  24  25
ENDBRANCH   1  24
TORSDOF 5
ENDMDL
MODEL 3
REMARK VINA RESULT:      -6.8     12.697     15.817
REMARK  5 active torsions:
REMARK  status: ('A' for Active; 'I' for Inactive)
REMARK    1  A    between atoms: C_2  and  C_3 
REMARK    2  A    between atoms: C_3  and  N_4 
REMARK    3  A    between atoms: C_6  and  C_17 
REMARK    4  A    between atoms: C_7  and  C_10 
REMARK    5  A    between atoms: C_20  and  S_23 
ROOT
HETATM    1  N   UNK N   1      29.285  27.799  -3.702  0.00  0.00    -0.344 N 
HETATM    2  C   UNK N   1      28.206  27.223  -4.466  0.00  0.00     0.166 A 
HETATM    3  C   UNK N   1      28.658  25.771  -4.604  0.00  0.00    -0.013 A 
HETATM    4  C   UNK N   1      29.865  25.594  -3.987  0.00  0.00     0.051 A 
HETATM    5  C   UNK N   1      30.221  26.884  -3.423  0.00  0.00     0.255 A 
HETATM    6  O   UNK N   1      31.252  27.136  -2.814  0.00  0.00    -0.267 OA
ENDROOT
BRANCH   3   7
HETATM    7  C   UNK N   1      27.789  24.773  -5.306  0.00  0.00    -0.027 A 
HETATM    8  C   UNK N   1      28.289  24.046  -6.405  0.00  0.00     0.013 A 
HETATM    9  C   UNK N   1      27.486  23.099  -7.062  0.00  0.00     0.024 A 
HETATM   10  C   UNK N   1      26.173  22.859  -6.614  0.00  0.00     0.058 A 
HETATM   11  C   UNK N   1      25.657  23.640  -5.571  0.00  0.00     0.024 A 
HETATM   12  C   UNK N   1      26.462  24.572  -4.933  0.00  0.00     0.013 A 
BRANCH  10  13
HETATM   13  S   UNK N   1      25.070  21.695  -7.459  0.00  0.00     0.171 S 
HETATM   14  O   UNK N   1      23.806  22.258  -8.126  0.00  0.00    -0.223 OA
HETATM   15  O   UNK N   1      25.811  21.010  -8.618  0.00  0.00    -0.223 OA
HETATM   16  C   UNK N   1      25.507  23.071  -8.585  0.00  0.00     0.167 C 
ENDBRANCH  10  13
ENDBRANCH   3   7
BRANCH   4  17
HETATM   17  C   UNK N   1      30.759  24.391  -3.871  0.00  0.00    -0.020 A 
HETATM   18  C   UNK N   1      31.881  24.214  -4.691  0.00  0.00     0.013 A 
HETATM   19  C   UNK N   1      32.713  23.102  -4.552  0.00  0.00     0.007 A 
HETATM   20  C   UNK N   1      32.439  22.148  -3.575  0.00  0.00    -0.062 A 
HETATM   21  C   UNK N   1      31.342  22.317  -2.728  0.00  0.00     0.007 A 
HETATM   22  C   UNK N   1      33.317  20.958  -3.434  0.00  0.00     0.048 C 
HETATM   23  C   UNK N   1      30.515  23.437  -2.869  0.00  0.00     0.013 A 
ENDBRANCH   4  17
BRANCH   1  24
HETATM   24  C   UNK N   1      29.356  29.202  -3.359  0.00  0.00     0.126 C 
BRANCH  24  25
HETATM   25  C   UNK N   1      28.473  29.529  -2.166  0.00  0.00     0.015 C 
HETATM   26  C   UNK N   1      29.339  29.911  -0.981  0.00  0.00     0.006 C 
ENDBRANCH  24  25
ENDBRANCH   1  24
TORSDOF 5
ENDMDL
MODEL 4
REMARK VINA RESULT:      -6.8     12.165     15.049
REMARK  5 active torsions:
REMARK  status: ('A' for Active; 'I' for Inactive)
REMARK    1  A    between atoms: C_2  and  C_3 
REMARK    2  A    between atoms: C_3  and  N_4 
REMARK    3  A    between atoms: C_6  and  C_17 
REMARK    4  A    between atoms: C_7  and  C_10 
REMARK    5  A    between atoms: C_20  and  S_23 
ROOT
HETATM    1  N   UNK N   1      26.112  26.762  -4.351  0.00  0.00    -0.344 N 
HETATM    2  C   UNK N   1      27.183  26.078  -3.667  0.00  0.00     0.166 A 
HETATM    3  C   UNK N   1      27.418  24.874  -4.577  0.00  0.00    -0.013 A 
HETATM    4  C   UNK N   1      26.550  24.906  -5.633  0.00  0.00     0.051 A 
HETATM    5  C   UNK N   1      25.755  26.110  -5.464  0.00  0.00     0.255 A 
HETATM    6  O   UNK N   1      24.846  26.473  -6.197  0.00  0.00    -0.267 OA
ENDROOT
BRANCH   3   7
HETATM    7  C   UNK N   1      28.506  23.893  -4.264  0.00  0.00    -0.027 A 
HETATM    8  C   UNK N   1      28.883  23.656  -2.927  0.00  0.00     0.013 A 
HETATM    9  C   UNK N   1      29.894  22.728  -2.622  0.00  0.00     0.024 A 
HETATM   10  C   UNK N   1      30.529  22.015  -3.657  0.00  0.00     0.058 A 
HETATM   11  C   UNK N   1      30.202  22.313  -4.987  0.00  0.00     0.024 A 
HETATM   12  C   UNK N   1      29.203  23.231  -5.272  0.00  0.00     0.013 A 
BRANCH  10  13
HETATM   13  S   UNK N   1      31.879  20.852  -3.330  0.00  0.00     0.171 S 
HETATM   14  O   UNK N   1      32.883  20.580  -4.461  0.00  0.00    -0.223 OA
HETATM   15  O   UNK N   1      32.763  21.374  -2.186  0.00  0.00    -0.223 OA
HETATM   16  C   UNK N   1      32.554  22.428  -3.971  0.00  0.00     0.167 C 
ENDBRANCH  10  13
ENDBRANCH   3   7
BRANCH   4  17
HETATM   17  C   UNK N   1      26.331  23.951  -6.773  0.00  0.00    -0.020 A 
HETATM   18  C   UNK N   1      26.840  24.190  -8.056  0.00  0.00     0.013 A 
HETATM   19  C   UNK N   1      26.647  23.279  -9.095  0.00  0.00     0.007 A 
HETATM   20  C   UNK N   1      25.945  22.099  -8.862  0.00  0.00    -0.062 A 
HETATM   21  C   UNK N   1      25.451  21.826  -7.584  0.00  0.00     0.007 A 
HETATM   22  C   UNK N   1      25.729  21.134  -9.970  0.00  0.00     0.048 C 
HETATM   23  C   UNK N   1      25.654  22.741  -6.545  0.00  0.00     0.013 A 
ENDBRANCH   4  17
BRANCH   1  24
HETATM   24  C   UNK N   1      25.477  27.956  -3.839  0.00  0.00     0.126 C 
BRANCH  24  25
HETATM   25  C   UNK N   1      26.485  29.072  -3.619  0.00  0.00     0.015 C 
HETATM   26  C   UNK N   1      27.056  29.512  -4.953  0.00  0.00     0.006 C 
ENDBRANCH  24  25
ENDBRANCH   1  24
TORSDOF 5
ENDMDL
MODEL 5
REMARK VINA RESULT:      -6.7      4.978      8.991
REMARK  5 active torsions:
REMARK  status: ('A' for Active; 'I' for Inactive)
REMARK    1  A    between atoms: C_2  and  C_3 
REMARK    2  A    between atoms: C_3  and  N_4 
REMARK    3  A    between atoms: C_6  and  C_17 
REMARK    4  A    between atoms: C_7  and  C_10 
REMARK    5  A    between atoms: C_20  and  S_23 
ROOT
HETATM    1  N   UNK N   1      36.275  12.754  14.335  0.00  0.00    -0.344 N 
HETATM    2  C   UNK N   1      35.529  13.842  13.751  0.00  0.00     0.166 A 
HETATM    3  C   UNK N   1      35.961  13.769  12.288  0.00  0.00    -0.013 A 
HETATM    4  C   UNK N   1      36.859  12.752  12.112  0.00  0.00     0.051 A 
HETATM    5  C   UNK N   1      37.022  12.132  13.415  0.00  0.00     0.255 A 
HETATM    6  O   UNK N   1      37.770  11.198  13.671  0.00  0.00    -0.267 OA
ENDROOT
BRANCH   3   7
HETATM    7  C   UNK N   1      35.378  14.712  11.281  0.00  0.00    -0.027 A 
HETATM    8  C   UNK N   1      34.358  14.277  10.410  0.00  0.00     0.013 A 
HETATM    9  C   UNK N   1      33.795  15.157   9.471  0.00  0.00     0.024 A 
HETATM   10  C   UNK N   1      34.240  16.492   9.403  0.00  0.00     0.058 A 
HETATM   11  C   UNK N   1      35.306  16.894  10.217  0.00  0.00     0.024 A 
HETATM   12  C   UNK N   1      35.852  16.014  11.139  0.00  0.00     0.013 A 
BRANCH  10  13
HETATM   13  S   UNK N   1      33.595  17.655   8.172  0.00  0.00     0.171 S 
HETATM   14  O   UNK N   1      34.584  18.252   7.160  0.00  0.00    -0.223 OA
HETATM   15  O   UNK N   1      32.550  16.961   7.284  0.00  0.00    -0.223 OA
HETATM   16  C   UNK N   1      34.532  16.321   7.340  0.00  0.00     0.167 C 
ENDBRANCH  10  13
ENDBRANCH   3   7
BRANCH   4  17
HETATM   17  C   UNK N   1      37.618  12.291  10.900  0.00  0.00    -0.020 A 
HETATM   18  C   UNK N   1      37.243  11.153  10.173  0.00  0.00     0.013 A 
HETATM   19  C   UNK N   1      37.946  10.755   9.035  0.00  0.00     0.007 A 
HETATM   20  C   UNK N   1      39.038  11.501   8.597  0.00  0.00    -0.062 A 
HETATM   21  C   UNK N   1      39.414  12.654   9.290  0.00  0.00     0.007 A 
HETATM   22  C   UNK N   1      39.795  11.071   7.393  0.00  0.00     0.048 C 
HETATM   23  C   UNK N   1      38.701  13.051  10.427  0.00  0.00     0.013 A 
ENDBRANCH   4  17
BRANCH   1  24
HETATM   24  C   UNK N   1      36.255  12.445  15.747  0.00  0.00     0.126 C 
BRANCH  24  25
HETATM   25  C   UNK N   1      34.940  12.857  16.389  0.00  0.00     0.015 C 
HETATM   26  C   UNK N   1      35.138  13.038  17.882  0.00  0.00     0.006 C 
ENDBRANCH  24  25
ENDBRANCH   1  24
TORSDOF 5
ENDMDL
MODEL 6
REMARK VINA RESULT:      -6.6      3.087      5.721
REMARK  5 active torsions:
REMARK  status: ('A' for Active; 'I' for Inactive)
REMARK    1  A    between atoms: C_2  and  C_3 
REMARK    2  A    between atoms: C_3  and  N_4 
REMARK    3  A    between atoms: C_6  and  C_17 
REMARK    4  A    between atoms: C_7  and  C_10 
REMARK    5  A    between atoms: C_20  and  S_23 
ROOT
HETATM    1  N   UNK N   1      29.002  17.819   5.950  0.00  0.00    -0.344 N 
HETATM    2  C   UNK N   1      29.607  17.178   4.809  0.00  0.00     0.166 A 
HETATM    3  C   UNK N   1      30.953  16.730   5.377  0.00  0.00    -0.013 A 
HETATM    4  C   UNK N   1      31.059  17.107   6.687  0.00  0.00     0.051 A 
HETATM    5  C   UNK N   1      29.813  17.777   7.014  0.00  0.00     0.255 A 
HETATM    6  O   UNK N   1      29.539  18.284   8.094  0.00  0.00    -0.267 OA
ENDROOT
BRANCH   3   7
HETATM    7  C   UNK N   1      31.912  15.958   4.524  0.00  0.00    -0.027 A 
HETATM    8  C   UNK N   1      32.581  16.593   3.457  0.00  0.00     0.013 A 
HETATM    9  C   UNK N   1      33.493  15.881   2.659  0.00  0.00     0.024 A 
HETATM   10  C   UNK N   1      33.756  14.525   2.932  0.00  0.00     0.058 A 
HETATM   11  C   UNK N   1      33.031  13.882   3.944  0.00  0.00     0.024 A 
HETATM   12  C   UNK N   1      32.133  14.597   4.722  0.00  0.00     0.013 A 
BRANCH  10  13
HETATM   13  S   UNK N   1      34.875  13.540   1.901  0.00  0.00     0.171 S 
HETATM   14  O   UNK N   1      34.804  12.010   2.022  0.00  0.00    -0.223 OA
HETATM   15  O   UNK N   1      34.585  13.794   0.413  0.00  0.00    -0.223 OA
HETATM   16  C   UNK N   1      33.151  12.966   1.678  0.00  0.00     0.167 C 
ENDBRANCH  10  13
ENDBRANCH   3   7
BRANCH   4  17
HETATM   17  C   UNK N   1      32.179  16.960   7.679  0.00  0.00    -0.020 A 
HETATM   18  C   UNK N   1      32.286  15.846   8.522  0.00  0.00     0.013 A 
HETATM   19  C   UNK N   1      33.347  15.716   9.420  0.00  0.00     0.007 A 
HETATM   20  C   UNK N   1      34.331  16.700   9.480  0.00  0.00    -0.062 A 
HETATM   21  C   UNK N   1      34.260  17.806   8.629  0.00  0.00     0.007 A 
HETATM   22  C   UNK N   1      35.454  16.568  10.443  0.00  0.00     0.048 C 
HETATM   23  C   UNK N   1      33.197  17.927   7.728  0.00  0.00     0.013 A 
ENDBRANCH   4  17
BRANCH   1  24
HETATM   24  C   UNK N   1      27.716  18.477   5.903  0.00  0.00     0.126 C 
BRANCH  24  25
HETATM   25  C   UNK N   1      27.797  19.805   5.168  0.00  0.00     0.015 C 
HETATM   26  C   UNK N   1      27.597  20.943   6.149  0.00  0.00     0.006 C 
ENDBRANCH  24  25
ENDBRANCH   1  24
TORSDOF 5
ENDMDL
MODEL 7
REMARK VINA RESULT:      -6.5      5.982      9.978
REMARK  5 active torsions:
REMARK  status: ('A' for Active; 'I' for Inactive)
REMARK    1  A    between atoms: C_2  and  C_3 
REMARK    2  A    between atoms: C_3  and  N_4 
REMARK    3  A    between atoms: C_6  and  C_17 
REMARK    4  A    between atoms: C_7  and  C_10 
REMARK    5  A    between atoms: C_20  and  S_23 
ROOT
HETATM    1  N   UNK N   1      28.163  17.710   6.193  0.00  0.00    -0.344 N 
HETATM    2  C   UNK N   1      27.194  18.727   5.869  0.00  0.00     0.166 A 
HETATM    3  C   UNK N   1      26.281  17.992   4.889  0.00  0.00    -0.013 A 
HETATM    4  C   UNK N   1      26.729  16.714   4.698  0.00  0.00     0.051 A 
HETATM    5  C   UNK N   1      27.903  16.570   5.540  0.00  0.00     0.255 A 
HETATM    6  O   UNK N   1      28.603  15.570   5.622  0.00  0.00    -0.267 OA
ENDROOT
BRANCH   3   7
HETATM    7  C   UNK N   1      25.077  18.677   4.321  0.00  0.00    -0.027 A 
HETATM    8  C   UNK N   1      25.226  19.842   3.541  0.00  0.00     0.013 A 
HETATM    9  C   UNK N   1      24.103  20.485   2.993  0.00  0.00     0.024 A 
HETATM   10  C   UNK N   1      22.815  19.957   3.209  0.00  0.00     0.058 A 
HETATM   11  C   UNK N   1      22.669  18.845   4.048  0.00  0.00     0.024 A 
HETATM   12  C   UNK N   1      23.787  18.222   4.583  0.00  0.00     0.013 A 
BRANCH  10  13
HETATM   13  S   UNK N   1      21.327  20.776   2.579  0.00  0.00     0.171 S 
HETATM   14  O   UNK N   1      20.650  20.180   1.335  0.00  0.00    -0.223 OA
HETATM   15  O   UNK N   1      20.215  20.744   3.640  0.00  0.00    -0.223 OA
HETATM   16  C   UNK N   1      21.000  18.992   2.830  0.00  0.00     0.167 C 
ENDBRANCH  10  13
ENDBRANCH   3   7
BRANCH   4  17
HETATM   17  C   UNK N   1      26.233  15.606   3.812  0.00  0.00    -0.020 A 
HETATM   18  C   UNK N   1      25.615  14.458   4.327  0.00  0.00     0.013 A 
HETATM   19  C   UNK N   1      25.139  13.452   3.486  0.00  0.00     0.007 A 
HETATM   20  C   UNK N   1      25.264  13.584   2.104  0.00  0.00    -0.062 A 
HETATM   21  C   UNK N   1      25.851  14.732   1.567  0.00  0.00     0.007 A 
HETATM   22  C   UNK N   1      24.768  12.508   1.209  0.00  0.00     0.048 C 
HETATM   23  C   UNK N   1      26.321  15.740   2.416  0.00  0.00     0.013 A 
ENDBRANCH   4  17
BRANCH   1  24
HETATM   24  C   UNK N   1      29.300  17.940   7.055  0.00  0.00     0.126 C 
BRANCH  24  25
HETATM   25  C   UNK N   1      28.891  18.637   8.342  0.00  0.00     0.015 C 
HETATM   26  C   UNK N   1      28.261  17.632   9.286  0.00  0.00     0.006 C 
ENDBRANCH  24  25
ENDBRANCH   1  24
TORSDOF 5
ENDMDL
MODEL 8
REMARK VINA RESULT:      -6.4      3.331      4.508
REMARK  5 active torsions:
REMARK  status: ('A' for Active; 'I' for Inactive)
REMARK    1  A    between atoms: C_2  and  C_3 
REMARK    2  A    between atoms: C_3  and  N_4 
REMARK    3  A    between atoms: C_6  and  C_17 
REMARK    4  A    between atoms: C_7  and  C_10 
REMARK    5  A    between atoms: C_20  and  S_23 
ROOT
HETATM    1  N   UNK N   1      26.248  18.491   4.450  0.00  0.00    -0.344 N 
HETATM    2  C   UNK N   1      27.466  18.765   5.173  0.00  0.00     0.166 A 
HETATM    3  C   UNK N   1      28.303  17.527   4.860  0.00  0.00    -0.013 A 
HETATM    4  C   UNK N   1      27.597  16.671   4.060  0.00  0.00     0.051 A 
HETATM    5  C   UNK N   1      26.319  17.314   3.815  0.00  0.00     0.255 A 
HETATM    6  O   UNK N   1      25.398  16.843   3.162  0.00  0.00    -0.267 OA
ENDROOT
BRANCH   3   7
HETATM    7  C   UNK N   1      29.702  17.410   5.384  0.00  0.00    -0.027 A 
HETATM    8  C   UNK N   1      30.799  17.514   4.505  0.00  0.00     0.013 A 
HETATM    9  C   UNK N   1      32.115  17.418   4.988  0.00  0.00     0.024 A 
HETATM   10  C   UNK N   1      32.346  17.231   6.365  0.00  0.00     0.058 A 
HETATM   11  C   UNK N   1      31.251  17.051   7.219  0.00  0.00     0.024 A 
HETATM   12  C   UNK N   1      29.958  17.147   6.727  0.00  0.00     0.013 A 
BRANCH  10  13
HETATM   13  S   UNK N   1      34.018  17.038   7.037  0.00  0.00     0.171 S 
HETATM   14  O   UNK N   1      34.795  18.311   7.407  0.00  0.00    -0.223 OA
HETATM   15  O   UNK N   1      33.972  16.252   8.357  0.00  0.00    -0.223 OA
HETATM   16  C   UNK N   1      33.015  18.091   8.148  0.00  0.00     0.167 C 
ENDBRANCH  10  13
ENDBRANCH   3   7
BRANCH   4  17
HETATM   17  C   UNK N   1      27.934  15.313   3.512  0.00  0.00    -0.020 A 
HETATM   18  C   UNK N   1      27.675  14.135   4.225  0.00  0.00     0.013 A 
HETATM   19  C   UNK N   1      27.973  12.882   3.687  0.00  0.00     0.007 A 
HETATM   20  C   UNK N   1      28.527  12.787   2.413  0.00  0.00    -0.062 A 
HETATM   21  C   UNK N   1      28.768  13.946   1.672  0.00  0.00     0.007 A 
HETATM   22  C   UNK N   1      28.855  11.454   1.845  0.00  0.00     0.048 C 
HETATM   23  C   UNK N   1      28.462  15.199   2.214  0.00  0.00     0.013 A 
ENDBRANCH   4  17
BRANCH   1  24
HETATM   24  C   UNK N   1      25.091  19.356   4.484  0.00  0.00     0.126 C 
BRANCH  24  25
HETATM   25  C   UNK N   1      25.083  20.321   3.310  0.00  0.00     0.015 C 
HETATM   26  C   UNK N   1      23.654  20.581   2.875  0.00  0.00     0.006 C 
ENDBRANCH  24  25
ENDBRANCH   1  24
TORSDOF 5
ENDMDL
MODEL 9
REMARK VINA RESULT:      -6.3     12.358     16.446
REMARK  5 active torsions:
REMARK  status: ('A' for Active; 'I' for Inactive)
REMARK    1  A    between atoms: C_2  and  C_3 
REMARK    2  A    between atoms: C_3  and  N_4 
REMARK    3  A    between atoms: C_6  and  C_17 
REMARK    4  A    between atoms: C_7  and  C_10 
REMARK    5  A    between atoms: C_20  and  S_23 
ROOT
HETATM    1  N   UNK N   1      31.500  21.916  -3.650  0.00  0.00    -0.344 N 
HETATM    2  C   UNK N   1      31.011  21.331  -4.874  0.00  0.00     0.166 A 
HETATM    3  C   UNK N   1      29.835  22.245  -5.211  0.00  0.00    -0.013 A 
HETATM    4  C   UNK N   1      29.701  23.212  -4.254  0.00  0.00     0.051 A 
HETATM    5  C   UNK N   1      30.769  22.981  -3.298  0.00  0.00     0.255 A 
HETATM    6  O   UNK N   1      30.965  23.627  -2.278  0.00  0.00    -0.267 OA
ENDROOT
BRANCH   3   7
HETATM    7  C   UNK N   1      29.045  22.027  -6.466  0.00  0.00    -0.027 A 
HETATM    8  C   UNK N   1      28.192  23.039  -6.951  0.00  0.00     0.013 A 
HETATM    9  C   UNK N   1      27.457  22.850  -8.133  0.00  0.00     0.024 A 
HETATM   10  C   UNK N   1      27.580  21.645  -8.852  0.00  0.00     0.058 A 
HETATM   11  C   UNK N   1      28.370  20.616  -8.323  0.00  0.00     0.024 A 
HETATM   12  C   UNK N   1      29.089  20.818  -7.155  0.00  0.00     0.013 A 
BRANCH  10  13
HETATM   13  S   UNK N   1      26.612  21.320 -10.349  0.00  0.00     0.171 S 
HETATM   14  O   UNK N   1      25.673  22.427 -10.852  0.00  0.00    -0.223 OA
HETATM   15  O   UNK N   1      27.548  21.075 -11.543  0.00  0.00    -0.223 OA
HETATM   16  C   UNK N   1      27.528  22.895 -10.528  0.00  0.00     0.167 C 
ENDBRANCH  10  13
ENDBRANCH   3   7
BRANCH   4  17
HETATM   17  C   UNK N   1      28.693  24.314  -4.083  0.00  0.00    -0.020 A 
HETATM   18  C   UNK N   1      27.429  24.088  -3.523  0.00  0.00     0.013 A 
HETATM   19  C   UNK N   1      26.516  25.130  -3.351  0.00  0.00     0.007 A 
HETATM   20  C   UNK N   1      26.860  26.425  -3.729  0.00  0.00    -0.062 A 
HETATM   21  C   UNK N   1      28.125  26.679  -4.264  0.00  0.00     0.007 A 
HETATM   22  C   UNK N   1      25.885  27.532  -3.556  0.00  0.00     0.048 C 
HETATM   23  C   UNK N   1      29.038  25.632  -4.429  0.00  0.00     0.013 A 
ENDBRANCH   4  17
BRANCH   1  24
HETATM   24  C   UNK N   1      32.592  21.359  -2.884  0.00  0.00     0.126 C 
BRANCH  24  25
HETATM   25  C   UNK N   1      33.455  20.439  -3.732  0.00  0.00     0.015 C 
HETATM   26  C   UNK N   1      34.841  21.037  -3.881  0.00  0.00     0.006 C 
ENDBRANCH  24  25
ENDBRANCH   1  24
TORSDOF 5
ENDMDL
