REMARK  7 active torsions:
REMARK  status: ('A' for Active; 'I' for Inactive)
REMARK    1  A    between atoms: C_16  and  O_37 
REMARK    2  A    between atoms: C_19  and  C_20 
REMARK    3  A    between atoms: C_19  and  O_26 
REMARK    4  A    between atoms: C_20  and  O_22 
REMARK    5  A    between atoms: O_22  and  C_23 
REMARK    6  A    between atoms: O_26  and  C_27 
REMARK    7  A    between atoms: C_27  and  C_29 
ROOT
HETATM    1  C   UNK N   1      -0.166  -4.755  -1.457  0.00  0.00     0.302 C 
HETATM    2  C   UNK N   1      -0.492  -5.378  -0.164  0.00  0.00     0.085 C 
HETATM    3  N   UNK N   1      -0.752  -5.890   0.844  0.00  0.00    -0.195 NA
ENDROOT
BRANCH   1   4
HETATM    4  O   UNK N   1       1.086  -4.199  -1.367  0.00  0.00    -0.305 OA
BRANCH   4   5
HETATM    5  C   UNK N   1       1.252  -2.895  -1.050  0.00  0.00     0.296 C 
HETATM    6  O   UNK N   1       0.569  -2.053  -1.617  0.00  0.00    -0.262 OA
BRANCH   5   7
HETATM    7  C   UNK N   1       1.978  -2.561   0.255  0.00  0.00     0.169 C 
HETATM    8  C   UNK N   1       3.512  -2.343   0.223  0.00  0.00     0.004 C 
HETATM    9  C   UNK N   1       4.349  -3.375  -0.568  0.00  0.00     0.048 C 
HETATM   10  C   UNK N   1       3.747  -0.999  -0.416  0.00  0.00     0.005 C 
HETATM   11  C   UNK N   1       3.904  -2.268   1.726  0.00  0.00     0.019 C 
HETATM   12  C   UNK N   1       5.786  -2.947  -0.944  0.00  0.00     0.160 C 
HETATM   13  C   UNK N   1       6.273  -1.766  -0.086  0.00  0.00     0.147 C 
HETATM   14  C   UNK N   1       7.764  -1.365  -0.250  0.00  0.00     0.039 C 
HETATM   15  C   UNK N   1       5.269  -0.568  -0.355  0.00  0.00     0.037 C 
HETATM   16  F   UNK N   1       6.237  -2.143   1.244  0.00  0.00    -0.238 F 
HETATM   17  C   UNK N   1       8.318  -1.348  -1.656  0.00  0.00    -0.006 C 
HETATM   18  C   UNK N   1       7.990  -0.008   0.415  0.00  0.00    -0.027 C 
HETATM   19  C   UNK N   1       8.646  -2.395   0.491  0.00  0.00     0.028 C 
HETATM   20  C   UNK N   1       9.537  -0.799  -1.846  0.00  0.00     0.052 C 
HETATM   21  C   UNK N   1      10.105   0.065  -0.774  0.00  0.00     0.172 C 
HETATM   22  C   UNK N   1       9.169   0.615   0.234  0.00  0.00     0.061 C 
HETATM   23  O   UNK N   1      11.264   0.439  -0.816  0.00  0.00    -0.289 OA
HETATM   24  C   UNK N   1       6.889   0.611   1.255  0.00  0.00     0.201 C 
HETATM   25  C   UNK N   1       5.554   0.681   0.497  0.00  0.00     0.050 C 
HETATM   26  F   UNK N   1       7.226   1.869   1.723  0.00  0.00    -0.245 F 
HETATM   27  C   UNK N   1       2.586  -0.114   0.073  0.00  0.00     0.013 C 
HETATM   28  C   UNK N   1       1.615  -1.121   0.746  0.00  0.00     0.028 C 
HETATM   29  C   UNK N   1       0.152  -0.706   0.820  0.00  0.00     0.014 C 
BRANCH  12  30
HETATM   30  O   UNK N   1       6.630  -4.053  -0.868  0.00  0.00    -0.392 OA
HETATM   31  H   UNK N   1       6.258  -4.947  -0.815  0.00  0.00     0.210 HD
ENDBRANCH  12  30
BRANCH   7  32
HETATM   32  O   UNK N   1       1.671  -3.540   1.221  0.00  0.00    -0.298 OA
BRANCH  32  33
HETATM   33  C   UNK N   1       2.375  -4.717   1.401  0.00  0.00     0.265 C 
HETATM   34  O   UNK N   1       2.733  -5.006   2.532  0.00  0.00    -0.265 OA
BRANCH  33  35
HETATM   35  C   UNK N   1       2.845  -5.561   0.202  0.00  0.00     0.102 A 
HETATM   36  C   UNK N   1       4.047  -6.526   0.294  0.00  0.00    -0.027 A 
HETATM   37  C   UNK N   1       2.619  -7.073   0.350  0.00  0.00    -0.027 A 
HETATM   38  C   UNK N   1       4.895  -6.481   1.557  0.00  0.00     0.016 C 
HETATM   39  C   UNK N   1       4.786  -6.666  -1.032  0.00  0.00     0.016 C 
HETATM   40  C   UNK N   1       2.057  -7.697  -0.916  0.00  0.00     0.016 C 
HETATM   41  C   UNK N   1       2.137  -7.616   1.689  0.00  0.00     0.016 C 
ENDBRANCH  33  35
ENDBRANCH  32  33
ENDBRANCH   7  32
ENDBRANCH   5   7
ENDBRANCH   4   5
ENDBRANCH   1   4
TORSDOF 7
