MODEL 1
REMARK VINA RESULT:      -3.7      0.000      0.000
REMARK  2 active torsions:
REMARK  status: ('A' for Active; 'I' for Inactive)
REMARK    1  A    between atoms: C_1  and  N_9 
REMARK    2  A    between atoms: C_6  and  S_8 
ROOT
HETATM    1  C   UNK N   1      44.454  22.415   3.616  0.00  0.00     0.159 A 
HETATM    2  N   UNK N   1      43.906  23.634   3.366  0.00  0.00    -0.279 N 
ATOM      3  HN  UNK N   1      44.370  24.515   3.589  1.00  0.00     0.189 HD
HETATM    4  N   UNK N   1      42.684  23.558   2.794  0.00  0.00    -0.286 N 
ATOM      5  HN  UNK N   1      42.132  24.377   2.540  1.00  0.00     0.188 HD
HETATM    6  C   UNK N   1      42.263  22.279   2.589  0.00  0.00     0.127 A 
HETATM    7  S   UNK N   1      43.420  21.238   3.125  0.00  0.00    -0.027 SA
ENDROOT
BRANCH   1   8
HETATM    8  N   UNK N   1      45.716  22.214   4.206  0.00  0.00    -0.379 N 
HETATM    9  H   UNK N   1      45.801  21.647   5.006  0.00  0.00     0.158 HD
HETATM   10  H   UNK N   1      46.514  22.640   3.818  0.00  0.00     0.158 HD
ENDBRANCH   1   8
BRANCH   6  11
HETATM   11  S   UNK N   1      40.703  21.815   1.856  0.00  0.00    -0.117 SA
HETATM   12  H   UNK N   1      39.706  21.317   2.636  0.00  0.00     0.109 HD
ENDBRANCH   6  11
TORSDOF 2
ENDMDL
MODEL 2
REMARK VINA RESULT:      -3.7     22.240     23.062
REMARK  2 active torsions:
REMARK  status: ('A' for Active; 'I' for Inactive)
REMARK    1  A    between atoms: C_1  and  N_9 
REMARK    2  A    between atoms: C_6  and  S_8 
ROOT
HETATM    1  C   UNK N   1      23.374  12.070  11.501  0.00  0.00     0.159 A 
HETATM    2  N   UNK N   1      24.688  12.337  11.720  0.00  0.00    -0.279 N 
ATOM      3  HN  UNK N   1      25.156  12.168  12.611  1.00  0.00     0.189 HD
HETATM    4  N   UNK N   1      25.312  12.850  10.636  0.00  0.00    -0.286 N 
ATOM      5  HN  UNK N   1      26.299  13.107  10.627  1.00  0.00     0.188 HD
HETATM    6  C   UNK N   1      24.492  12.990   9.558  0.00  0.00     0.127 A 
HETATM    7  S   UNK N   1      22.982  12.471   9.957  0.00  0.00    -0.027 SA
ENDROOT
BRANCH   1   8
HETATM    8  N   UNK N   1      22.498  11.532  12.463  0.00  0.00    -0.379 N 
HETATM    9  H   UNK N   1      21.539  11.441  12.260  0.00  0.00     0.158 HD
HETATM   10  H   UNK N   1      22.845  11.246  13.339  0.00  0.00     0.158 HD
ENDBRANCH   1   8
BRANCH   6  11
HETATM   11  S   UNK N   1      24.985  13.634   7.968  0.00  0.00    -0.117 SA
HETATM   12  H   UNK N   1      25.003  14.977   7.753  0.00  0.00     0.109 HD
ENDBRANCH   6  11
TORSDOF 2
ENDMDL
MODEL 3
REMARK VINA RESULT:      -3.6      1.638      3.109
REMARK  2 active torsions:
REMARK  status: ('A' for Active; 'I' for Inactive)
REMARK    1  A    between atoms: C_1  and  N_9 
REMARK    2  A    between atoms: C_6  and  S_8 
ROOT
HETATM    1  C   UNK N   1      44.156  22.553   3.897  0.00  0.00     0.159 A 
HETATM    2  N   UNK N   1      45.470  22.250   4.070  0.00  0.00    -0.279 N 
ATOM      3  HN  UNK N   1      46.163  22.922   4.398  1.00  0.00     0.189 HD
HETATM    4  N   UNK N   1      45.762  20.967   3.762  0.00  0.00    -0.286 N 
ATOM      5  HN  UNK N   1      46.700  20.573   3.834  1.00  0.00     0.188 HD
HETATM    6  C   UNK N   1      44.680  20.252   3.344  0.00  0.00     0.127 A 
HETATM    7  S   UNK N   1      43.352  21.225   3.360  0.00  0.00    -0.027 SA
ENDROOT
BRANCH   1   8
HETATM    8  N   UNK N   1      43.590  23.818   4.146  0.00  0.00    -0.379 N 
HETATM    9  H   UNK N   1      44.066  24.634   3.870  0.00  0.00     0.158 HD
HETATM   10  H   UNK N   1      42.717  23.886   4.596  0.00  0.00     0.158 HD
ENDBRANCH   1   8
BRANCH   6  11
HETATM   11  S   UNK N   1      44.707  18.535   2.860  0.00  0.00    -0.117 SA
HETATM   12  H   UNK N   1      44.636  18.198   1.543  0.00  0.00     0.109 HD
ENDBRANCH   6  11
TORSDOF 2
ENDMDL
MODEL 4
REMARK VINA RESULT:      -3.3     12.216     12.461
REMARK  2 active torsions:
REMARK  status: ('A' for Active; 'I' for Inactive)
REMARK    1  A    between atoms: C_1  and  N_9 
REMARK    2  A    between atoms: C_6  and  S_8 
ROOT
HETATM    1  C   UNK N   1      35.740  15.778  11.073  0.00  0.00     0.159 A 
HETATM    2  N   UNK N   1      35.074  16.962  11.026  0.00  0.00    -0.279 N 
ATOM      3  HN  UNK N   1      34.991  17.592  11.824  1.00  0.00     0.189 HD
HETATM    4  N   UNK N   1      34.533  17.217   9.814  0.00  0.00    -0.286 N 
ATOM      5  HN  UNK N   1      34.000  18.061   9.605  1.00  0.00     0.188 HD
HETATM    6  C   UNK N   1      34.770  16.236   8.900  0.00  0.00     0.127 A 
HETATM    7  S   UNK N   1      35.659  15.044   9.606  0.00  0.00    -0.027 SA
ENDROOT
BRANCH   1   8
HETATM    8  N   UNK N   1      36.393  15.275  12.214  0.00  0.00    -0.379 N 
HETATM    9  H   UNK N   1      37.277  14.849  12.129  0.00  0.00     0.158 HD
HETATM   10  H   UNK N   1      35.967  15.349  13.098  0.00  0.00     0.158 HD
ENDBRANCH   1   8
BRANCH   6  11
HETATM   11  S   UNK N   1      34.204  16.249   7.207  0.00  0.00    -0.117 SA
HETATM   12  H   UNK N   1      33.810  15.090   6.613  0.00  0.00     0.109 HD
ENDBRANCH   6  11
TORSDOF 2
ENDMDL
MODEL 5
REMARK VINA RESULT:      -3.3     22.665     23.653
REMARK  2 active torsions:
REMARK  status: ('A' for Active; 'I' for Inactive)
REMARK    1  A    between atoms: C_1  and  N_9 
REMARK    2  A    between atoms: C_6  and  S_8 
ROOT
HETATM    1  C   UNK N   1      20.450  19.975   2.740  0.00  0.00     0.159 A 
HETATM    2  N   UNK N   1      19.380  19.482   2.063  0.00  0.00    -0.279 N 
ATOM      3  HN  UNK N   1      18.877  20.007   1.347  1.00  0.00     0.189 HD
HETATM    4  N   UNK N   1      19.050  18.226   2.436  0.00  0.00    -0.286 N 
ATOM      5  HN  UNK N   1      18.273  17.706   2.029  1.00  0.00     0.188 HD
HETATM    6  C   UNK N   1      19.860  17.722   3.408  0.00  0.00     0.127 A 
HETATM    7  S   UNK N   1      20.992  18.849   3.805  0.00  0.00    -0.027 SA
ENDROOT
BRANCH   1   8
HETATM    8  N   UNK N   1      20.997  21.258   2.543  0.00  0.00    -0.379 N 
HETATM    9  H   UNK N   1      21.172  21.842   3.316  0.00  0.00     0.158 HD
HETATM   10  H   UNK N   1      21.203  21.570   1.633  0.00  0.00     0.158 HD
ENDBRANCH   1   8
BRANCH   6  11
HETATM   11  S   UNK N   1      19.710  16.097   4.132  0.00  0.00    -0.117 SA
HETATM   12  H   UNK N   1      20.827  15.399   4.474  0.00  0.00     0.109 HD
ENDBRANCH   6  11
TORSDOF 2
ENDMDL
MODEL 6
REMARK VINA RESULT:      -3.3     13.235     13.653
REMARK  2 active torsions:
REMARK  status: ('A' for Active; 'I' for Inactive)
REMARK    1  A    between atoms: C_1  and  N_9 
REMARK    2  A    between atoms: C_6  and  S_8 
ROOT
HETATM    1  C   UNK N   1      34.595  16.722   9.815  0.00  0.00     0.159 A 
HETATM    2  N   UNK N   1      33.454  15.990   9.919  0.00  0.00    -0.279 N 
ATOM      3  HN  UNK N   1      32.602  16.199   9.398  1.00  0.00     0.189 HD
HETATM    4  N   UNK N   1      33.564  14.957  10.784  0.00  0.00    -0.286 N 
ATOM      5  HN  UNK N   1      32.803  14.307  10.981  1.00  0.00     0.188 HD
HETATM    6  C   UNK N   1      34.792  14.869  11.366  0.00  0.00     0.127 A 
HETATM    7  S   UNK N   1      35.746  16.086  10.799  0.00  0.00    -0.027 SA
ENDROOT
BRANCH   1   8
HETATM    8  N   UNK N   1      34.747  17.849   8.986  0.00  0.00    -0.379 N 
HETATM    9  H   UNK N   1      34.887  18.738   9.383  0.00  0.00     0.158 HD
HETATM   10  H   UNK N   1      34.713  17.748   8.007  0.00  0.00     0.158 HD
ENDBRANCH   1   8
BRANCH   6  11
HETATM   11  S   UNK N   1      35.282  13.629  12.553  0.00  0.00    -0.117 SA
HETATM   12  H   UNK N   1      34.336  12.958  13.264  0.00  0.00     0.109 HD
ENDBRANCH   6  11
TORSDOF 2
ENDMDL
MODEL 7
REMARK VINA RESULT:      -3.2     14.308     15.283
REMARK  2 active torsions:
REMARK  status: ('A' for Active; 'I' for Inactive)
REMARK    1  A    between atoms: C_1  and  N_9 
REMARK    2  A    between atoms: C_6  and  S_8 
ROOT
HETATM    1  C   UNK N   1      28.976  18.163   8.824  0.00  0.00     0.159 A 
HETATM    2  N   UNK N   1      30.029  18.347   9.663  0.00  0.00    -0.279 N 
ATOM      3  HN  UNK N   1      29.941  18.754  10.595  1.00  0.00     0.189 HD
HETATM    4  N   UNK N   1      31.204  17.936   9.138  0.00  0.00    -0.286 N 
ATOM      5  HN  UNK N   1      32.094  18.001   9.632  1.00  0.00     0.188 HD
HETATM    6  C   UNK N   1      31.083  17.426   7.880  0.00  0.00     0.127 A 
HETATM    7  S   UNK N   1      29.503  17.488   7.423  0.00  0.00    -0.027 SA
ENDROOT
BRANCH   1   8
HETATM    8  N   UNK N   1      27.645  18.506   9.128  0.00  0.00    -0.379 N 
HETATM    9  H   UNK N   1      26.980  17.799   9.296  0.00  0.00     0.158 HD
HETATM   10  H   UNK N   1      27.378  19.452   9.171  0.00  0.00     0.158 HD
ENDBRANCH   1   8
BRANCH   6  11
HETATM   11  S   UNK N   1      32.429  16.793   6.893  0.00  0.00    -0.117 SA
HETATM   12  H   UNK N   1      33.668  17.344   6.998  0.00  0.00     0.109 HD
ENDBRANCH   6  11
TORSDOF 2
ENDMDL
MODEL 8
REMARK VINA RESULT:      -3.2     16.072     16.237
REMARK  2 active torsions:
REMARK  status: ('A' for Active; 'I' for Inactive)
REMARK    1  A    between atoms: C_1  and  N_9 
REMARK    2  A    between atoms: C_6  and  S_8 
ROOT
HETATM    1  C   UNK N   1      28.951  17.759   9.165  0.00  0.00     0.159 A 
HETATM    2  N   UNK N   1      27.822  18.514   9.135  0.00  0.00    -0.279 N 
ATOM      3  HN  UNK N   1      27.288  18.761   9.969  1.00  0.00     0.189 HD
HETATM    4  N   UNK N   1      27.478  18.904   7.888  0.00  0.00    -0.286 N 
ATOM      5  HN  UNK N   1      26.658  19.476   7.685  1.00  0.00     0.188 HD
HETATM    6  C   UNK N   1      28.336  18.459   6.928  0.00  0.00     0.127 A 
HETATM    7  S   UNK N   1      29.528  17.574   7.639  0.00  0.00    -0.027 SA
ENDROOT
BRANCH   1   8
HETATM    8  N   UNK N   1      29.524  17.226  10.336  0.00  0.00    -0.379 N 
HETATM    9  H   UNK N   1      30.481  16.995  10.355  0.00  0.00     0.158 HD
HETATM   10  H   UNK N   1      28.968  17.085  11.135  0.00  0.00     0.158 HD
ENDBRANCH   1   8
BRANCH   6  11
HETATM   11  S   UNK N   1      28.183  18.787   5.180  0.00  0.00    -0.117 SA
HETATM   12  H   UNK N   1      27.030  19.312   4.684  0.00  0.00     0.109 HD
ENDBRANCH   6  11
TORSDOF 2
ENDMDL
MODEL 9
REMARK VINA RESULT:      -3.2     21.807     22.430
REMARK  2 active torsions:
REMARK  status: ('A' for Active; 'I' for Inactive)
REMARK    1  A    between atoms: C_1  and  N_9 
REMARK    2  A    between atoms: C_6  and  S_8 
ROOT
HETATM    1  C   UNK N   1      20.873  20.397   1.734  0.00  0.00     0.159 A 
HETATM    2  N   UNK N   1      22.165  20.547   2.128  0.00  0.00    -0.279 N 
ATOM      3  HN  UNK N   1      22.849  21.104   1.613  1.00  0.00     0.189 HD
HETATM    4  N   UNK N   1      22.452  19.885   3.271  0.00  0.00    -0.286 N 
ATOM      5  HN  UNK N   1      23.374  19.891   3.706  1.00  0.00     0.188 HD
HETATM    6  C   UNK N   1      21.387  19.209   3.783  0.00  0.00     0.127 A 
HETATM    7  S   UNK N   1      20.081  19.438   2.807  0.00  0.00    -0.027 SA
ENDROOT
BRANCH   1   8
HETATM    8  N   UNK N   1      20.317  20.981   0.580  0.00  0.00    -0.379 N 
HETATM    9  H   UNK N   1      19.401  21.339   0.602  0.00  0.00     0.158 HD
HETATM   10  H   UNK N   1      20.846  21.032  -0.248  0.00  0.00     0.158 HD
ENDBRANCH   1   8
BRANCH   6  11
HETATM   11  S   UNK N   1      21.411  18.232   5.277  0.00  0.00    -0.117 SA
HETATM   12  H   UNK N   1      21.526  18.842   6.488  0.00  0.00     0.109 HD
ENDBRANCH   6  11
TORSDOF 2
ENDMDL
