MODEL 1
REMARK VINA RESULT:      -8.6      0.000      0.000
REMARK  7 active torsions:
REMARK  status: ('A' for Active; 'I' for Inactive)
REMARK    1  A    between atoms: N_6  and  C_9 
REMARK    2  A    between atoms: C_12  and  C_15 
REMARK       I    between atoms: C_15  and  N_17 
REMARK    3  A    between atoms: N_17  and  C_18 
REMARK    4  A    between atoms: C_19  and  N_25 
REMARK    5  A    between atoms: C_23  and  O_24 
REMARK       I    between atoms: N_25  and  C_26 
REMARK    6  A    between atoms: C_26  and  C_28 
REMARK    7  A    between atoms: C_31  and  O_34 
ROOT
HETATM    1  C   UNK N   1      23.149  19.251   3.708  0.00  0.00     0.095 A 
HETATM    2  C   UNK N   1      21.943  18.641   4.162  0.00  0.00     0.064 A 
HETATM    3  C   UNK N   1      20.716  19.122   3.702  0.00  0.00     0.032 A 
HETATM    4  C   UNK N   1      20.659  20.169   2.784  0.00  0.00     0.005 A 
HETATM    5  C   UNK N   1      21.831  20.773   2.339  0.00  0.00     0.039 A 
HETATM    6  C   UNK N   1      23.075  20.334   2.797  0.00  0.00     0.094 A 
ENDROOT
BRANCH   1   7
HETATM    7  N   UNK N   1      24.369  18.733   4.220  0.00  0.00    -0.319 N 
HETATM    8  C   UNK N   1      25.396  19.331   4.883  0.00  0.00     0.256 C 
HETATM    9  O   UNK N   1      25.347  20.495   5.230  0.00  0.00    -0.267 OA
HETATM   10  H   UNK N   1      24.493  17.768   4.068  0.00  0.00     0.169 HD
BRANCH   8  11
HETATM   11  C   UNK N   1      26.655  18.570   4.983  0.00  0.00     0.032 A 
HETATM   12  C   UNK N   1      27.092  17.847   3.867  0.00  0.00     0.019 A 
HETATM   13  C   UNK N   1      28.334  17.228   3.858  0.00  0.00     0.030 A 
HETATM   14  C   UNK N   1      29.154  17.286   4.988  0.00  0.00     0.030 A 
HETATM   15  C   UNK N   1      28.709  17.985   6.127  0.00  0.00     0.030 A 
HETATM   16  C   UNK N   1      27.477  18.650   6.115  0.00  0.00     0.019 A 
BRANCH  14  17
HETATM   17  N   UNK N   1      30.403  16.604   4.991  0.00  0.00    -0.379 N 
HETATM   18  C   UNK N   1      31.511  17.156   4.214  0.00  0.00     0.125 C 
HETATM   19  C   UNK N   1      32.786  16.311   4.165  0.00  0.00     0.050 C 
HETATM   20  C   UNK N   1      33.391  16.086   5.543  0.00  0.00     0.273 C 
HETATM   21  N   UNK N   1      32.797  14.899   6.139  0.00  0.00     0.085 N 
HETATM   22  C   UNK N   1      33.661  14.460   7.217  0.00  0.00     0.309 C 
HETATM   23  C   UNK N   1      31.529  15.282   6.733  0.00  0.00     0.291 C 
HETATM   24  C   UNK N   1      30.474  15.315   5.650  0.00  0.00     0.153 C 
ENDBRANCH  14  17
ENDBRANCH   8  11
ENDBRANCH   1   7
BRANCH   2  25
HETATM   25  N   UNK N   1      21.927  17.558   5.106  0.00  0.00    -0.321 N 
HETATM   26  C   UNK N   1      21.462  17.613   6.389  0.00  0.00     0.256 C 
HETATM   27  O   UNK N   1      21.160  18.684   6.894  0.00  0.00    -0.267 OA
HETATM   28  H   UNK N   1      22.287  16.694   4.799  0.00  0.00     0.169 HD
BRANCH  26  29
HETATM   29  C   UNK N   1      21.386  16.391   7.222  0.00  0.00     0.032 A 
HETATM   30  C   UNK N   1      22.201  15.289   6.915  0.00  0.00     0.020 A 
HETATM   31  C   UNK N   1      22.104  14.107   7.648  0.00  0.00     0.038 A 
HETATM   32  C   UNK N   1      21.179  13.996   8.687  0.00  0.00     0.068 A 
HETATM   33  C   UNK N   1      20.374  15.104   9.015  0.00  0.00     0.038 A 
HETATM   34  C   UNK N   1      20.485  16.298   8.292  0.00  0.00     0.020 A 
BRANCH  32  35
HETATM   35  O   UNK N   1      21.064  12.814   9.337  0.00  0.00    -0.356 OA
HETATM   36  C   UNK N   1      21.965  12.383  10.285  0.00  0.00     0.210 C 
ENDBRANCH  32  35
ENDBRANCH  26  29
ENDBRANCH   2  25
BRANCH   6  37
HETATM   37  O   UNK N   1      24.172  20.986   2.377  0.00  0.00    -0.358 OA
HETATM   38  H   UNK N   1      25.014  20.576   2.389  0.00  0.00     0.217 HD
ENDBRANCH   6  37
TORSDOF 7
ENDMDL
MODEL 2
REMARK VINA RESULT:      -8.6      1.502      2.187
REMARK  7 active torsions:
REMARK  status: ('A' for Active; 'I' for Inactive)
REMARK    1  A    between atoms: N_6  and  C_9 
REMARK    2  A    between atoms: C_12  and  C_15 
REMARK       I    between atoms: C_15  and  N_17 
REMARK    3  A    between atoms: N_17  and  C_18 
REMARK    4  A    between atoms: C_19  and  N_25 
REMARK    5  A    between atoms: C_23  and  O_24 
REMARK       I    between atoms: N_25  and  C_26 
REMARK    6  A    between atoms: C_26  and  C_28 
REMARK    7  A    between atoms: C_31  and  O_34 
ROOT
HETATM    1  C   UNK N   1      22.133  19.150   3.709  0.00  0.00     0.095 A 
HETATM    2  C   UNK N   1      21.315  18.013   3.978  0.00  0.00     0.064 A 
HETATM    3  C   UNK N   1      20.042  17.934   3.410  0.00  0.00     0.032 A 
HETATM    4  C   UNK N   1      19.576  18.936   2.561  0.00  0.00     0.005 A 
HETATM    5  C   UNK N   1      20.367  20.050   2.295  0.00  0.00     0.039 A 
HETATM    6  C   UNK N   1      21.634  20.176   2.866  0.00  0.00     0.094 A 
ENDROOT
BRANCH   1   7
HETATM    7  N   UNK N   1      23.411  19.187   4.326  0.00  0.00    -0.319 N 
HETATM    8  C   UNK N   1      24.643  19.495   3.835  0.00  0.00     0.256 C 
HETATM    9  O   UNK N   1      24.800  19.903   2.700  0.00  0.00    -0.267 OA
HETATM   10  H   UNK N   1      23.405  18.948   5.281  0.00  0.00     0.169 HD
BRANCH   8  11
HETATM   11  C   UNK N   1      25.803  19.118   4.664  0.00  0.00     0.032 A 
HETATM   12  C   UNK N   1      26.303  17.814   4.564  0.00  0.00     0.019 A 
HETATM   13  C   UNK N   1      27.472  17.446   5.213  0.00  0.00     0.030 A 
HETATM   14  C   UNK N   1      28.150  18.369   6.015  0.00  0.00     0.030 A 
HETATM   15  C   UNK N   1      27.636  19.674   6.147  0.00  0.00     0.030 A 
HETATM   16  C   UNK N   1      26.483  20.057   5.450  0.00  0.00     0.019 A 
BRANCH  14  17
HETATM   17  N   UNK N   1      29.318  17.968   6.721  0.00  0.00    -0.379 N 
HETATM   18  C   UNK N   1      29.472  18.372   8.118  0.00  0.00     0.125 C 
HETATM   19  C   UNK N   1      30.803  18.011   8.781  0.00  0.00     0.050 C 
HETATM   20  C   UNK N   1      31.051  16.510   8.811  0.00  0.00     0.273 C 
HETATM   21  N   UNK N   1      31.718  16.109   7.582  0.00  0.00     0.085 N 
HETATM   22  C   UNK N   1      32.322  14.810   7.803  0.00  0.00     0.309 C 
HETATM   23  C   UNK N   1      30.704  15.943   6.556  0.00  0.00     0.291 C 
HETATM   24  C   UNK N   1      30.369  17.300   5.979  0.00  0.00     0.153 C 
ENDBRANCH  14  17
ENDBRANCH   8  11
ENDBRANCH   1   7
BRANCH   2  25
HETATM   25  N   UNK N   1      21.731  16.944   4.842  0.00  0.00    -0.321 N 
HETATM   26  C   UNK N   1      21.714  16.957   6.208  0.00  0.00     0.256 C 
HETATM   27  O   UNK N   1      21.483  17.993   6.815  0.00  0.00    -0.267 OA
HETATM   28  H   UNK N   1      22.059  16.123   4.409  0.00  0.00     0.169 HD
BRANCH  26  29
HETATM   29  C   UNK N   1      22.053  15.742   6.984  0.00  0.00     0.032 A 
HETATM   30  C   UNK N   1      21.213  15.331   8.031  0.00  0.00     0.020 A 
HETATM   31  C   UNK N   1      21.542  14.225   8.815  0.00  0.00     0.038 A 
HETATM   32  C   UNK N   1      22.726  13.523   8.580  0.00  0.00     0.068 A 
HETATM   33  C   UNK N   1      23.562  13.917   7.518  0.00  0.00     0.038 A 
HETATM   34  C   UNK N   1      23.221  15.015   6.718  0.00  0.00     0.020 A 
BRANCH  32  35
HETATM   35  O   UNK N   1      23.049  12.494   9.399  0.00  0.00    -0.356 OA
HETATM   36  C   UNK N   1      24.214  12.449  10.131  0.00  0.00     0.210 C 
ENDBRANCH  32  35
ENDBRANCH  26  29
ENDBRANCH   2  25
BRANCH   6  37
HETATM   37  O   UNK N   1      22.334  21.296   2.621  0.00  0.00    -0.358 OA
HETATM   38  H   UNK N   1      22.837  21.392   1.837  0.00  0.00     0.217 HD
ENDBRANCH   6  37
TORSDOF 7
ENDMDL
MODEL 3
REMARK VINA RESULT:      -8.5      1.930      2.350
REMARK  7 active torsions:
REMARK  status: ('A' for Active; 'I' for Inactive)
REMARK    1  A    between atoms: N_6  and  C_9 
REMARK    2  A    between atoms: C_12  and  C_15 
REMARK       I    between atoms: C_15  and  N_17 
REMARK    3  A    between atoms: N_17  and  C_18 
REMARK    4  A    between atoms: C_19  and  N_25 
REMARK    5  A    between atoms: C_23  and  O_24 
REMARK       I    between atoms: N_25  and  C_26 
REMARK    6  A    between atoms: C_26  and  C_28 
REMARK    7  A    between atoms: C_31  and  O_34 
ROOT
HETATM    1  C   UNK N   1      23.863  19.218   3.895  0.00  0.00     0.095 A 
HETATM    2  C   UNK N   1      22.839  18.523   4.604  0.00  0.00     0.064 A 
HETATM    3  C   UNK N   1      21.501  18.833   4.357  0.00  0.00     0.032 A 
HETATM    4  C   UNK N   1      21.155  19.791   3.406  0.00  0.00     0.005 A 
HETATM    5  C   UNK N   1      22.147  20.478   2.712  0.00  0.00     0.039 A 
HETATM    6  C   UNK N   1      23.496  20.212   2.952  0.00  0.00     0.094 A 
ENDROOT
BRANCH   1   7
HETATM    7  N   UNK N   1      25.207  18.875   4.198  0.00  0.00    -0.319 N 
HETATM    8  C   UNK N   1      25.995  17.849   3.774  0.00  0.00     0.256 C 
HETATM    9  O   UNK N   1      25.625  17.063   2.923  0.00  0.00    -0.267 OA
HETATM   10  H   UNK N   1      25.648  19.490   4.827  0.00  0.00     0.169 HD
BRANCH   8  11
HETATM   11  C   UNK N   1      27.234  17.603   4.535  0.00  0.00     0.032 A 
HETATM   12  C   UNK N   1      28.404  17.298   3.830  0.00  0.00     0.019 A 
HETATM   13  C   UNK N   1      29.624  17.194   4.481  0.00  0.00     0.030 A 
HETATM   14  C   UNK N   1      29.694  17.354   5.868  0.00  0.00     0.030 A 
HETATM   15  C   UNK N   1      28.516  17.629   6.590  0.00  0.00     0.030 A 
HETATM   16  C   UNK N   1      27.295  17.783   5.923  0.00  0.00     0.019 A 
BRANCH  14  17
HETATM   17  N   UNK N   1      30.940  17.192   6.536  0.00  0.00    -0.379 N 
HETATM   18  C   UNK N   1      31.031  17.541   7.953  0.00  0.00     0.125 C 
HETATM   19  C   UNK N   1      32.425  17.456   8.579  0.00  0.00     0.050 C 
HETATM   20  C   UNK N   1      33.009  16.052   8.517  0.00  0.00     0.273 C 
HETATM   21  N   UNK N   1      33.719  15.883   7.259  0.00  0.00     0.085 N 
HETATM   22  C   UNK N   1      34.607  14.746   7.395  0.00  0.00     0.309 C 
HETATM   23  C   UNK N   1      32.745  15.548   6.236  0.00  0.00     0.291 C 
HETATM   24  C   UNK N   1      32.096  16.823   5.745  0.00  0.00     0.153 C 
ENDBRANCH  14  17
ENDBRANCH   8  11
ENDBRANCH   1   7
BRANCH   2  25
HETATM   25  N   UNK N   1      23.123  17.524   5.596  0.00  0.00    -0.321 N 
HETATM   26  C   UNK N   1      23.167  16.174   5.393  0.00  0.00     0.256 C 
HETATM   27  O   UNK N   1      22.790  15.693   4.334  0.00  0.00    -0.267 OA
HETATM   28  H   UNK N   1      23.304  17.843   6.510  0.00  0.00     0.169 HD
BRANCH  26  29
HETATM   29  C   UNK N   1      23.595  15.256   6.474  0.00  0.00     0.032 A 
HETATM   30  C   UNK N   1      24.963  15.025   6.687  0.00  0.00     0.020 A 
HETATM   31  C   UNK N   1      25.389  14.119   7.658  0.00  0.00     0.038 A 
HETATM   32  C   UNK N   1      24.457  13.413   8.420  0.00  0.00     0.068 A 
HETATM   33  C   UNK N   1      23.083  13.656   8.228  0.00  0.00     0.038 A 
HETATM   34  C   UNK N   1      22.656  14.580   7.266  0.00  0.00     0.020 A 
BRANCH  32  35
HETATM   35  O   UNK N   1      24.901  12.494   9.309  0.00  0.00    -0.356 OA
HETATM   36  C   UNK N   1      24.342  12.318  10.555  0.00  0.00     0.210 C 
ENDBRANCH  32  35
ENDBRANCH  26  29
ENDBRANCH   2  25
BRANCH   6  37
HETATM   37  O   UNK N   1      24.414  20.940   2.296  0.00  0.00    -0.358 OA
HETATM   38  H   UNK N   1      25.326  20.727   2.341  0.00  0.00     0.217 HD
ENDBRANCH   6  37
TORSDOF 7
ENDMDL
MODEL 4
REMARK VINA RESULT:      -8.2      2.138      3.110
REMARK  7 active torsions:
REMARK  status: ('A' for Active; 'I' for Inactive)
REMARK    1  A    between atoms: N_6  and  C_9 
REMARK    2  A    between atoms: C_12  and  C_15 
REMARK       I    between atoms: C_15  and  N_17 
REMARK    3  A    between atoms: N_17  and  C_18 
REMARK    4  A    between atoms: C_19  and  N_25 
REMARK    5  A    between atoms: C_23  and  O_24 
REMARK       I    between atoms: N_25  and  C_26 
REMARK    6  A    between atoms: C_26  and  C_28 
REMARK    7  A    between atoms: C_31  and  O_34 
ROOT
HETATM    1  C   UNK N   1      25.435  19.004   4.709  0.00  0.00     0.095 A 
HETATM    2  C   UNK N   1      24.165  18.374   4.862  0.00  0.00     0.064 A 
HETATM    3  C   UNK N   1      23.082  18.823   4.104  0.00  0.00     0.032 A 
HETATM    4  C   UNK N   1      23.235  19.856   3.181  0.00  0.00     0.005 A 
HETATM    5  C   UNK N   1      24.471  20.479   3.029  0.00  0.00     0.039 A 
HETATM    6  C   UNK N   1      25.570  20.074   3.788  0.00  0.00     0.094 A 
ENDROOT
BRANCH   1   7
HETATM    7  N   UNK N   1      26.498  18.520   5.517  0.00  0.00    -0.319 N 
HETATM    8  C   UNK N   1      27.306  19.145   6.417  0.00  0.00     0.256 C 
HETATM    9  O   UNK N   1      27.139  20.306   6.734  0.00  0.00    -0.267 OA
HETATM   10  H   UNK N   1      26.684  17.560   5.407  0.00  0.00     0.169 HD
BRANCH   8  11
HETATM   11  C   UNK N   1      28.520  18.420   6.837  0.00  0.00     0.032 A 
HETATM   12  C   UNK N   1      29.235  17.697   5.876  0.00  0.00     0.019 A 
HETATM   13  C   UNK N   1      30.455  17.112   6.183  0.00  0.00     0.030 A 
HETATM   14  C   UNK N   1      30.970  17.204   7.479  0.00  0.00     0.030 A 
HETATM   15  C   UNK N   1      30.241  17.903   8.461  0.00  0.00     0.030 A 
HETATM   16  C   UNK N   1      29.035  18.535   8.135  0.00  0.00     0.019 A 
BRANCH  14  17
HETATM   17  N   UNK N   1      32.195  16.556   7.802  0.00  0.00    -0.379 N 
HETATM   18  C   UNK N   1      32.193  15.510   8.822  0.00  0.00     0.125 C 
HETATM   19  C   UNK N   1      33.560  14.939   9.204  0.00  0.00     0.050 C 
HETATM   20  C   UNK N   1      34.272  14.290   8.026  0.00  0.00     0.273 C 
HETATM   21  N   UNK N   1      35.048  15.298   7.321  0.00  0.00     0.085 N 
HETATM   22  C   UNK N   1      36.031  14.614   6.503  0.00  0.00     0.309 C 
HETATM   23  C   UNK N   1      34.155  16.004   6.421  0.00  0.00     0.291 C 
HETATM   24  C   UNK N   1      33.414  17.065   7.204  0.00  0.00     0.153 C 
ENDBRANCH  14  17
ENDBRANCH   8  11
ENDBRANCH   1   7
BRANCH   2  25
HETATM   25  N   UNK N   1      23.935  17.305   5.792  0.00  0.00    -0.321 N 
HETATM   26  C   UNK N   1      24.173  15.978   5.572  0.00  0.00     0.256 C 
HETATM   27  O   UNK N   1      24.463  15.577   4.454  0.00  0.00    -0.267 OA
HETATM   28  H   UNK N   1      23.570  17.551   6.673  0.00  0.00     0.169 HD
BRANCH  26  29
HETATM   29  C   UNK N   1      24.011  14.986   6.659  0.00  0.00     0.032 A 
HETATM   30  C   UNK N   1      22.726  14.682   7.136  0.00  0.00     0.020 A 
HETATM   31  C   UNK N   1      22.552  13.796   8.199  0.00  0.00     0.038 A 
HETATM   32  C   UNK N   1      23.659  13.215   8.820  0.00  0.00     0.068 A 
HETATM   33  C   UNK N   1      24.950  13.498   8.333  0.00  0.00     0.038 A 
HETATM   34  C   UNK N   1      25.123  14.372   7.252  0.00  0.00     0.020 A 
BRANCH  32  35
HETATM   35  O   UNK N   1      23.462  12.411   9.890  0.00  0.00    -0.356 OA
HETATM   36  C   UNK N   1      22.349  12.487  10.697  0.00  0.00     0.210 C 
ENDBRANCH  32  35
ENDBRANCH  26  29
ENDBRANCH   2  25
BRANCH   6  37
HETATM   37  O   UNK N   1      26.725  20.744   3.642  0.00  0.00    -0.358 OA
HETATM   38  H   UNK N   1      27.150  21.144   4.375  0.00  0.00     0.217 HD
ENDBRANCH   6  37
TORSDOF 7
ENDMDL
MODEL 5
REMARK VINA RESULT:      -8.2      3.239      8.617
REMARK  7 active torsions:
REMARK  status: ('A' for Active; 'I' for Inactive)
REMARK    1  A    between atoms: N_6  and  C_9 
REMARK    2  A    between atoms: C_12  and  C_15 
REMARK       I    between atoms: C_15  and  N_17 
REMARK    3  A    between atoms: N_17  and  C_18 
REMARK    4  A    between atoms: C_19  and  N_25 
REMARK    5  A    between atoms: C_23  and  O_24 
REMARK       I    between atoms: N_25  and  C_26 
REMARK    6  A    between atoms: C_26  and  C_28 
REMARK    7  A    between atoms: C_31  and  O_34 
ROOT
HETATM    1  C   UNK N   1      25.442  18.785   4.346  0.00  0.00     0.095 A 
HETATM    2  C   UNK N   1      26.753  19.344   4.288  0.00  0.00     0.064 A 
HETATM    3  C   UNK N   1      26.986  20.462   3.486  0.00  0.00     0.032 A 
HETATM    4  C   UNK N   1      25.950  21.055   2.768  0.00  0.00     0.005 A 
HETATM    5  C   UNK N   1      24.668  20.514   2.816  0.00  0.00     0.039 A 
HETATM    6  C   UNK N   1      24.403  19.381   3.586  0.00  0.00     0.094 A 
ENDROOT
BRANCH   1   7
HETATM    7  N   UNK N   1      25.264  17.638   5.163  0.00  0.00    -0.319 N 
HETATM    8  C   UNK N   1      25.269  16.309   4.868  0.00  0.00     0.256 C 
HETATM    9  O   UNK N   1      25.542  15.897   3.758  0.00  0.00    -0.267 OA
HETATM   10  H   UNK N   1      25.109  17.840   6.114  0.00  0.00     0.169 HD
BRANCH   8  11
HETATM   11  C   UNK N   1      24.728  15.398   5.894  0.00  0.00     0.032 A 
HETATM   12  C   UNK N   1      25.622  14.754   6.757  0.00  0.00     0.019 A 
HETATM   13  C   UNK N   1      25.163  13.997   7.825  0.00  0.00     0.030 A 
HETATM   14  C   UNK N   1      23.791  13.833   8.031  0.00  0.00     0.030 A 
HETATM   15  C   UNK N   1      22.884  14.451   7.148  0.00  0.00     0.030 A 
HETATM   16  C   UNK N   1      23.349  15.256   6.101  0.00  0.00     0.019 A 
BRANCH  14  17
HETATM   17  N   UNK N   1      23.329  13.010   9.096  0.00  0.00    -0.379 N 
HETATM   18  C   UNK N   1      24.252  12.668  10.176  0.00  0.00     0.125 C 
HETATM   19  C   UNK N   1      23.727  11.686  11.226  0.00  0.00     0.050 C 
HETATM   20  C   UNK N   1      22.500  12.212  11.955  0.00  0.00     0.273 C 
HETATM   21  N   UNK N   1      21.305  11.838  11.214  0.00  0.00     0.085 N 
HETATM   22  C   UNK N   1      20.169  11.953  12.108  0.00  0.00     0.309 C 
HETATM   23  C   UNK N   1      21.115  12.807  10.151  0.00  0.00     0.291 C 
HETATM   24  C   UNK N   1      22.004  12.432   8.986  0.00  0.00     0.153 C 
ENDBRANCH  14  17
ENDBRANCH   8  11
ENDBRANCH   1   7
BRANCH   2  25
HETATM   25  N   UNK N   1      27.867  18.786   5.002  0.00  0.00    -0.321 N 
HETATM   26  C   UNK N   1      28.751  17.860   4.523  0.00  0.00     0.256 C 
HETATM   27  O   UNK N   1      28.544  17.300   3.456  0.00  0.00    -0.267 OA
HETATM   28  H   UNK N   1      28.008  19.100   5.924  0.00  0.00     0.169 HD
BRANCH  26  29
HETATM   29  C   UNK N   1      29.933  17.457   5.317  0.00  0.00     0.032 A 
HETATM   30  C   UNK N   1      29.824  17.331   6.711  0.00  0.00     0.020 A 
HETATM   31  C   UNK N   1      30.938  17.012   7.487  0.00  0.00     0.038 A 
HETATM   32  C   UNK N   1      32.186  16.833   6.887  0.00  0.00     0.068 A 
HETATM   33  C   UNK N   1      32.299  16.936   5.488  0.00  0.00     0.038 A 
HETATM   34  C   UNK N   1      31.176  17.237   4.707  0.00  0.00     0.020 A 
BRANCH  32  35
HETATM   35  O   UNK N   1      33.260  16.588   7.673  0.00  0.00    -0.356 OA
HETATM   36  C   UNK N   1      33.599  17.369   8.754  0.00  0.00     0.210 C 
ENDBRANCH  32  35
ENDBRANCH  26  29
ENDBRANCH   2  25
BRANCH   6  37
HETATM   37  O   UNK N   1      23.163  18.867   3.555  0.00  0.00    -0.358 OA
HETATM   38  H   UNK N   1      22.760  18.621   2.746  0.00  0.00     0.217 HD
ENDBRANCH   6  37
TORSDOF 7
ENDMDL
MODEL 6
REMARK VINA RESULT:      -8.2      2.953      9.070
REMARK  7 active torsions:
REMARK  status: ('A' for Active; 'I' for Inactive)
REMARK    1  A    between atoms: N_6  and  C_9 
REMARK    2  A    between atoms: C_12  and  C_15 
REMARK       I    between atoms: C_15  and  N_17 
REMARK    3  A    between atoms: N_17  and  C_18 
REMARK    4  A    between atoms: C_19  and  N_25 
REMARK    5  A    between atoms: C_23  and  O_24 
REMARK       I    between atoms: N_25  and  C_26 
REMARK    6  A    between atoms: C_26  and  C_28 
REMARK    7  A    between atoms: C_31  and  O_34 
ROOT
HETATM    1  C   UNK N   1      30.444  15.936   5.233  0.00  0.00     0.095 A 
HETATM    2  C   UNK N   1      30.324  17.091   4.405  0.00  0.00     0.064 A 
HETATM    3  C   UNK N   1      31.477  17.755   3.983  0.00  0.00     0.032 A 
HETATM    4  C   UNK N   1      32.741  17.286   4.336  0.00  0.00     0.005 A 
HETATM    5  C   UNK N   1      32.867  16.162   5.147  0.00  0.00     0.039 A 
HETATM    6  C   UNK N   1      31.736  15.487   5.609  0.00  0.00     0.094 A 
ENDROOT
BRANCH   1   7
HETATM    7  N   UNK N   1      29.239  15.309   5.648  0.00  0.00    -0.319 N 
HETATM    8  C   UNK N   1      28.287  14.632   4.949  0.00  0.00     0.256 C 
HETATM    9  O   UNK N   1      28.412  14.382   3.766  0.00  0.00    -0.267 OA
HETATM   10  H   UNK N   1      29.061  15.376   6.613  0.00  0.00     0.169 HD
BRANCH   8  11
HETATM   11  C   UNK N   1      27.003  14.394   5.635  0.00  0.00     0.032 A 
HETATM   12  C   UNK N   1      26.440  15.434   6.384  0.00  0.00     0.019 A 
HETATM   13  C   UNK N   1      25.172  15.313   6.933  0.00  0.00     0.030 A 
HETATM   14  C   UNK N   1      24.451  14.125   6.780  0.00  0.00     0.030 A 
HETATM   15  C   UNK N   1      25.024  13.062   6.055  0.00  0.00     0.030 A 
HETATM   16  C   UNK N   1      26.283  13.205   5.459  0.00  0.00     0.019 A 
BRANCH  14  17
HETATM   17  N   UNK N   1      23.175  13.988   7.392  0.00  0.00    -0.379 N 
HETATM   18  C   UNK N   1      23.023  13.054   8.507  0.00  0.00     0.125 C 
HETATM   19  C   UNK N   1      21.601  12.868   9.040  0.00  0.00     0.050 C 
HETATM   20  C   UNK N   1      21.002  14.162   9.572  0.00  0.00     0.273 C 
HETATM   21  N   UNK N   1      20.348  14.871   8.483  0.00  0.00     0.085 N 
HETATM   22  C   UNK N   1      19.439  15.840   9.062  0.00  0.00     0.309 C 
HETATM   23  C   UNK N   1      21.363  15.612   7.758  0.00  0.00     0.291 C 
HETATM   24  C   UNK N   1      22.051  14.676   6.789  0.00  0.00     0.153 C 
ENDBRANCH  14  17
ENDBRANCH   8  11
ENDBRANCH   1   7
BRANCH   2  25
HETATM   25  N   UNK N   1      29.055  17.630   4.003  0.00  0.00    -0.321 N 
HETATM   26  C   UNK N   1      28.205  18.361   4.782  0.00  0.00     0.256 C 
HETATM   27  O   UNK N   1      28.408  18.475   5.983  0.00  0.00    -0.267 OA
HETATM   28  H   UNK N   1      28.770  17.454   3.077  0.00  0.00     0.169 HD
BRANCH  26  29
HETATM   29  C   UNK N   1      26.980  18.966   4.211  0.00  0.00     0.032 A 
HETATM   30  C   UNK N   1      27.065  20.187   3.523  0.00  0.00     0.020 A 
HETATM   31  C   UNK N   1      25.917  20.807   3.028  0.00  0.00     0.038 A 
HETATM   32  C   UNK N   1      24.663  20.228   3.229  0.00  0.00     0.068 A 
HETATM   33  C   UNK N   1      24.572  18.993   3.899  0.00  0.00     0.038 A 
HETATM   34  C   UNK N   1      25.727  18.361   4.378  0.00  0.00     0.020 A 
BRANCH  32  35
HETATM   35  O   UNK N   1      23.562  20.886   2.794  0.00  0.00    -0.356 OA
HETATM   36  C   UNK N   1      22.323  20.296   2.688  0.00  0.00     0.210 C 
ENDBRANCH  32  35
ENDBRANCH  26  29
ENDBRANCH   2  25
BRANCH   6  37
HETATM   37  O   UNK N   1      31.912  14.441   6.432  0.00  0.00    -0.358 OA
HETATM   38  H   UNK N   1      32.444  13.711   6.183  0.00  0.00     0.217 HD
ENDBRANCH   6  37
TORSDOF 7
ENDMDL
MODEL 7
REMARK VINA RESULT:      -8.0      5.619     10.560
REMARK  7 active torsions:
REMARK  status: ('A' for Active; 'I' for Inactive)
REMARK    1  A    between atoms: N_6  and  C_9 
REMARK    2  A    between atoms: C_12  and  C_15 
REMARK       I    between atoms: C_15  and  N_17 
REMARK    3  A    between atoms: N_17  and  C_18 
REMARK    4  A    between atoms: C_19  and  N_25 
REMARK    5  A    between atoms: C_23  and  O_24 
REMARK       I    between atoms: N_25  and  C_26 
REMARK    6  A    between atoms: C_26  and  C_28 
REMARK    7  A    between atoms: C_31  and  O_34 
ROOT
HETATM    1  C   UNK N   1      35.137  14.866   8.812  0.00  0.00     0.095 A 
HETATM    2  C   UNK N   1      34.380  15.737   9.650  0.00  0.00     0.064 A 
HETATM    3  C   UNK N   1      34.907  16.133  10.880  0.00  0.00     0.032 A 
HETATM    4  C   UNK N   1      36.172  15.713  11.284  0.00  0.00     0.005 A 
HETATM    5  C   UNK N   1      36.916  14.860  10.474  0.00  0.00     0.039 A 
HETATM    6  C   UNK N   1      36.411  14.422   9.249  0.00  0.00     0.094 A 
ENDROOT
BRANCH   1   7
HETATM    7  N   UNK N   1      34.547  14.480   7.579  0.00  0.00    -0.319 N 
HETATM    8  C   UNK N   1      34.607  15.033   6.337  0.00  0.00     0.256 C 
HETATM    9  O   UNK N   1      35.324  15.983   6.089  0.00  0.00    -0.267 OA
HETATM   10  H   UNK N   1      33.995  13.667   7.633  0.00  0.00     0.169 HD
BRANCH   8  11
HETATM   11  C   UNK N   1      33.614  14.567   5.352  0.00  0.00     0.032 A 
HETATM   12  C   UNK N   1      32.433  13.977   5.818  0.00  0.00     0.019 A 
HETATM   13  C   UNK N   1      31.406  13.647   4.946  0.00  0.00     0.030 A 
HETATM   14  C   UNK N   1      31.556  13.863   3.573  0.00  0.00     0.030 A 
HETATM   15  C   UNK N   1      32.753  14.426   3.091  0.00  0.00     0.030 A 
HETATM   16  C   UNK N   1      33.768  14.805   3.980  0.00  0.00     0.019 A 
BRANCH  14  17
HETATM   17  N   UNK N   1      30.521  13.472   2.679  0.00  0.00    -0.379 N 
HETATM   18  C   UNK N   1      30.816  12.478   1.648  0.00  0.00     0.125 C 
HETATM   19  C   UNK N   1      29.695  12.191   0.647  0.00  0.00     0.050 C 
HETATM   20  C   UNK N   1      28.439  11.652   1.316  0.00  0.00     0.273 C 
HETATM   21  N   UNK N   1      27.597  12.767   1.724  0.00  0.00     0.085 N 
HETATM   22  C   UNK N   1      26.259  12.257   1.950  0.00  0.00     0.309 C 
HETATM   23  C   UNK N   1      28.091  13.259   2.997  0.00  0.00     0.291 C 
HETATM   24  C   UNK N   1      29.259  14.184   2.741  0.00  0.00     0.153 C 
ENDBRANCH  14  17
ENDBRANCH   8  11
ENDBRANCH   1   7
BRANCH   2  25
HETATM   25  N   UNK N   1      33.070  16.210   9.297  0.00  0.00    -0.321 N 
HETATM   26  C   UNK N   1      32.786  17.301   8.527  0.00  0.00     0.256 C 
HETATM   27  O   UNK N   1      33.672  18.079   8.203  0.00  0.00    -0.267 OA
HETATM   28  H   UNK N   1      32.304  15.698   9.645  0.00  0.00     0.169 HD
BRANCH  26  29
HETATM   29  C   UNK N   1      31.393  17.611   8.132  0.00  0.00     0.032 A 
HETATM   30  C   UNK N   1      30.908  17.168   6.892  0.00  0.00     0.020 A 
HETATM   31  C   UNK N   1      29.619  17.499   6.472  0.00  0.00     0.038 A 
HETATM   32  C   UNK N   1      28.800  18.296   7.274  0.00  0.00     0.068 A 
HETATM   33  C   UNK N   1      29.272  18.725   8.529  0.00  0.00     0.038 A 
HETATM   34  C   UNK N   1      30.559  18.376   8.959  0.00  0.00     0.020 A 
BRANCH  32  35
HETATM   35  O   UNK N   1      27.579  18.653   6.811  0.00  0.00    -0.356 OA
HETATM   36  C   UNK N   1      27.248  19.946   6.476  0.00  0.00     0.210 C 
ENDBRANCH  32  35
ENDBRANCH  26  29
ENDBRANCH   2  25
BRANCH   6  37
HETATM   37  O   UNK N   1      37.145  13.557   8.531  0.00  0.00    -0.358 OA
HETATM   38  H   UNK N   1      36.747  12.836   8.083  0.00  0.00     0.217 HD
ENDBRANCH   6  37
TORSDOF 7
ENDMDL
MODEL 8
REMARK VINA RESULT:      -8.0      6.163     10.188
REMARK  7 active torsions:
REMARK  status: ('A' for Active; 'I' for Inactive)
REMARK    1  A    between atoms: N_6  and  C_9 
REMARK    2  A    between atoms: C_12  and  C_15 
REMARK       I    between atoms: C_15  and  N_17 
REMARK    3  A    between atoms: N_17  and  C_18 
REMARK    4  A    between atoms: C_19  and  N_25 
REMARK    5  A    between atoms: C_23  and  O_24 
REMARK       I    between atoms: N_25  and  C_26 
REMARK    6  A    between atoms: C_26  and  C_28 
REMARK    7  A    between atoms: C_31  and  O_34 
ROOT
HETATM    1  C   UNK N   1      30.387  17.506   8.318  0.00  0.00     0.095 A 
HETATM    2  C   UNK N   1      29.982  17.116   7.007  0.00  0.00     0.064 A 
HETATM    3  C   UNK N   1      28.779  17.598   6.489  0.00  0.00     0.032 A 
HETATM    4  C   UNK N   1      27.986  18.476   7.225  0.00  0.00     0.005 A 
HETATM    5  C   UNK N   1      28.371  18.859   8.507  0.00  0.00     0.039 A 
HETATM    6  C   UNK N   1      29.555  18.377   9.067  0.00  0.00     0.094 A 
ENDROOT
BRANCH   1   7
HETATM    7  N   UNK N   1      31.611  16.973   8.803  0.00  0.00    -0.319 N 
HETATM    8  C   UNK N   1      32.900  17.377   8.637  0.00  0.00     0.256 C 
HETATM    9  O   UNK N   1      33.182  18.408   8.058  0.00  0.00    -0.267 OA
HETATM   10  H   UNK N   1      31.508  16.168   9.359  0.00  0.00     0.169 HD
BRANCH   8  11
HETATM   11  C   UNK N   1      33.952  16.411   9.005  0.00  0.00     0.032 A 
HETATM   12  C   UNK N   1      34.156  15.296   8.183  0.00  0.00     0.019 A 
HETATM   13  C   UNK N   1      35.218  14.432   8.403  0.00  0.00     0.030 A 
HETATM   14  C   UNK N   1      36.082  14.642   9.481  0.00  0.00     0.030 A 
HETATM   15  C   UNK N   1      35.866  15.743  10.332  0.00  0.00     0.030 A 
HETATM   16  C   UNK N   1      34.823  16.643  10.078  0.00  0.00     0.019 A 
BRANCH  14  17
HETATM   17  N   UNK N   1      37.137  13.721   9.732  0.00  0.00    -0.379 N 
HETATM   18  C   UNK N   1      36.830  12.465  10.415  0.00  0.00     0.125 C 
HETATM   19  C   UNK N   1      38.027  11.576  10.759  0.00  0.00     0.050 C 
HETATM   20  C   UNK N   1      38.800  11.134   9.525  0.00  0.00     0.273 C 
HETATM   21  N   UNK N   1      39.813  12.131   9.211  0.00  0.00     0.085 N 
HETATM   22  C   UNK N   1      40.793  11.515   8.339  0.00  0.00     0.309 C 
HETATM   23  C   UNK N   1      39.175  13.195   8.458  0.00  0.00     0.291 C 
HETATM   24  C   UNK N   1      38.492  14.135   9.427  0.00  0.00     0.153 C 
ENDBRANCH  14  17
ENDBRANCH   8  11
ENDBRANCH   1   7
BRANCH   2  25
HETATM   25  N   UNK N   1      30.750  16.216   6.193  0.00  0.00    -0.321 N 
HETATM   26  C   UNK N   1      31.617  16.567   5.198  0.00  0.00     0.256 C 
HETATM   27  O   UNK N   1      31.677  17.724   4.808  0.00  0.00    -0.267 OA
HETATM   28  H   UNK N   1      30.641  15.253   6.370  0.00  0.00     0.169 HD
BRANCH  26  29
HETATM   29  C   UNK N   1      32.444  15.546   4.515  0.00  0.00     0.032 A 
HETATM   30  C   UNK N   1      32.608  14.280   5.101  0.00  0.00     0.020 A 
HETATM   31  C   UNK N   1      33.431  13.323   4.507  0.00  0.00     0.038 A 
HETATM   32  C   UNK N   1      34.120  13.619   3.330  0.00  0.00     0.068 A 
HETATM   33  C   UNK N   1      33.943  14.878   2.725  0.00  0.00     0.038 A 
HETATM   34  C   UNK N   1      33.101  15.832   3.311  0.00  0.00     0.020 A 
BRANCH  32  35
HETATM   35  O   UNK N   1      34.961  12.692   2.814  0.00  0.00    -0.356 OA
HETATM   36  C   UNK N   1      36.328  12.847   2.781  0.00  0.00     0.210 C 
ENDBRANCH  32  35
ENDBRANCH  26  29
ENDBRANCH   2  25
BRANCH   6  37
HETATM   37  O   UNK N   1      29.853  18.734  10.327  0.00  0.00    -0.358 OA
HETATM   38  H   UNK N   1      29.961  19.634  10.564  0.00  0.00     0.217 HD
ENDBRANCH   6  37
TORSDOF 7
ENDMDL
MODEL 9
REMARK VINA RESULT:      -7.9      4.210      8.293
REMARK  7 active torsions:
REMARK  status: ('A' for Active; 'I' for Inactive)
REMARK    1  A    between atoms: N_6  and  C_9 
REMARK    2  A    between atoms: C_12  and  C_15 
REMARK       I    between atoms: C_15  and  N_17 
REMARK    3  A    between atoms: N_17  and  C_18 
REMARK    4  A    between atoms: C_19  and  N_25 
REMARK    5  A    between atoms: C_23  and  O_24 
REMARK       I    between atoms: N_25  and  C_26 
REMARK    6  A    between atoms: C_26  and  C_28 
REMARK    7  A    between atoms: C_31  and  O_34 
ROOT
HETATM    1  C   UNK N   1      28.960  16.965   6.521  0.00  0.00     0.095 A 
HETATM    2  C   UNK N   1      28.240  18.133   6.907  0.00  0.00     0.064 A 
HETATM    3  C   UNK N   1      28.742  18.943   7.927  0.00  0.00     0.032 A 
HETATM    4  C   UNK N   1      29.951  18.639   8.550  0.00  0.00     0.005 A 
HETATM    5  C   UNK N   1      30.659  17.498   8.182  0.00  0.00     0.039 A 
HETATM    6  C   UNK N   1      30.174  16.652   7.184  0.00  0.00     0.094 A 
ENDROOT
BRANCH   1   7
HETATM    7  N   UNK N   1      28.396  16.168   5.490  0.00  0.00    -0.319 N 
HETATM    8  C   UNK N   1      28.643  16.115   4.152  0.00  0.00     0.256 C 
HETATM    9  O   UNK N   1      29.537  16.756   3.636  0.00  0.00    -0.267 OA
HETATM   10  H   UNK N   1      27.702  15.542   5.798  0.00  0.00     0.169 HD
BRANCH   8  11
HETATM   11  C   UNK N   1      27.651  15.408   3.321  0.00  0.00     0.032 A 
HETATM   12  C   UNK N   1      27.718  14.012   3.238  0.00  0.00     0.019 A 
HETATM   13  C   UNK N   1      26.732  13.286   2.586  0.00  0.00     0.030 A 
HETATM   14  C   UNK N   1      25.671  13.948   1.962  0.00  0.00     0.030 A 
HETATM   15  C   UNK N   1      25.613  15.355   2.012  0.00  0.00     0.030 A 
HETATM   16  C   UNK N   1      26.582  16.081   2.714  0.00  0.00     0.019 A 
BRANCH  14  17
HETATM   17  N   UNK N   1      24.693  13.202   1.248  0.00  0.00    -0.379 N 
HETATM   18  C   UNK N   1      24.977  11.808   0.910  0.00  0.00     0.125 C 
HETATM   19  C   UNK N   1      23.935  11.100   0.040  0.00  0.00     0.050 C 
HETATM   20  C   UNK N   1      22.566  11.038   0.702  0.00  0.00     0.273 C 
HETATM   21  N   UNK N   1      21.818  12.241   0.370  0.00  0.00     0.085 N 
HETATM   22  C   UNK N   1      20.416  11.981   0.628  0.00  0.00     0.309 C 
HETATM   23  C   UNK N   1      22.235  13.293   1.279  0.00  0.00     0.291 C 
HETATM   24  C   UNK N   1      23.520  13.902   0.763  0.00  0.00     0.153 C 
ENDBRANCH  14  17
ENDBRANCH   8  11
ENDBRANCH   1   7
BRANCH   2  25
HETATM   25  N   UNK N   1      26.989  18.507   6.308  0.00  0.00    -0.321 N 
HETATM   26  C   UNK N   1      26.825  19.128   5.102  0.00  0.00     0.256 C 
HETATM   27  O   UNK N   1      27.790  19.571   4.496  0.00  0.00    -0.267 OA
HETATM   28  H   UNK N   1      26.172  18.297   6.815  0.00  0.00     0.169 HD
BRANCH  26  29
HETATM   29  C   UNK N   1      25.473  19.347   4.538  0.00  0.00     0.032 A 
HETATM   30  C   UNK N   1      24.428  18.474   4.880  0.00  0.00     0.020 A 
HETATM   31  C   UNK N   1      23.162  18.625   4.315  0.00  0.00     0.038 A 
HETATM   32  C   UNK N   1      22.922  19.636   3.383  0.00  0.00     0.068 A 
HETATM   33  C   UNK N   1      23.959  20.529   3.053  0.00  0.00     0.038 A 
HETATM   34  C   UNK N   1      25.225  20.390   3.635  0.00  0.00     0.020 A 
BRANCH  32  35
HETATM   35  O   UNK N   1      21.701  19.716   2.805  0.00  0.00    -0.356 OA
HETATM   36  C   UNK N   1      20.763  18.711   2.878  0.00  0.00     0.210 C 
ENDBRANCH  32  35
ENDBRANCH  26  29
ENDBRANCH   2  25
BRANCH   6  37
HETATM   37  O   UNK N   1      30.868  15.536   6.905  0.00  0.00    -0.358 OA
HETATM   38  H   UNK N   1      31.129  15.333   6.028  0.00  0.00     0.217 HD
ENDBRANCH   6  37
TORSDOF 7
ENDMDL
