MODEL 1
REMARK VINA RESULT:      -8.0      0.000      0.000
REMARK  7 active torsions:
REMARK  status: ('A' for Active; 'I' for Inactive)
REMARK    1  A    between atoms: O_2  and  C_3 
REMARK    2  A    between atoms: C_6  and  C_23 
REMARK    3  A    between atoms: C_8  and  C_9 
REMARK       I    between atoms: C_9  and  N_11 
REMARK    4  A    between atoms: N_11  and  C_12 
REMARK    5  A    between atoms: C_12  and  C_13 
REMARK    6  A    between atoms: C_16  and  C_19 
REMARK    7  A    between atoms: C_23  and  C_24 
ROOT
HETATM    1  C   UNK N   1      31.411  15.613   6.720  0.00  0.00     0.084 A 
HETATM    2  C   UNK N   1      32.196  14.485   6.447  0.00  0.00     0.038 A 
HETATM    3  C   UNK N   1      33.095  14.014   7.393  0.00  0.00     0.010 A 
HETATM    4  C   UNK N   1      33.194  14.621   8.650  0.00  0.00    -0.054 A 
HETATM    5  C   UNK N   1      32.405  15.735   8.941  0.00  0.00     0.027 A 
HETATM    6  C   UNK N   1      31.535  16.258   7.977  0.00  0.00     0.065 A 
ENDROOT
BRANCH   6   7
HETATM    7  C   UNK N   1      30.787  17.497   8.265  0.00  0.00     0.254 C 
HETATM    8  O   UNK N   1      31.347  18.481   8.729  0.00  0.00    -0.268 OA
HETATM    9  N   UNK N   1      29.477  17.534   7.949  0.00  0.00    -0.353 N 
HETATM   10  H   UNK N   1      29.115  16.775   7.437  0.00  0.00     0.163 HD
BRANCH   9  11
HETATM   11  C   UNK N   1      28.569  18.585   8.297  0.00  0.00     0.161 C 
BRANCH  11  12
HETATM   12  C   UNK N   1      28.042  19.033   6.991  0.00  0.00    -0.041 A 
HETATM   13  C   UNK N   1      27.512  20.316   6.873  0.00  0.00     0.009 A 
HETATM   14  C   UNK N   1      26.803  20.671   5.725  0.00  0.00     0.017 A 
HETATM   15  C   UNK N   1      26.607  19.736   4.698  0.00  0.00     0.047 A 
HETATM   16  C   UNK N   1      27.157  18.453   4.813  0.00  0.00     0.017 A 
HETATM   17  C   UNK N   1      27.865  18.099   5.961  0.00  0.00     0.009 A 
BRANCH  15  18
HETATM   18  C   UNK N   1      25.785  20.114   3.507  0.00  0.00     0.417 C 
HETATM   19  F   UNK N   1      24.619  20.756   3.886  0.00  0.00    -0.166 F 
HETATM   20  F   UNK N   1      25.463  18.976   2.792  0.00  0.00    -0.166 F 
HETATM   21  F   UNK N   1      26.519  20.966   2.701  0.00  0.00    -0.166 F 
ENDBRANCH  15  18
ENDBRANCH  11  12
ENDBRANCH   9  11
ENDBRANCH   6   7
BRANCH   1  22
HETATM   22  O   UNK N   1      30.515  16.065   5.805  0.00  0.00    -0.355 OA
HETATM   23  C   UNK N   1      30.804  16.223   4.468  0.00  0.00     0.210 C 
ENDBRANCH   1  22
BRANCH   4  24
HETATM   24  C   UNK N   1      34.172  14.143   9.682  0.00  0.00     0.081 C 
BRANCH  24  25
HETATM   25  C   UNK N   1      34.239  14.998  10.950  0.00  0.00     0.230 A 
HETATM   26  C   UNK N   1      35.453  15.897  10.986  0.00  0.00     0.256 A 
HETATM   27  O   UNK N   1      35.686  16.817  10.219  0.00  0.00    -0.270 OA
HETATM   28  N   UNK N   1      36.259  15.581  11.997  0.00  0.00    -0.271 N 
HETATM   29  C   UNK N   1      35.678  14.554  12.611  0.00  0.00     0.368 A 
HETATM   30  H   UNK N   1      37.108  16.016  12.241  0.00  0.00     0.174 HD
HETATM   31  O   UNK N   1      36.157  14.004  13.590  0.00  0.00    -0.238 OA
HETATM   32  O   UNK N   1      34.514  14.182  12.043  0.00  0.00    -0.288 OA
ENDBRANCH  24  25
ENDBRANCH   4  24
TORSDOF 7
ENDMDL
MODEL 2
REMARK VINA RESULT:      -7.9      5.303     10.666
REMARK  7 active torsions:
REMARK  status: ('A' for Active; 'I' for Inactive)
REMARK    1  A    between atoms: O_2  and  C_3 
REMARK    2  A    between atoms: C_6  and  C_23 
REMARK    3  A    between atoms: C_8  and  C_9 
REMARK       I    between atoms: C_9  and  N_11 
REMARK    4  A    between atoms: N_11  and  C_12 
REMARK    5  A    between atoms: C_12  and  C_13 
REMARK    6  A    between atoms: C_16  and  C_19 
REMARK    7  A    between atoms: C_23  and  C_24 
ROOT
HETATM    1  C   UNK N   1      27.882  18.939   5.487  0.00  0.00     0.084 A 
HETATM    2  C   UNK N   1      27.116  20.064   5.817  0.00  0.00     0.038 A 
HETATM    3  C   UNK N   1      26.125  20.513   4.955  0.00  0.00     0.010 A 
HETATM    4  C   UNK N   1      25.838  19.820   3.773  0.00  0.00    -0.054 A 
HETATM    5  C   UNK N   1      26.582  18.687   3.442  0.00  0.00     0.027 A 
HETATM    6  C   UNK N   1      27.624  18.256   4.271  0.00  0.00     0.065 A 
ENDROOT
BRANCH   6   7
HETATM    7  C   UNK N   1      28.467  17.120   3.851  0.00  0.00     0.254 C 
HETATM    8  O   UNK N   1      27.985  16.013   3.651  0.00  0.00    -0.268 OA
HETATM    9  N   UNK N   1      29.779  17.349   3.641  0.00  0.00    -0.353 N 
HETATM   10  H   UNK N   1      30.083  18.285   3.665  0.00  0.00     0.163 HD
BRANCH   9  11
HETATM   11  C   UNK N   1      30.766  16.343   3.386  0.00  0.00     0.161 C 
BRANCH  11  12
HETATM   12  C   UNK N   1      31.695  16.473   4.528  0.00  0.00    -0.041 A 
HETATM   13  C   UNK N   1      31.318  15.973   5.773  0.00  0.00     0.009 A 
HETATM   14  C   UNK N   1      32.070  16.290   6.904  0.00  0.00     0.017 A 
HETATM   15  C   UNK N   1      33.192  17.125   6.796  0.00  0.00     0.047 A 
HETATM   16  C   UNK N   1      33.577  17.610   5.540  0.00  0.00     0.017 A 
HETATM   17  C   UNK N   1      32.825  17.293   4.410  0.00  0.00     0.009 A 
BRANCH  15  18
HETATM   18  C   UNK N   1      33.944  17.510   8.031  0.00  0.00     0.417 C 
HETATM   19  F   UNK N   1      34.577  18.730   7.870  0.00  0.00    -0.166 F 
HETATM   20  F   UNK N   1      34.890  16.543   8.312  0.00  0.00    -0.166 F 
HETATM   21  F   UNK N   1      33.059  17.605   9.090  0.00  0.00    -0.166 F 
ENDBRANCH  15  18
ENDBRANCH  11  12
ENDBRANCH   9  11
ENDBRANCH   6   7
BRANCH   1  22
HETATM   22  O   UNK N   1      28.839  18.485   6.337  0.00  0.00    -0.355 OA
HETATM   23  C   UNK N   1      28.564  17.869   7.536  0.00  0.00     0.210 C 
ENDBRANCH   1  22
BRANCH   4  24
HETATM   24  C   UNK N   1      24.785  20.295   2.817  0.00  0.00     0.081 C 
BRANCH  24  25
HETATM   25  C   UNK N   1      23.408  20.534   3.442  0.00  0.00     0.230 A 
HETATM   26  C   UNK N   1      22.527  19.306   3.404  0.00  0.00     0.256 A 
HETATM   27  O   UNK N   1      22.735  18.257   3.991  0.00  0.00    -0.270 OA
HETATM   28  N   UNK N   1      21.447  19.510   2.653  0.00  0.00    -0.271 N 
HETATM   29  C   UNK N   1      21.557  20.754   2.196  0.00  0.00     0.368 A 
HETATM   30  H   UNK N   1      20.718  18.873   2.472  0.00  0.00     0.174 HD
HETATM   31  O   UNK N   1      20.730  21.270   1.461  0.00  0.00    -0.238 OA
HETATM   32  O   UNK N   1      22.670  21.382   2.622  0.00  0.00    -0.288 OA
ENDBRANCH  24  25
ENDBRANCH   4  24
TORSDOF 7
ENDMDL
MODEL 3
REMARK VINA RESULT:      -7.9      6.944     10.741
REMARK  7 active torsions:
REMARK  status: ('A' for Active; 'I' for Inactive)
REMARK    1  A    between atoms: O_2  and  C_3 
REMARK    2  A    between atoms: C_6  and  C_23 
REMARK    3  A    between atoms: C_8  and  C_9 
REMARK       I    between atoms: C_9  and  N_11 
REMARK    4  A    between atoms: N_11  and  C_12 
REMARK    5  A    between atoms: C_12  and  C_13 
REMARK    6  A    between atoms: C_16  and  C_19 
REMARK    7  A    between atoms: C_23  and  C_24 
ROOT
HETATM    1  C   UNK N   1      23.748  15.169   5.989  0.00  0.00     0.084 A 
HETATM    2  C   UNK N   1      22.940  14.271   6.697  0.00  0.00     0.038 A 
HETATM    3  C   UNK N   1      21.642  14.621   7.043  0.00  0.00     0.010 A 
HETATM    4  C   UNK N   1      21.103  15.851   6.646  0.00  0.00    -0.054 A 
HETATM    5  C   UNK N   1      21.894  16.748   5.925  0.00  0.00     0.027 A 
HETATM    6  C   UNK N   1      23.222  16.434   5.619  0.00  0.00     0.065 A 
ENDROOT
BRANCH   6   7
HETATM    7  C   UNK N   1      24.073  17.437   4.949  0.00  0.00     0.254 C 
HETATM    8  O   UNK N   1      23.636  18.134   4.044  0.00  0.00    -0.268 OA
HETATM    9  N   UNK N   1      25.332  17.602   5.402  0.00  0.00    -0.353 N 
HETATM   10  H   UNK N   1      25.580  17.129   6.228  0.00  0.00     0.163 HD
BRANCH   9  11
HETATM   11  C   UNK N   1      26.338  18.409   4.779  0.00  0.00     0.161 C 
BRANCH  11  12
HETATM   12  C   UNK N   1      27.437  18.417   5.767  0.00  0.00    -0.041 A 
HETATM   13  C   UNK N   1      28.191  17.262   5.957  0.00  0.00     0.009 A 
HETATM   14  C   UNK N   1      29.068  17.176   7.039  0.00  0.00     0.017 A 
HETATM   15  C   UNK N   1      29.178  18.240   7.945  0.00  0.00     0.047 A 
HETATM   16  C   UNK N   1      28.431  19.407   7.741  0.00  0.00     0.017 A 
HETATM   17  C   UNK N   1      27.555  19.492   6.660  0.00  0.00     0.009 A 
BRANCH  15  18
HETATM   18  C   UNK N   1      30.071  18.101   9.138  0.00  0.00     0.417 C 
HETATM   19  F   UNK N   1      29.643  18.905  10.180  0.00  0.00    -0.166 F 
HETATM   20  F   UNK N   1      31.360  18.460   8.791  0.00  0.00    -0.166 F 
HETATM   21  F   UNK N   1      30.062  16.784   9.560  0.00  0.00    -0.166 F 
ENDBRANCH  15  18
ENDBRANCH  11  12
ENDBRANCH   9  11
ENDBRANCH   6   7
BRANCH   1  22
HETATM   22  O   UNK N   1      25.012  14.823   5.631  0.00  0.00    -0.355 OA
HETATM   23  C   UNK N   1      25.908  14.220   6.485  0.00  0.00     0.210 C 
ENDBRANCH   1  22
BRANCH   4  24
HETATM   24  C   UNK N   1      19.711  16.260   7.023  0.00  0.00     0.081 C 
BRANCH  24  25
HETATM   25  C   UNK N   1      19.478  16.439   8.525  0.00  0.00     0.230 A 
HETATM   26  C   UNK N   1      18.108  16.993   8.843  0.00  0.00     0.256 A 
HETATM   27  O   UNK N   1      17.043  16.436   8.631  0.00  0.00    -0.270 OA
HETATM   28  N   UNK N   1      18.193  18.188   9.424  0.00  0.00    -0.271 N 
HETATM   29  C   UNK N   1      19.493  18.458   9.501  0.00  0.00     0.368 A 
HETATM   30  H   UNK N   1      17.450  18.755   9.733  0.00  0.00     0.174 HD
HETATM   31  O   UNK N   1      19.933  19.491   9.981  0.00  0.00    -0.238 OA
HETATM   32  O   UNK N   1      20.272  17.481   8.994  0.00  0.00    -0.288 OA
ENDBRANCH  24  25
ENDBRANCH   4  24
TORSDOF 7
ENDMDL
MODEL 4
REMARK VINA RESULT:      -7.7      4.035      5.612
REMARK  7 active torsions:
REMARK  status: ('A' for Active; 'I' for Inactive)
REMARK    1  A    between atoms: O_2  and  C_3 
REMARK    2  A    between atoms: C_6  and  C_23 
REMARK    3  A    between atoms: C_8  and  C_9 
REMARK       I    between atoms: C_9  and  N_11 
REMARK    4  A    between atoms: N_11  and  C_12 
REMARK    5  A    between atoms: C_12  and  C_13 
REMARK    6  A    between atoms: C_16  and  C_19 
REMARK    7  A    between atoms: C_23  and  C_24 
ROOT
HETATM    1  C   UNK N   1      36.008  14.439   9.296  0.00  0.00     0.084 A 
HETATM    2  C   UNK N   1      36.690  13.295   9.728  0.00  0.00     0.038 A 
HETATM    3  C   UNK N   1      36.854  13.049  11.084  0.00  0.00     0.010 A 
HETATM    4  C   UNK N   1      36.298  13.908  12.039  0.00  0.00    -0.054 A 
HETATM    5  C   UNK N   1      35.602  15.043  11.621  0.00  0.00     0.027 A 
HETATM    6  C   UNK N   1      35.477  15.336  10.259  0.00  0.00     0.065 A 
ENDROOT
BRANCH   6   7
HETATM    7  C   UNK N   1      34.829  16.594   9.839  0.00  0.00     0.254 C 
HETATM    8  O   UNK N   1      35.346  17.679  10.068  0.00  0.00    -0.268 OA
HETATM    9  N   UNK N   1      33.676  16.511   9.145  0.00  0.00    -0.353 N 
HETATM   10  H   UNK N   1      33.388  15.617   8.854  0.00  0.00     0.163 HD
BRANCH   9  11
HETATM   11  C   UNK N   1      32.837  17.619   8.797  0.00  0.00     0.161 C 
BRANCH  11  12
HETATM   12  C   UNK N   1      32.673  17.481   7.334  0.00  0.00    -0.041 A 
HETATM   13  C   UNK N   1      31.466  17.007   6.825  0.00  0.00     0.009 A 
HETATM   14  C   UNK N   1      31.373  16.651   5.479  0.00  0.00     0.017 A 
HETATM   15  C   UNK N   1      32.494  16.751   4.643  0.00  0.00     0.047 A 
HETATM   16  C   UNK N   1      33.701  17.245   5.155  0.00  0.00     0.017 A 
HETATM   17  C   UNK N   1      33.793  17.600   6.500  0.00  0.00     0.009 A 
BRANCH  15  18
HETATM   18  C   UNK N   1      32.393  16.298   3.221  0.00  0.00     0.417 C 
HETATM   19  F   UNK N   1      31.546  17.116   2.494  0.00  0.00    -0.166 F 
HETATM   20  F   UNK N   1      31.913  15.003   3.184  0.00  0.00    -0.166 F 
HETATM   21  F   UNK N   1      33.650  16.335   2.643  0.00  0.00    -0.166 F 
ENDBRANCH  15  18
ENDBRANCH  11  12
ENDBRANCH   9  11
ENDBRANCH   6   7
BRANCH   1  22
HETATM   22  O   UNK N   1      35.828  14.673   7.970  0.00  0.00    -0.355 OA
HETATM   23  C   UNK N   1      35.044  13.886   7.157  0.00  0.00     0.210 C 
ENDBRANCH   1  22
BRANCH   4  24
HETATM   24  C   UNK N   1      36.478  13.674  13.510  0.00  0.00     0.081 C 
BRANCH  24  25
HETATM   25  C   UNK N   1      35.176  13.568  14.308  0.00  0.00     0.230 A 
HETATM   26  C   UNK N   1      35.385  13.010  15.697  0.00  0.00     0.256 A 
HETATM   27  O   UNK N   1      36.022  13.538  16.593  0.00  0.00    -0.270 OA
HETATM   28  N   UNK N   1      34.755  11.847  15.850  0.00  0.00    -0.271 N 
HETATM   29  C   UNK N   1      34.166  11.601  14.683  0.00  0.00     0.368 A 
HETATM   30  H   UNK N   1      34.729  11.285  16.658  0.00  0.00     0.174 HD
HETATM   31  O   UNK N   1      33.500  10.601  14.469  0.00  0.00    -0.238 OA
HETATM   32  O   UNK N   1      34.382  12.564  13.764  0.00  0.00    -0.288 OA
ENDBRANCH  24  25
ENDBRANCH   4  24
TORSDOF 7
ENDMDL
MODEL 5
REMARK VINA RESULT:      -7.6      2.120      3.053
REMARK  7 active torsions:
REMARK  status: ('A' for Active; 'I' for Inactive)
REMARK    1  A    between atoms: O_2  and  C_3 
REMARK    2  A    between atoms: C_6  and  C_23 
REMARK    3  A    between atoms: C_8  and  C_9 
REMARK       I    between atoms: C_9  and  N_11 
REMARK    4  A    between atoms: N_11  and  C_12 
REMARK    5  A    between atoms: C_12  and  C_13 
REMARK    6  A    between atoms: C_16  and  C_19 
REMARK    7  A    between atoms: C_23  and  C_24 
ROOT
HETATM    1  C   UNK N   1      33.576  17.094   7.893  0.00  0.00     0.084 A 
HETATM    2  C   UNK N   1      34.622  17.488   8.737  0.00  0.00     0.038 A 
HETATM    3  C   UNK N   1      34.958  16.719   9.842  0.00  0.00     0.010 A 
HETATM    4  C   UNK N   1      34.297  15.513  10.101  0.00  0.00    -0.054 A 
HETATM    5  C   UNK N   1      33.264  15.099   9.258  0.00  0.00     0.027 A 
HETATM    6  C   UNK N   1      32.874  15.893   8.173  0.00  0.00     0.065 A 
ENDROOT
BRANCH   6   7
HETATM    7  C   UNK N   1      31.713  15.492   7.356  0.00  0.00     0.254 C 
HETATM    8  O   UNK N   1      31.637  14.371   6.870  0.00  0.00    -0.268 OA
HETATM    9  N   UNK N   1      30.708  16.378   7.206  0.00  0.00    -0.353 N 
HETATM   10  H   UNK N   1      30.749  17.201   7.744  0.00  0.00     0.163 HD
BRANCH   9  11
HETATM   11  C   UNK N   1      29.587  16.221   6.328  0.00  0.00     0.161 C 
BRANCH  11  12
HETATM   12  C   UNK N   1      29.001  17.576   6.269  0.00  0.00    -0.041 A 
HETATM   13  C   UNK N   1      28.634  18.213   7.453  0.00  0.00     0.009 A 
HETATM   14  C   UNK N   1      27.872  19.380   7.405  0.00  0.00     0.017 A 
HETATM   15  C   UNK N   1      27.459  19.904   6.172  0.00  0.00     0.047 A 
HETATM   16  C   UNK N   1      27.845  19.271   4.983  0.00  0.00     0.017 A 
HETATM   17  C   UNK N   1      28.607  18.104   5.032  0.00  0.00     0.009 A 
BRANCH  15  18
HETATM   18  C   UNK N   1      26.583  21.117   6.144  0.00  0.00     0.417 C 
HETATM   19  F   UNK N   1      27.325  22.265   5.925  0.00  0.00    -0.166 F 
HETATM   20  F   UNK N   1      25.919  21.232   7.350  0.00  0.00    -0.166 F 
HETATM   21  F   UNK N   1      25.658  20.985   5.124  0.00  0.00    -0.166 F 
ENDBRANCH  15  18
ENDBRANCH  11  12
ENDBRANCH   9  11
ENDBRANCH   6   7
BRANCH   1  22
HETATM   22  O   UNK N   1      33.258  17.833   6.800  0.00  0.00    -0.355 OA
HETATM   23  C   UNK N   1      33.621  17.492   5.516  0.00  0.00     0.210 C 
ENDBRANCH   1  22
BRANCH   4  24
HETATM   24  C   UNK N   1      34.628  14.673  11.299  0.00  0.00     0.081 C 
BRANCH  24  25
HETATM   25  C   UNK N   1      35.505  13.453  11.006  0.00  0.00     0.230 A 
HETATM   26  C   UNK N   1      36.534  13.199  12.084  0.00  0.00     0.256 A 
HETATM   27  O   UNK N   1      36.299  12.892  13.241  0.00  0.00    -0.270 OA
HETATM   28  N   UNK N   1      37.771  13.329  11.609  0.00  0.00    -0.271 N 
HETATM   29  C   UNK N   1      37.632  13.651  10.327  0.00  0.00     0.368 A 
HETATM   30  H   UNK N   1      38.614  13.211  12.104  0.00  0.00     0.174 HD
HETATM   31  O   UNK N   1      38.579  13.852   9.583  0.00  0.00    -0.238 OA
HETATM   32  O   UNK N   1      36.346  13.736   9.934  0.00  0.00    -0.288 OA
ENDBRANCH  24  25
ENDBRANCH   4  24
TORSDOF 7
ENDMDL
MODEL 6
REMARK VINA RESULT:      -7.5      2.728      4.729
REMARK  7 active torsions:
REMARK  status: ('A' for Active; 'I' for Inactive)
REMARK    1  A    between atoms: O_2  and  C_3 
REMARK    2  A    between atoms: C_6  and  C_23 
REMARK    3  A    between atoms: C_8  and  C_9 
REMARK       I    between atoms: C_9  and  N_11 
REMARK    4  A    between atoms: N_11  and  C_12 
REMARK    5  A    between atoms: C_12  and  C_13 
REMARK    6  A    between atoms: C_16  and  C_19 
REMARK    7  A    between atoms: C_23  and  C_24 
ROOT
HETATM    1  C   UNK N   1      28.250  18.912   7.496  0.00  0.00     0.084 A 
HETATM    2  C   UNK N   1      29.034  19.328   8.579  0.00  0.00     0.038 A 
HETATM    3  C   UNK N   1      30.091  18.545   9.020  0.00  0.00     0.010 A 
HETATM    4  C   UNK N   1      30.425  17.358   8.358  0.00  0.00    -0.054 A 
HETATM    5  C   UNK N   1      29.663  16.940   7.266  0.00  0.00     0.027 A 
HETATM    6  C   UNK N   1      28.558  17.689   6.846  0.00  0.00     0.065 A 
ENDROOT
BRANCH   6   7
HETATM    7  C   UNK N   1      27.702  17.178   5.757  0.00  0.00     0.254 C 
HETATM    8  O   UNK N   1      27.211  16.059   5.810  0.00  0.00    -0.268 OA
HETATM    9  N   UNK N   1      27.429  18.004   4.727  0.00  0.00    -0.353 N 
HETATM   10  H   UNK N   1      27.719  18.940   4.810  0.00  0.00     0.163 HD
BRANCH   9  11
HETATM   11  C   UNK N   1      26.753  17.629   3.521  0.00  0.00     0.161 C 
BRANCH  11  12
HETATM   12  C   UNK N   1      25.439  18.295   3.640  0.00  0.00    -0.041 A 
HETATM   13  C   UNK N   1      24.323  17.543   4.000  0.00  0.00     0.009 A 
HETATM   14  C   UNK N   1      23.048  18.099   3.889  0.00  0.00     0.017 A 
HETATM   15  C   UNK N   1      22.885  19.402   3.400  0.00  0.00     0.047 A 
HETATM   16  C   UNK N   1      24.011  20.161   3.056  0.00  0.00     0.017 A 
HETATM   17  C   UNK N   1      25.285  19.606   3.166  0.00  0.00     0.009 A 
BRANCH  15  18
HETATM   18  C   UNK N   1      21.506  19.954   3.223  0.00  0.00     0.417 C 
HETATM   19  F   UNK N   1      20.807  19.255   2.254  0.00  0.00    -0.166 F 
HETATM   20  F   UNK N   1      21.587  21.283   2.852  0.00  0.00    -0.166 F 
HETATM   21  F   UNK N   1      20.821  19.857   4.421  0.00  0.00    -0.166 F 
ENDBRANCH  15  18
ENDBRANCH  11  12
ENDBRANCH   9  11
ENDBRANCH   6   7
BRANCH   1  22
HETATM   22  O   UNK N   1      27.227  19.686   7.049  0.00  0.00    -0.355 OA
HETATM   23  C   UNK N   1      27.390  20.970   6.581  0.00  0.00     0.210 C 
ENDBRANCH   1  22
BRANCH   4  24
HETATM   24  C   UNK N   1      31.551  16.484   8.826  0.00  0.00     0.081 C 
BRANCH  24  25
HETATM   25  C   UNK N   1      32.819  16.557   7.972  0.00  0.00     0.230 A 
HETATM   26  C   UNK N   1      34.036  16.013   8.685  0.00  0.00     0.256 A 
HETATM   27  O   UNK N   1      34.204  14.856   9.035  0.00  0.00    -0.270 OA
HETATM   28  N   UNK N   1      34.950  16.963   8.874  0.00  0.00    -0.271 N 
HETATM   29  C   UNK N   1      34.428  18.071   8.357  0.00  0.00     0.368 A 
HETATM   30  H   UNK N   1      35.829  16.866   9.307  0.00  0.00     0.174 HD
HETATM   31  O   UNK N   1      35.004  19.147   8.365  0.00  0.00    -0.238 OA
HETATM   32  O   UNK N   1      33.202  17.887   7.828  0.00  0.00    -0.288 OA
ENDBRANCH  24  25
ENDBRANCH   4  24
TORSDOF 7
ENDMDL
MODEL 7
REMARK VINA RESULT:      -7.5      6.583      9.985
REMARK  7 active torsions:
REMARK  status: ('A' for Active; 'I' for Inactive)
REMARK    1  A    between atoms: O_2  and  C_3 
REMARK    2  A    between atoms: C_6  and  C_23 
REMARK    3  A    between atoms: C_8  and  C_9 
REMARK       I    between atoms: C_9  and  N_11 
REMARK    4  A    between atoms: N_11  and  C_12 
REMARK    5  A    between atoms: C_12  and  C_13 
REMARK    6  A    between atoms: C_16  and  C_19 
REMARK    7  A    between atoms: C_23  and  C_24 
ROOT
HETATM    1  C   UNK N   1      22.064  19.238   4.314  0.00  0.00     0.084 A 
HETATM    2  C   UNK N   1      23.041  19.625   3.390  0.00  0.00     0.038 A 
HETATM    3  C   UNK N   1      24.308  19.059   3.433  0.00  0.00     0.010 A 
HETATM    4  C   UNK N   1      24.612  18.057   4.362  0.00  0.00    -0.054 A 
HETATM    5  C   UNK N   1      23.641  17.650   5.278  0.00  0.00     0.027 A 
HETATM    6  C   UNK N   1      22.378  18.252   5.285  0.00  0.00     0.065 A 
ENDROOT
BRANCH   6   7
HETATM    7  C   UNK N   1      21.400  17.884   6.328  0.00  0.00     0.254 C 
HETATM    8  O   UNK N   1      20.993  18.709   7.134  0.00  0.00    -0.268 OA
HETATM    9  N   UNK N   1      20.924  16.622   6.331  0.00  0.00    -0.353 N 
HETATM   10  H   UNK N   1      21.165  16.047   5.570  0.00  0.00     0.163 HD
BRANCH   9  11
HETATM   11  C   UNK N   1      20.098  16.051   7.352  0.00  0.00     0.161 C 
BRANCH  11  12
HETATM   12  C   UNK N   1      21.026  15.176   8.099  0.00  0.00    -0.041 A 
HETATM   13  C   UNK N   1      22.175  14.704   7.468  0.00  0.00     0.009 A 
HETATM   14  C   UNK N   1      22.933  13.700   8.070  0.00  0.00     0.017 A 
HETATM   15  C   UNK N   1      22.534  13.152   9.297  0.00  0.00     0.047 A 
HETATM   16  C   UNK N   1      21.389  13.642   9.937  0.00  0.00     0.017 A 
HETATM   17  C   UNK N   1      20.631  14.645   9.335  0.00  0.00     0.009 A 
BRANCH  15  18
HETATM   18  C   UNK N   1      23.322  12.028   9.892  0.00  0.00     0.417 C 
HETATM   19  F   UNK N   1      22.521  11.213  10.672  0.00  0.00    -0.166 F 
HETATM   20  F   UNK N   1      24.340  12.543  10.672  0.00  0.00    -0.166 F 
HETATM   21  F   UNK N   1      23.869  11.268   8.873  0.00  0.00    -0.166 F 
ENDBRANCH  15  18
ENDBRANCH  11  12
ENDBRANCH   9  11
ENDBRANCH   6   7
BRANCH   1  22
HETATM   22  O   UNK N   1      20.817  19.775   4.263  0.00  0.00    -0.355 OA
HETATM   23  C   UNK N   1      20.315  20.433   3.163  0.00  0.00     0.210 C 
ENDBRANCH   1  22
BRANCH   4  24
HETATM   24  C   UNK N   1      25.978  17.443   4.441  0.00  0.00     0.081 C 
BRANCH  24  25
HETATM   25  C   UNK N   1      27.120  18.441   4.651  0.00  0.00     0.230 A 
HETATM   26  C   UNK N   1      28.470  17.770   4.761  0.00  0.00     0.256 A 
HETATM   27  O   UNK N   1      29.032  17.142   3.879  0.00  0.00    -0.270 OA
HETATM   28  N   UNK N   1      29.011  17.967   5.962  0.00  0.00    -0.271 N 
HETATM   29  C   UNK N   1      28.128  18.696   6.638  0.00  0.00     0.368 A 
HETATM   30  H   UNK N   1      29.882  17.641   6.284  0.00  0.00     0.174 HD
HETATM   31  O   UNK N   1      28.303  19.057   7.791  0.00  0.00    -0.238 OA
HETATM   32  O   UNK N   1      27.023  18.992   5.925  0.00  0.00    -0.288 OA
ENDBRANCH  24  25
ENDBRANCH   4  24
TORSDOF 7
ENDMDL
MODEL 8
REMARK VINA RESULT:      -7.4      7.319     11.394
REMARK  7 active torsions:
REMARK  status: ('A' for Active; 'I' for Inactive)
REMARK    1  A    between atoms: O_2  and  C_3 
REMARK    2  A    between atoms: C_6  and  C_23 
REMARK    3  A    between atoms: C_8  and  C_9 
REMARK       I    between atoms: C_9  and  N_11 
REMARK    4  A    between atoms: N_11  and  C_12 
REMARK    5  A    between atoms: C_12  and  C_13 
REMARK    6  A    between atoms: C_16  and  C_19 
REMARK    7  A    between atoms: C_23  and  C_24 
ROOT
HETATM    1  C   UNK N   1      35.190  14.343  11.697  0.00  0.00     0.084 A 
HETATM    2  C   UNK N   1      35.185  15.682  11.286  0.00  0.00     0.038 A 
HETATM    3  C   UNK N   1      35.173  16.000   9.935  0.00  0.00     0.010 A 
HETATM    4  C   UNK N   1      35.111  14.993   8.965  0.00  0.00    -0.054 A 
HETATM    5  C   UNK N   1      35.099  13.655   9.361  0.00  0.00     0.027 A 
HETATM    6  C   UNK N   1      35.169  13.317  10.717  0.00  0.00     0.065 A 
ENDROOT
BRANCH   6   7
HETATM    7  C   UNK N   1      35.261  11.897  11.112  0.00  0.00     0.254 C 
HETATM    8  O   UNK N   1      36.275  11.247  10.902  0.00  0.00    -0.268 OA
HETATM    9  N   UNK N   1      34.213  11.352  11.762  0.00  0.00    -0.353 N 
HETATM   10  H   UNK N   1      33.491  11.959  12.042  0.00  0.00     0.163 HD
BRANCH   9  11
HETATM   11  C   UNK N   1      34.065   9.963  12.078  0.00  0.00     0.161 C 
BRANCH  11  12
HETATM   12  C   UNK N   1      34.287   9.915  13.538  0.00  0.00    -0.041 A 
HETATM   13  C   UNK N   1      33.597  10.802  14.363  0.00  0.00     0.009 A 
HETATM   14  C   UNK N   1      33.963  10.931  15.703  0.00  0.00     0.017 A 
HETATM   15  C   UNK N   1      35.035  10.187  16.217  0.00  0.00     0.047 A 
HETATM   16  C   UNK N   1      35.714   9.284  15.389  0.00  0.00     0.017 A 
HETATM   17  C   UNK N   1      35.348   9.155  14.051  0.00  0.00     0.009 A 
BRANCH  15  18
HETATM   18  C   UNK N   1      35.457  10.391  17.638  0.00  0.00     0.417 C 
HETATM   19  F   UNK N   1      35.245  11.698  18.040  0.00  0.00    -0.166 F 
HETATM   20  F   UNK N   1      36.800  10.090  17.765  0.00  0.00    -0.166 F 
HETATM   21  F   UNK N   1      34.722   9.551  18.455  0.00  0.00    -0.166 F 
ENDBRANCH  15  18
ENDBRANCH  11  12
ENDBRANCH   9  11
ENDBRANCH   6   7
BRANCH   1  22
HETATM   22  O   UNK N   1      35.182  14.028  13.018  0.00  0.00    -0.355 OA
HETATM   23  C   UNK N   1      36.280  14.150  13.838  0.00  0.00     0.210 C 
ENDBRANCH   1  22
BRANCH   4  24
HETATM   24  C   UNK N   1      35.117  15.310   7.499  0.00  0.00     0.081 C 
BRANCH  24  25
HETATM   25  C   UNK N   1      33.779  15.804   6.943  0.00  0.00     0.230 A 
HETATM   26  C   UNK N   1      33.595  17.296   7.101  0.00  0.00     0.256 A 
HETATM   27  O   UNK N   1      34.266  18.161   6.562  0.00  0.00    -0.270 OA
HETATM   28  N   UNK N   1      32.569  17.574   7.902  0.00  0.00    -0.271 N 
HETATM   29  C   UNK N   1      32.080  16.397   8.281  0.00  0.00     0.368 A 
HETATM   30  H   UNK N   1      32.239  18.465   8.160  0.00  0.00     0.174 HD
HETATM   31  O   UNK N   1      31.125  16.281   9.032  0.00  0.00    -0.238 OA
HETATM   32  O   UNK N   1      32.746  15.349   7.755  0.00  0.00    -0.288 OA
ENDBRANCH  24  25
ENDBRANCH   4  24
TORSDOF 7
ENDMDL
MODEL 9
REMARK VINA RESULT:      -7.3     14.189     17.008
REMARK  7 active torsions:
REMARK  status: ('A' for Active; 'I' for Inactive)
REMARK    1  A    between atoms: O_2  and  C_3 
REMARK    2  A    between atoms: C_6  and  C_23 
REMARK    3  A    between atoms: C_8  and  C_9 
REMARK       I    between atoms: C_9  and  N_11 
REMARK    4  A    between atoms: N_11  and  C_12 
REMARK    5  A    between atoms: C_12  and  C_13 
REMARK    6  A    between atoms: C_16  and  C_19 
REMARK    7  A    between atoms: C_23  and  C_24 
ROOT
HETATM    1  C   UNK N   1      25.827  25.247  -5.356  0.00  0.00     0.084 A 
HETATM    2  C   UNK N   1      25.041  26.298  -5.843  0.00  0.00     0.038 A 
HETATM    3  C   UNK N   1      25.132  27.561  -5.274  0.00  0.00     0.010 A 
HETATM    4  C   UNK N   1      26.046  27.817  -4.245  0.00  0.00    -0.054 A 
HETATM    5  C   UNK N   1      26.848  26.781  -3.763  0.00  0.00     0.027 A 
HETATM    6  C   UNK N   1      26.727  25.489  -4.286  0.00  0.00     0.065 A 
ENDROOT
BRANCH   6   7
HETATM    7  C   UNK N   1      27.507  24.386  -3.693  0.00  0.00     0.254 C 
HETATM    8  O   UNK N   1      27.149  23.844  -2.656  0.00  0.00    -0.268 OA
HETATM    9  N   UNK N   1      28.597  23.953  -4.357  0.00  0.00    -0.353 N 
HETATM   10  H   UNK N   1      28.750  24.316  -5.259  0.00  0.00     0.163 HD
BRANCH   9  11
HETATM   11  C   UNK N   1      29.552  23.008  -3.858  0.00  0.00     0.161 C 
BRANCH  11  12
HETATM   12  C   UNK N   1      29.787  22.113  -5.011  0.00  0.00    -0.041 A 
HETATM   13  C   UNK N   1      29.017  22.266  -6.162  0.00  0.00     0.009 A 
HETATM   14  C   UNK N   1      29.061  21.293  -7.160  0.00  0.00     0.017 A 
HETATM   15  C   UNK N   1      29.863  20.154  -7.001  0.00  0.00     0.047 A 
HETATM   16  C   UNK N   1      30.649  20.013  -5.851  0.00  0.00     0.017 A 
HETATM   17  C   UNK N   1      30.604  20.985  -4.853  0.00  0.00     0.009 A 
BRANCH  15  18
HETATM   18  C   UNK N   1      29.843  19.088  -8.051  0.00  0.00     0.417 C 
HETATM   19  F   UNK N   1      31.116  18.604  -8.297  0.00  0.00    -0.166 F 
HETATM   20  F   UNK N   1      29.322  19.606  -9.221  0.00  0.00    -0.166 F 
HETATM   21  F   UNK N   1      29.046  18.042  -7.621  0.00  0.00    -0.166 F 
ENDBRANCH  15  18
ENDBRANCH  11  12
ENDBRANCH   9  11
ENDBRANCH   6   7
BRANCH   1  22
HETATM   22  O   UNK N   1      25.756  24.014  -5.923  0.00  0.00    -0.355 OA
HETATM   23  C   UNK N   1      25.794  23.797  -7.282  0.00  0.00     0.210 C 
ENDBRANCH   1  22
BRANCH   4  24
HETATM   24  C   UNK N   1      26.151  29.168  -3.601  0.00  0.00     0.081 C 
BRANCH  24  25
HETATM   25  C   UNK N   1      27.448  29.924  -3.900  0.00  0.00     0.230 A 
HETATM   26  C   UNK N   1      28.180  29.378  -5.104  0.00  0.00     0.256 A 
HETATM   27  O   UNK N   1      27.776  29.391  -6.255  0.00  0.00    -0.270 OA
HETATM   28  N   UNK N   1      29.369  28.883  -4.762  0.00  0.00    -0.271 N 
HETATM   29  C   UNK N   1      29.464  29.054  -3.447  0.00  0.00     0.368 A 
HETATM   30  H   UNK N   1      30.038  28.476  -5.358  0.00  0.00     0.174 HD
HETATM   31  O   UNK N   1      30.437  28.704  -2.797  0.00  0.00    -0.238 OA
HETATM   32  O   UNK N   1      28.381  29.648  -2.906  0.00  0.00    -0.288 OA
ENDBRANCH  24  25
ENDBRANCH   4  24
TORSDOF 7
ENDMDL
