MODEL 1
REMARK VINA RESULT:      -7.0      0.000      0.000
REMARK  9 active torsions:
REMARK  status: ('A' for Active; 'I' for Inactive)
REMARK    1  A    between atoms: C_2  and  N_5 
REMARK       I    between atoms: N_5  and  C_6 
REMARK       I    between atoms: C_6  and  N_30 
REMARK    2  A    between atoms: N_7  and  C_9 
REMARK    3  A    between atoms: C_13  and  C_15 
REMARK    4  A    between atoms: C_15  and  C_23 
REMARK    5  A    between atoms: C_16  and  C_17 
REMARK    6  A    between atoms: C_17  and  C_18 
REMARK    7  A    between atoms: C_18  and  C_19 
REMARK    8  A    between atoms: C_19  and  C_20 
REMARK    9  A    between atoms: C_20  and  O_22 
ROOT
HETATM    1  N   UNK N   1      33.580  14.490   9.617  0.00  0.00    -0.217 N 
HETATM    2  C   UNK N   1      33.110  15.526   8.773  0.00  0.00     0.688 C 
HETATM    3  N   UNK N   1      32.480  15.217   7.698  0.00  0.00    -0.191 N 
ATOM      4  HN  UNK N   1      32.136  14.261   7.602  1.00  0.00     0.184 HD
HETATM    5  N   UNK N   1      33.399  16.875   9.124  0.00  0.00    -0.126 N 
HETATM    6  C   UNK N   1      34.044  17.778   8.298  0.00  0.00     0.196 C 
HETATM    7  N   UNK N   1      34.581  18.546   7.618  0.00  0.00    -0.171 NA
HETATM    8  H   UNK N   1      33.009  13.698   9.748  0.00  0.00     0.178 HD
HETATM    9  H   UNK N   1      33.122  17.186  10.016  0.00  0.00     0.197 HD
ENDROOT
BRANCH   1  10
HETATM   10  C   UNK N   1      34.865  14.537  10.300  0.00  0.00     0.036 C 
HETATM   11  C   UNK N   1      35.966  14.705   9.273  0.00  0.00     0.038 C 
HETATM   12  C   UNK N   1      35.067  13.241  11.047  0.00  0.00     0.038 C 
HETATM   13  C   UNK N   1      35.008  15.701  11.277  0.00  0.00     0.038 C 
ENDBRANCH   1  10
BRANCH   3  14
HETATM   14  C   UNK N   1      32.234  16.121   6.639  0.00  0.00     0.050 C 
HETATM   15  C   UNK N   1      33.217  16.307   5.667  0.00  0.00     0.030 C 
HETATM   16  C   UNK N   1      32.978  17.108   4.559  0.00  0.00     0.003 C 
HETATM   17  C   UNK N   1      31.699  17.598   4.330  0.00  0.00     0.012 C 
HETATM   18  C   UNK N   1      30.669  17.310   5.226  0.00  0.00    -0.023 C 
HETATM   19  C   UNK N   1      30.968  16.606   6.408  0.00  0.00     0.042 C 
BRANCH  18  20
HETATM   20  C   UNK N   1      29.236  17.469   4.832  0.00  0.00    -0.018 C 
HETATM   21  C   UNK N   1      28.526  16.521   4.163  0.00  0.00    -0.014 C 
BRANCH  21  22
HETATM   22  C   UNK N   1      29.071  15.199   3.676  0.00  0.00     0.028 C 
BRANCH  22  23
HETATM   23  C   UNK N   1      28.966  14.103   4.723  0.00  0.00     0.014 C 
BRANCH  23  24
HETATM   24  C   UNK N   1      29.851  12.918   4.340  0.00  0.00     0.110 C 
BRANCH  24  25
HETATM   25  C   UNK N   1      31.298  13.084   4.702  0.00  0.00     0.139 C 
HETATM   26  O   UNK N   1      31.656  12.871   5.848  0.00  0.00    -0.650 OA
BRANCH  25  27
HETATM   27  O   UNK N   1      32.206  13.472   3.783  0.00  0.00    -0.776 OA
HETATM   28  H   UNK N   1      32.826  14.147   3.981  0.00  0.00     0.167 HD
ENDBRANCH  25  27
ENDBRANCH  24  25
ENDBRANCH  23  24
ENDBRANCH  22  23
ENDBRANCH  21  22
BRANCH  20  29
HETATM   29  C   UNK N   1      28.504  18.611   5.468  0.00  0.00    -0.010 A 
HETATM   30  C   UNK N   1      28.139  19.762   4.774  0.00  0.00     0.015 A 
HETATM   31  C   UNK N   1      27.461  20.782   5.451  0.00  0.00     0.018 A 
HETATM   32  C   UNK N   1      27.128  20.629   6.803  0.00  0.00     0.087 A 
HETATM   33  N   UNK N   1      27.441  19.486   7.455  0.00  0.00    -0.374 N 
HETATM   34  C   UNK N   1      28.103  18.495   6.819  0.00  0.00     0.099 A 
ATOM     35  HN  UNK N   1      27.177  19.372   8.433  1.00  0.00     0.164 HD
ENDBRANCH  20  29
ENDBRANCH  18  20
ENDBRANCH   3  14
TORSDOF 9
ENDMDL
MODEL 2
REMARK VINA RESULT:      -7.0      2.313      3.188
REMARK  9 active torsions:
REMARK  status: ('A' for Active; 'I' for Inactive)
REMARK    1  A    between atoms: C_2  and  N_5 
REMARK       I    between atoms: N_5  and  C_6 
REMARK       I    between atoms: C_6  and  N_30 
REMARK    2  A    between atoms: N_7  and  C_9 
REMARK    3  A    between atoms: C_13  and  C_15 
REMARK    4  A    between atoms: C_15  and  C_23 
REMARK    5  A    between atoms: C_16  and  C_17 
REMARK    6  A    between atoms: C_17  and  C_18 
REMARK    7  A    between atoms: C_18  and  C_19 
REMARK    8  A    between atoms: C_19  and  C_20 
REMARK    9  A    between atoms: C_20  and  O_22 
ROOT
HETATM    1  N   UNK N   1      34.857  12.764  11.424  0.00  0.00    -0.217 N 
HETATM    2  C   UNK N   1      34.367  13.854  10.663  0.00  0.00     0.688 C 
HETATM    3  N   UNK N   1      33.998  13.651   9.450  0.00  0.00    -0.191 N 
ATOM      4  HN  UNK N   1      33.850  12.687   9.148  1.00  0.00     0.184 HD
HETATM    5  N   UNK N   1      34.348  15.147  11.257  0.00  0.00    -0.126 N 
HETATM    6  C   UNK N   1      34.957  16.266  10.718  0.00  0.00     0.196 C 
HETATM    7  N   UNK N   1      35.461  17.211  10.279  0.00  0.00    -0.171 NA
HETATM    8  H   UNK N   1      34.421  11.887  11.321  0.00  0.00     0.178 HD
HETATM    9  H   UNK N   1      33.868  15.253  12.111  0.00  0.00     0.197 HD
ENDROOT
BRANCH   1  10
HETATM   10  C   UNK N   1      35.975  12.877  12.351  0.00  0.00     0.036 C 
HETATM   11  C   UNK N   1      37.188  13.393  11.603  0.00  0.00     0.038 C 
HETATM   12  C   UNK N   1      36.276  11.511  12.917  0.00  0.00     0.038 C 
HETATM   13  C   UNK N   1      35.734  13.851  13.501  0.00  0.00     0.038 C 
ENDBRANCH   1  10
BRANCH   3  14
HETATM   14  C   UNK N   1      33.785  14.682   8.506  0.00  0.00     0.050 C 
HETATM   15  C   UNK N   1      34.823  15.032   7.641  0.00  0.00     0.030 C 
HETATM   16  C   UNK N   1      34.623  15.968   6.635  0.00  0.00     0.003 C 
HETATM   17  C   UNK N   1      33.343  16.441   6.382  0.00  0.00     0.012 C 
HETATM   18  C   UNK N   1      32.269  15.998   7.154  0.00  0.00    -0.023 C 
HETATM   19  C   UNK N   1      32.518  15.151   8.250  0.00  0.00     0.042 C 
BRANCH  18  20
HETATM   20  C   UNK N   1      30.860  16.161   6.682  0.00  0.00    -0.018 C 
HETATM   21  C   UNK N   1      30.291  15.387   5.718  0.00  0.00    -0.014 C 
BRANCH  21  22
HETATM   22  C   UNK N   1      30.991  14.291   4.949  0.00  0.00     0.028 C 
BRANCH  22  23
HETATM   23  C   UNK N   1      30.927  14.501   3.446  0.00  0.00     0.014 C 
BRANCH  23  24
HETATM   24  C   UNK N   1      30.703  15.978   3.126  0.00  0.00     0.110 C 
BRANCH  24  25
HETATM   25  C   UNK N   1      31.963  16.790   3.044  0.00  0.00     0.139 C 
HETATM   26  O   UNK N   1      32.952  16.308   2.519  0.00  0.00    -0.650 OA
BRANCH  25  27
HETATM   27  O   UNK N   1      32.020  18.040   3.548  0.00  0.00    -0.776 OA
HETATM   28  H   UNK N   1      32.842  18.480   3.637  0.00  0.00     0.167 HD
ENDBRANCH  25  27
ENDBRANCH  24  25
ENDBRANCH  23  24
ENDBRANCH  22  23
ENDBRANCH  21  22
BRANCH  20  29
HETATM   29  C   UNK N   1      29.981  17.030   7.527  0.00  0.00    -0.010 A 
HETATM   30  C   UNK N   1      30.471  17.856   8.536  0.00  0.00     0.015 A 
HETATM   31  C   UNK N   1      29.575  18.630   9.282  0.00  0.00     0.018 A 
HETATM   32  C   UNK N   1      28.205  18.596   8.991  0.00  0.00     0.087 A 
HETATM   33  N   UNK N   1      27.744  17.830   7.976  0.00  0.00    -0.374 N 
HETATM   34  C   UNK N   1      28.595  17.070   7.252  0.00  0.00     0.099 A 
ATOM     35  HN  UNK N   1      26.749  17.826   7.756  1.00  0.00     0.164 HD
ENDBRANCH  20  29
ENDBRANCH  18  20
ENDBRANCH   3  14
TORSDOF 9
ENDMDL
MODEL 3
REMARK VINA RESULT:      -6.9      6.942      9.487
REMARK  9 active torsions:
REMARK  status: ('A' for Active; 'I' for Inactive)
REMARK    1  A    between atoms: C_2  and  N_5 
REMARK       I    between atoms: N_5  and  C_6 
REMARK       I    between atoms: C_6  and  N_30 
REMARK    2  A    between atoms: N_7  and  C_9 
REMARK    3  A    between atoms: C_13  and  C_15 
REMARK    4  A    between atoms: C_15  and  C_23 
REMARK    5  A    between atoms: C_16  and  C_17 
REMARK    6  A    between atoms: C_17  and  C_18 
REMARK    7  A    between atoms: C_18  and  C_19 
REMARK    8  A    between atoms: C_19  and  C_20 
REMARK    9  A    between atoms: C_20  and  O_22 
ROOT
HETATM    1  N   UNK N   1      22.663  13.567   9.365  0.00  0.00    -0.217 N 
HETATM    2  C   UNK N   1      23.276  14.110   8.208  0.00  0.00     0.688 C 
HETATM    3  N   UNK N   1      22.539  14.664   7.314  0.00  0.00    -0.191 N 
ATOM      4  HN  UNK N   1      21.579  14.902   7.564  1.00  0.00     0.184 HD
HETATM    5  N   UNK N   1      24.685  13.978   8.058  0.00  0.00    -0.126 N 
HETATM    6  C   UNK N   1      25.305  13.401   6.964  0.00  0.00     0.196 C 
HETATM    7  N   UNK N   1      25.838  12.922   6.055  0.00  0.00    -0.171 NA
HETATM    8  H   UNK N   1      21.910  14.056   9.769  0.00  0.00     0.178 HD
HETATM    9  H   UNK N   1      25.258  14.320   8.782  0.00  0.00     0.197 HD
ENDROOT
BRANCH   1  10
HETATM   10  C   UNK N   1      23.091  12.320   9.983  0.00  0.00     0.036 C 
HETATM   11  C   UNK N   1      23.132  11.232   8.929  0.00  0.00     0.038 C 
HETATM   12  C   UNK N   1      22.098  11.944  11.056  0.00  0.00     0.038 C 
HETATM   13  C   UNK N   1      24.488  12.377  10.596  0.00  0.00     0.038 C 
ENDBRANCH   1  10
BRANCH   3  14
HETATM   14  C   UNK N   1      22.979  14.964   6.004  0.00  0.00     0.050 C 
HETATM   15  C   UNK N   1      22.588  14.133   4.954  0.00  0.00     0.030 C 
HETATM   16  C   UNK N   1      22.913  14.447   3.641  0.00  0.00     0.003 C 
HETATM   17  C   UNK N   1      23.491  15.676   3.352  0.00  0.00     0.012 C 
HETATM   18  C   UNK N   1      23.767  16.577   4.381  0.00  0.00    -0.023 C 
HETATM   19  C   UNK N   1      23.549  16.181   5.714  0.00  0.00     0.042 C 
BRANCH  18  20
HETATM   20  C   UNK N   1      24.009  18.024   4.096  0.00  0.00    -0.018 C 
HETATM   21  C   UNK N   1      23.015  18.942   3.949  0.00  0.00    -0.014 C 
BRANCH  21  22
HETATM   22  C   UNK N   1      21.535  18.646   4.001  0.00  0.00     0.028 C 
BRANCH  22  23
HETATM   23  C   UNK N   1      20.947  18.366   2.628  0.00  0.00     0.014 C 
BRANCH  23  24
HETATM   24  C   UNK N   1      20.071  19.534   2.178  0.00  0.00     0.110 C 
BRANCH  24  25
HETATM   25  C   UNK N   1      20.773  20.533   1.304  0.00  0.00     0.139 C 
HETATM   26  O   UNK N   1      21.518  21.353   1.812  0.00  0.00    -0.650 OA
BRANCH  25  27
HETATM   27  O   UNK N   1      20.587  20.541  -0.032  0.00  0.00    -0.776 OA
HETATM   28  H   UNK N   1      19.731  20.417  -0.394  0.00  0.00     0.167 HD
ENDBRANCH  25  27
ENDBRANCH  24  25
ENDBRANCH  23  24
ENDBRANCH  22  23
ENDBRANCH  21  22
BRANCH  20  29
HETATM   29  C   UNK N   1      25.418  18.502   4.271  0.00  0.00    -0.010 A 
HETATM   30  C   UNK N   1      26.528  17.760   3.873  0.00  0.00     0.015 A 
HETATM   31  C   UNK N   1      27.809  18.282   4.083  0.00  0.00     0.018 A 
HETATM   32  C   UNK N   1      27.968  19.550   4.656  0.00  0.00     0.087 A 
HETATM   33  N   UNK N   1      26.882  20.285   4.991  0.00  0.00    -0.374 N 
HETATM   34  C   UNK N   1      25.638  19.792   4.804  0.00  0.00     0.099 A 
ATOM     35  HN  UNK N   1      27.004  21.216   5.388  1.00  0.00     0.164 HD
ENDBRANCH  20  29
ENDBRANCH  18  20
ENDBRANCH   3  14
TORSDOF 9
ENDMDL
MODEL 4
REMARK VINA RESULT:      -6.9      2.865      4.617
REMARK  9 active torsions:
REMARK  status: ('A' for Active; 'I' for Inactive)
REMARK    1  A    between atoms: C_2  and  N_5 
REMARK       I    between atoms: N_5  and  C_6 
REMARK       I    between atoms: C_6  and  N_30 
REMARK    2  A    between atoms: N_7  and  C_9 
REMARK    3  A    between atoms: C_13  and  C_15 
REMARK    4  A    between atoms: C_15  and  C_23 
REMARK    5  A    between atoms: C_16  and  C_17 
REMARK    6  A    between atoms: C_17  and  C_18 
REMARK    7  A    between atoms: C_18  and  C_19 
REMARK    8  A    between atoms: C_19  and  C_20 
REMARK    9  A    between atoms: C_20  and  O_22 
ROOT
HETATM    1  N   UNK N   1      34.754  12.777  11.348  0.00  0.00    -0.217 N 
HETATM    2  C   UNK N   1      34.354  13.906  10.590  0.00  0.00     0.688 C 
HETATM    3  N   UNK N   1      34.032  13.746   9.357  0.00  0.00    -0.191 N 
ATOM      4  HN  UNK N   1      33.850  12.797   9.028  1.00  0.00     0.184 HD
HETATM    5  N   UNK N   1      34.371  15.185  11.212  0.00  0.00    -0.126 N 
HETATM    6  C   UNK N   1      35.059  16.283  10.726  0.00  0.00     0.196 C 
HETATM    7  N   UNK N   1      35.629  17.210  10.332  0.00  0.00    -0.171 NA
HETATM    8  H   UNK N   1      34.280  11.925  11.205  0.00  0.00     0.178 HD
HETATM    9  H   UNK N   1      33.859  15.298  12.045  0.00  0.00     0.197 HD
ENDROOT
BRANCH   1  10
HETATM   10  C   UNK N   1      35.832  12.814  12.326  0.00  0.00     0.036 C 
HETATM   11  C   UNK N   1      35.435  13.729  13.467  0.00  0.00     0.038 C 
HETATM   12  C   UNK N   1      37.075  13.350  11.659  0.00  0.00     0.038 C 
HETATM   13  C   UNK N   1      36.149  11.459  12.954  0.00  0.00     0.038 C 
ENDBRANCH   1  10
BRANCH   3  14
HETATM   14  C   UNK N   1      33.913  14.805   8.429  0.00  0.00     0.050 C 
HETATM   15  C   UNK N   1      34.922  14.991   7.482  0.00  0.00     0.030 C 
HETATM   16  C   UNK N   1      34.797  15.954   6.491  0.00  0.00     0.003 C 
HETATM   17  C   UNK N   1      33.594  16.630   6.338  0.00  0.00     0.012 C 
HETATM   18  C   UNK N   1      32.527  16.360   7.195  0.00  0.00    -0.023 C 
HETATM   19  C   UNK N   1      32.722  15.475   8.272  0.00  0.00     0.042 C 
BRANCH  18  20
HETATM   20  C   UNK N   1      31.130  16.752   6.836  0.00  0.00    -0.018 C 
HETATM   21  C   UNK N   1      30.382  17.629   7.558  0.00  0.00    -0.014 C 
BRANCH  21  22
HETATM   22  C   UNK N   1      30.813  18.299   8.842  0.00  0.00     0.028 C 
BRANCH  22  23
HETATM   23  C   UNK N   1      29.638  18.662   9.734  0.00  0.00     0.014 C 
BRANCH  23  24
HETATM   24  C   UNK N   1      28.324  18.510   8.968  0.00  0.00     0.110 C 
BRANCH  24  25
HETATM   25  C   UNK N   1      27.684  17.159   9.101  0.00  0.00     0.139 C 
HETATM   26  O   UNK N   1      27.779  16.553  10.154  0.00  0.00    -0.650 OA
BRANCH  25  27
HETATM   27  O   UNK N   1      27.011  16.603   8.072  0.00  0.00    -0.776 OA
HETATM   28  H   UNK N   1      27.473  16.181   7.374  0.00  0.00     0.167 HD
ENDBRANCH  25  27
ENDBRANCH  24  25
ENDBRANCH  23  24
ENDBRANCH  22  23
ENDBRANCH  21  22
BRANCH  20  29
HETATM   29  C   UNK N   1      30.673  16.366   5.463  0.00  0.00    -0.010 A 
HETATM   30  C   UNK N   1      30.100  15.131   5.171  0.00  0.00     0.015 A 
HETATM   31  C   UNK N   1      29.707  14.853   3.857  0.00  0.00     0.018 A 
HETATM   32  C   UNK N   1      29.860  15.822   2.857  0.00  0.00     0.087 A 
HETATM   33  N   UNK N   1      30.370  17.037   3.161  0.00  0.00    -0.374 N 
HETATM   34  C   UNK N   1      30.762  17.319   4.422  0.00  0.00     0.099 A 
ATOM     35  HN  UNK N   1      30.459  17.746   2.433  1.00  0.00     0.164 HD
ENDBRANCH  20  29
ENDBRANCH  18  20
ENDBRANCH   3  14
TORSDOF 9
ENDMDL
MODEL 5
REMARK VINA RESULT:      -6.9      2.113      2.791
REMARK  9 active torsions:
REMARK  status: ('A' for Active; 'I' for Inactive)
REMARK    1  A    between atoms: C_2  and  N_5 
REMARK       I    between atoms: N_5  and  C_6 
REMARK       I    between atoms: C_6  and  N_30 
REMARK    2  A    between atoms: N_7  and  C_9 
REMARK    3  A    between atoms: C_13  and  C_15 
REMARK    4  A    between atoms: C_15  and  C_23 
REMARK    5  A    between atoms: C_16  and  C_17 
REMARK    6  A    between atoms: C_17  and  C_18 
REMARK    7  A    between atoms: C_18  and  C_19 
REMARK    8  A    between atoms: C_19  and  C_20 
REMARK    9  A    between atoms: C_20  and  O_22 
ROOT
HETATM    1  N   UNK N   1      34.585  12.911  10.904  0.00  0.00    -0.217 N 
HETATM    2  C   UNK N   1      34.192  14.101  10.243  0.00  0.00     0.688 C 
HETATM    3  N   UNK N   1      33.854  14.044   9.006  0.00  0.00    -0.191 N 
ATOM      4  HN  UNK N   1      33.655  13.127   8.605  1.00  0.00     0.184 HD
HETATM    5  N   UNK N   1      34.235  15.327  10.964  0.00  0.00    -0.126 N 
HETATM    6  C   UNK N   1      34.933  16.451  10.557  0.00  0.00     0.196 C 
HETATM    7  N   UNK N   1      35.511  17.399  10.231  0.00  0.00    -0.171 NA
HETATM    8  H   UNK N   1      34.097  12.080  10.701  0.00  0.00     0.178 HD
HETATM    9  H   UNK N   1      33.734  15.380  11.810  0.00  0.00     0.197 HD
ENDROOT
BRANCH   1  10
HETATM   10  C   UNK N   1      35.674  12.856  11.869  0.00  0.00     0.036 C 
HETATM   11  C   UNK N   1      36.007  11.406  12.159  0.00  0.00     0.038 C 
HETATM   12  C   UNK N   1      35.232  13.536  13.141  0.00  0.00     0.038 C 
HETATM   13  C   UNK N   1      36.969  13.503  11.382  0.00  0.00     0.038 C 
ENDBRANCH   1  10
BRANCH   3  14
HETATM   14  C   UNK N   1      33.740  15.175   8.165  0.00  0.00     0.050 C 
HETATM   15  C   UNK N   1      34.824  15.533   7.363  0.00  0.00     0.030 C 
HETATM   16  C   UNK N   1      34.720  16.574   6.451  0.00  0.00     0.003 C 
HETATM   17  C   UNK N   1      33.483  17.161   6.218  0.00  0.00     0.012 C 
HETATM   18  C   UNK N   1      32.358  16.723   6.918  0.00  0.00    -0.023 C 
HETATM   19  C   UNK N   1      32.516  15.757   7.930  0.00  0.00     0.042 C 
BRANCH  18  20
HETATM   20  C   UNK N   1      30.979  17.032   6.434  0.00  0.00    -0.018 C 
HETATM   21  C   UNK N   1      30.529  16.727   5.187  0.00  0.00    -0.014 C 
BRANCH  21  22
HETATM   22  C   UNK N   1      31.349  16.083   4.093  0.00  0.00     0.028 C 
BRANCH  22  23
HETATM   23  C   UNK N   1      31.351  14.566   4.183  0.00  0.00     0.014 C 
BRANCH  23  24
HETATM   24  C   UNK N   1      32.780  14.047   4.335  0.00  0.00     0.110 C 
BRANCH  24  25
HETATM   25  C   UNK N   1      32.932  12.942   5.341  0.00  0.00     0.139 C 
HETATM   26  O   UNK N   1      32.044  12.746   6.153  0.00  0.00    -0.650 OA
BRANCH  25  27
HETATM   27  O   UNK N   1      34.038  12.170   5.365  0.00  0.00    -0.776 OA
HETATM   28  H   UNK N   1      34.881  12.539   5.189  0.00  0.00     0.167 HD
ENDBRANCH  25  27
ENDBRANCH  24  25
ENDBRANCH  23  24
ENDBRANCH  22  23
ENDBRANCH  21  22
BRANCH  20  29
HETATM   29  C   UNK N   1      29.989  17.434   7.484  0.00  0.00    -0.010 A 
HETATM   30  C   UNK N   1      30.330  18.195   8.599  0.00  0.00     0.015 A 
HETATM   31  C   UNK N   1      29.340  18.518   9.534  0.00  0.00     0.018 A 
HETATM   32  C   UNK N   1      28.017  18.106   9.331  0.00  0.00     0.087 A 
HETATM   33  N   UNK N   1      27.686  17.411   8.218  0.00  0.00    -0.374 N 
HETATM   34  C   UNK N   1      28.631  17.083   7.310  0.00  0.00     0.099 A 
ATOM     35  HN  UNK N   1      26.718  17.132   8.065  1.00  0.00     0.164 HD
ENDBRANCH  20  29
ENDBRANCH  18  20
ENDBRANCH   3  14
TORSDOF 9
ENDMDL
MODEL 6
REMARK VINA RESULT:      -6.7      1.873      2.219
REMARK  9 active torsions:
REMARK  status: ('A' for Active; 'I' for Inactive)
REMARK    1  A    between atoms: C_2  and  N_5 
REMARK       I    between atoms: N_5  and  C_6 
REMARK       I    between atoms: C_6  and  N_30 
REMARK    2  A    between atoms: N_7  and  C_9 
REMARK    3  A    between atoms: C_13  and  C_15 
REMARK    4  A    between atoms: C_15  and  C_23 
REMARK    5  A    between atoms: C_16  and  C_17 
REMARK    6  A    between atoms: C_17  and  C_18 
REMARK    7  A    between atoms: C_18  and  C_19 
REMARK    8  A    between atoms: C_19  and  C_20 
REMARK    9  A    between atoms: C_20  and  O_22 
ROOT
HETATM    1  N   UNK N   1      33.454  14.142   9.238  0.00  0.00    -0.217 N 
HETATM    2  C   UNK N   1      32.938  15.229   8.490  0.00  0.00     0.688 C 
HETATM    3  N   UNK N   1      32.448  15.006   7.324  0.00  0.00    -0.191 N 
ATOM      4  HN  UNK N   1      32.234  14.041   7.070  1.00  0.00     0.184 HD
HETATM    5  N   UNK N   1      33.026  16.539   9.040  0.00  0.00    -0.126 N 
HETATM    6  C   UNK N   1      33.625  17.615   8.409  0.00  0.00     0.196 C 
HETATM    7  N   UNK N   1      34.122  18.524   7.894  0.00  0.00    -0.171 NA
HETATM    8  H   UNK N   1      32.976  13.282   9.205  0.00  0.00     0.178 HD
HETATM    9  H   UNK N   1      32.634  16.690   9.931  0.00  0.00     0.197 HD
ENDROOT
BRANCH   1  10
HETATM   10  C   UNK N   1      34.658  14.234  10.052  0.00  0.00     0.036 C 
HETATM   11  C   UNK N   1      35.795  14.758   9.197  0.00  0.00     0.038 C 
HETATM   12  C   UNK N   1      35.006  12.858  10.563  0.00  0.00     0.038 C 
HETATM   13  C   UNK N   1      34.537  15.190  11.236  0.00  0.00     0.038 C 
ENDBRANCH   1  10
BRANCH   3  14
HETATM   14  C   UNK N   1      32.187  16.017   6.371  0.00  0.00     0.050 C 
HETATM   15  C   UNK N   1      33.165  16.320   5.422  0.00  0.00     0.030 C 
HETATM   16  C   UNK N   1      32.912  17.234   4.408  0.00  0.00     0.003 C 
HETATM   17  C   UNK N   1      31.627  17.731   4.237  0.00  0.00     0.012 C 
HETATM   18  C   UNK N   1      30.603  17.333   5.098  0.00  0.00    -0.023 C 
HETATM   19  C   UNK N   1      30.915  16.509   6.196  0.00  0.00     0.042 C 
BRANCH  18  20
HETATM   20  C   UNK N   1      29.167  17.517   4.727  0.00  0.00    -0.018 C 
HETATM   21  C   UNK N   1      28.440  16.595   4.041  0.00  0.00    -0.014 C 
BRANCH  21  22
HETATM   22  C   UNK N   1      28.967  15.283   3.510  0.00  0.00     0.028 C 
BRANCH  22  23
HETATM   23  C   UNK N   1      28.539  15.020   2.076  0.00  0.00     0.014 C 
BRANCH  23  24
HETATM   24  C   UNK N   1      27.018  15.099   1.953  0.00  0.00     0.110 C 
BRANCH  24  25
HETATM   25  C   UNK N   1      26.290  13.913   2.519  0.00  0.00     0.139 C 
HETATM   26  O   UNK N   1      26.414  12.825   1.984  0.00  0.00    -0.650 OA
BRANCH  25  27
HETATM   27  O   UNK N   1      25.497  14.036   3.603  0.00  0.00    -0.776 OA
HETATM   28  H   UNK N   1      25.761  13.682   4.429  0.00  0.00     0.167 HD
ENDBRANCH  25  27
ENDBRANCH  24  25
ENDBRANCH  23  24
ENDBRANCH  22  23
ENDBRANCH  21  22
BRANCH  20  29
HETATM   29  C   UNK N   1      28.454  18.647   5.405  0.00  0.00    -0.010 A 
HETATM   30  C   UNK N   1      28.066  19.809   4.742  0.00  0.00     0.015 A 
HETATM   31  C   UNK N   1      27.409  20.816   5.456  0.00  0.00     0.018 A 
HETATM   32  C   UNK N   1      27.118  20.641   6.815  0.00  0.00     0.087 A 
HETATM   33  N   UNK N   1      27.452  19.487   7.438  0.00  0.00    -0.374 N 
HETATM   34  C   UNK N   1      28.095  18.508   6.765  0.00  0.00     0.099 A 
ATOM     35  HN  UNK N   1      27.218  19.356   8.421  1.00  0.00     0.164 HD
ENDBRANCH  20  29
ENDBRANCH  18  20
ENDBRANCH   3  14
TORSDOF 9
ENDMDL
MODEL 7
REMARK VINA RESULT:      -6.6      7.015      9.405
REMARK  9 active torsions:
REMARK  status: ('A' for Active; 'I' for Inactive)
REMARK    1  A    between atoms: C_2  and  N_5 
REMARK       I    between atoms: N_5  and  C_6 
REMARK       I    between atoms: C_6  and  N_30 
REMARK    2  A    between atoms: N_7  and  C_9 
REMARK    3  A    between atoms: C_13  and  C_15 
REMARK    4  A    between atoms: C_15  and  C_23 
REMARK    5  A    between atoms: C_16  and  C_17 
REMARK    6  A    between atoms: C_17  and  C_18 
REMARK    7  A    between atoms: C_18  and  C_19 
REMARK    8  A    between atoms: C_19  and  C_20 
REMARK    9  A    between atoms: C_20  and  O_22 
ROOT
HETATM    1  N   UNK N   1      27.566  17.168   6.432  0.00  0.00    -0.217 N 
HETATM    2  C   UNK N   1      26.462  16.994   5.561  0.00  0.00     0.688 C 
HETATM    3  N   UNK N   1      25.388  16.457   6.017  0.00  0.00    -0.191 N 
ATOM      4  HN  UNK N   1      25.279  16.386   7.028  1.00  0.00     0.184 HD
HETATM    5  N   UNK N   1      26.602  17.378   4.199  0.00  0.00    -0.126 N 
HETATM    6  C   UNK N   1      26.377  16.539   3.121  0.00  0.00     0.196 C 
HETATM    7  N   UNK N   1      26.192  15.849   2.210  0.00  0.00    -0.171 NA
HETATM    8  H   UNK N   1      27.391  17.442   7.362  0.00  0.00     0.178 HD
HETATM    9  H   UNK N   1      26.878  18.304   4.008  0.00  0.00     0.197 HD
ENDROOT
BRANCH   1  10
HETATM   10  C   UNK N   1      28.947  16.960   6.021  0.00  0.00     0.036 C 
HETATM   11  C   UNK N   1      29.091  15.561   5.455  0.00  0.00     0.038 C 
HETATM   12  C   UNK N   1      29.842  17.109   7.227  0.00  0.00     0.038 C 
HETATM   13  C   UNK N   1      29.422  17.914   4.928  0.00  0.00     0.038 C 
ENDBRANCH   1  10
BRANCH   3  14
HETATM   14  C   UNK N   1      24.348  15.958   5.200  0.00  0.00     0.050 C 
HETATM   15  C   UNK N   1      24.284  14.586   4.949  0.00  0.00     0.030 C 
HETATM   16  C   UNK N   1      23.224  14.043   4.237  0.00  0.00     0.003 C 
HETATM   17  C   UNK N   1      22.137  14.842   3.908  0.00  0.00     0.012 C 
HETATM   18  C   UNK N   1      22.125  16.189   4.269  0.00  0.00    -0.023 C 
HETATM   19  C   UNK N   1      23.268  16.745   4.875  0.00  0.00     0.042 C 
BRANCH  18  20
HETATM   20  C   UNK N   1      20.851  16.971   4.295  0.00  0.00    -0.018 C 
HETATM   21  C   UNK N   1      19.898  16.831   5.256  0.00  0.00    -0.014 C 
BRANCH  21  22
HETATM   22  C   UNK N   1      19.948  15.850   6.403  0.00  0.00     0.028 C 
BRANCH  22  23
HETATM   23  C   UNK N   1      20.728  16.383   7.593  0.00  0.00     0.014 C 
BRANCH  23  24
HETATM   24  C   UNK N   1      19.821  16.482   8.819  0.00  0.00     0.110 C 
BRANCH  24  25
HETATM   25  C   UNK N   1      19.259  17.853   9.063  0.00  0.00     0.139 C 
HETATM   26  O   UNK N   1      20.013  18.809   9.107  0.00  0.00    -0.650 OA
BRANCH  25  27
HETATM   27  O   UNK N   1      17.935  18.040   9.241  0.00  0.00    -0.776 OA
HETATM   28  H   UNK N   1      17.524  17.798  10.048  0.00  0.00     0.167 HD
ENDBRANCH  25  27
ENDBRANCH  24  25
ENDBRANCH  23  24
ENDBRANCH  22  23
ENDBRANCH  21  22
BRANCH  20  29
HETATM   29  C   UNK N   1      20.785  18.149   3.373  0.00  0.00    -0.010 A 
HETATM   30  C   UNK N   1      21.151  19.437   3.757  0.00  0.00     0.015 A 
HETATM   31  C   UNK N   1      21.050  20.481   2.830  0.00  0.00     0.018 A 
HETATM   32  C   UNK N   1      20.618  20.223   1.523  0.00  0.00     0.087 A 
HETATM   33  N   UNK N   1      20.315  18.960   1.145  0.00  0.00    -0.374 N 
HETATM   34  C   UNK N   1      20.398  17.942   2.029  0.00  0.00     0.099 A 
ATOM     35  HN  UNK N   1      20.021  18.775   0.186  1.00  0.00     0.164 HD
ENDBRANCH  20  29
ENDBRANCH  18  20
ENDBRANCH   3  14
TORSDOF 9
ENDMDL
MODEL 8
REMARK VINA RESULT:      -6.5      6.583      9.016
REMARK  9 active torsions:
REMARK  status: ('A' for Active; 'I' for Inactive)
REMARK    1  A    between atoms: C_2  and  N_5 
REMARK       I    between atoms: N_5  and  C_6 
REMARK       I    between atoms: C_6  and  N_30 
REMARK    2  A    between atoms: N_7  and  C_9 
REMARK    3  A    between atoms: C_13  and  C_15 
REMARK    4  A    between atoms: C_15  and  C_23 
REMARK    5  A    between atoms: C_16  and  C_17 
REMARK    6  A    between atoms: C_17  and  C_18 
REMARK    7  A    between atoms: C_18  and  C_19 
REMARK    8  A    between atoms: C_19  and  C_20 
REMARK    9  A    between atoms: C_20  and  O_22 
ROOT
HETATM    1  N   UNK N   1      23.068  13.506   9.131  0.00  0.00    -0.217 N 
HETATM    2  C   UNK N   1      23.687  14.044   7.976  0.00  0.00     0.688 C 
HETATM    3  N   UNK N   1      22.969  14.689   7.128  0.00  0.00    -0.191 N 
ATOM      4  HN  UNK N   1      22.039  14.992   7.419  1.00  0.00     0.184 HD
HETATM    5  N   UNK N   1      25.075  13.807   7.773  0.00  0.00    -0.126 N 
HETATM    6  C   UNK N   1      25.612  13.227   6.637  0.00  0.00     0.196 C 
HETATM    7  N   UNK N   1      26.077  12.743   5.694  0.00  0.00    -0.171 NA
HETATM    8  H   UNK N   1      22.370  14.037   9.579  0.00  0.00     0.178 HD
HETATM    9  H   UNK N   1      25.696  14.074   8.488  0.00  0.00     0.197 HD
ENDROOT
BRANCH   1  10
HETATM   10  C   UNK N   1      23.414  12.206   9.689  0.00  0.00     0.036 C 
HETATM   11  C   UNK N   1      22.337  11.785  10.669  0.00  0.00     0.038 C 
HETATM   12  C   UNK N   1      24.734  12.321  10.411  0.00  0.00     0.038 C 
HETATM   13  C   UNK N   1      23.509  11.089   8.652  0.00  0.00     0.038 C 
ENDBRANCH   1  10
BRANCH   3  14
HETATM   14  C   UNK N   1      23.390  15.004   5.816  0.00  0.00     0.050 C 
HETATM   15  C   UNK N   1      23.003  14.173   4.764  0.00  0.00     0.030 C 
HETATM   16  C   UNK N   1      23.309  14.501   3.450  0.00  0.00     0.003 C 
HETATM   17  C   UNK N   1      23.863  15.742   3.163  0.00  0.00     0.012 C 
HETATM   18  C   UNK N   1      24.134  16.642   4.195  0.00  0.00    -0.023 C 
HETATM   19  C   UNK N   1      23.935  16.234   5.528  0.00  0.00     0.042 C 
BRANCH  18  20
HETATM   20  C   UNK N   1      24.347  18.094   3.916  0.00  0.00    -0.018 C 
HETATM   21  C   UNK N   1      23.340  18.967   3.644  0.00  0.00    -0.014 C 
BRANCH  21  22
HETATM   22  C   UNK N   1      21.876  18.610   3.533  0.00  0.00     0.028 C 
BRANCH  22  23
HETATM   23  C   UNK N   1      21.105  18.906   4.808  0.00  0.00     0.014 C 
BRANCH  23  24
HETATM   24  C   UNK N   1      20.853  17.616   5.587  0.00  0.00     0.110 C 
BRANCH  24  25
HETATM   25  C   UNK N   1      20.855  17.783   7.079  0.00  0.00     0.139 C 
HETATM   26  O   UNK N   1      20.738  18.899   7.555  0.00  0.00    -0.650 OA
BRANCH  25  27
HETATM   27  O   UNK N   1      20.993  16.721   7.899  0.00  0.00    -0.776 OA
HETATM   28  H   UNK N   1      20.567  15.910   7.702  0.00  0.00     0.167 HD
ENDBRANCH  25  27
ENDBRANCH  24  25
ENDBRANCH  23  24
ENDBRANCH  22  23
ENDBRANCH  21  22
BRANCH  20  29
HETATM   29  C   UNK N   1      25.706  18.633   4.243  0.00  0.00    -0.010 A 
HETATM   30  C   UNK N   1      26.878  17.903   4.057  0.00  0.00     0.015 A 
HETATM   31  C   UNK N   1      28.105  18.484   4.396  0.00  0.00     0.018 A 
HETATM   32  C   UNK N   1      28.152  19.796   4.885  0.00  0.00     0.087 A 
HETATM   33  N   UNK N   1      27.014  20.514   5.013  0.00  0.00    -0.374 N 
HETATM   34  C   UNK N   1      25.819  19.966   4.699  0.00  0.00     0.099 A 
ATOM     35  HN  UNK N   1      27.056  21.476   5.349  1.00  0.00     0.164 HD
ENDBRANCH  20  29
ENDBRANCH  18  20
ENDBRANCH   3  14
TORSDOF 9
ENDMDL
MODEL 9
REMARK VINA RESULT:      -6.3      5.147      8.412
REMARK  9 active torsions:
REMARK  status: ('A' for Active; 'I' for Inactive)
REMARK    1  A    between atoms: C_2  and  N_5 
REMARK       I    between atoms: N_5  and  C_6 
REMARK       I    between atoms: C_6  and  N_30 
REMARK    2  A    between atoms: N_7  and  C_9 
REMARK    3  A    between atoms: C_13  and  C_15 
REMARK    4  A    between atoms: C_15  and  C_23 
REMARK    5  A    between atoms: C_16  and  C_17 
REMARK    6  A    between atoms: C_17  and  C_18 
REMARK    7  A    between atoms: C_18  and  C_19 
REMARK    8  A    between atoms: C_19  and  C_20 
REMARK    9  A    between atoms: C_20  and  O_22 
ROOT
HETATM    1  N   UNK N   1      23.106  14.079   7.934  0.00  0.00    -0.217 N 
HETATM    2  C   UNK N   1      24.260  14.394   7.175  0.00  0.00     0.688 C 
HETATM    3  N   UNK N   1      24.309  15.517   6.553  0.00  0.00    -0.191 N 
ATOM      4  HN  UNK N   1      23.631  16.237   6.808  1.00  0.00     0.184 HD
HETATM    5  N   UNK N   1      25.303  13.431   7.088  0.00  0.00    -0.126 N 
HETATM    6  C   UNK N   1      25.813  12.933   5.902  0.00  0.00     0.196 C 
HETATM    7  N   UNK N   1      26.249  12.507   4.918  0.00  0.00    -0.171 NA
HETATM    8  H   UNK N   1      22.676  14.798   8.452  0.00  0.00     0.178 HD
HETATM    9  H   UNK N   1      25.689  13.095   7.929  0.00  0.00     0.197 HD
ENDROOT
BRANCH   1  10
HETATM   10  C   UNK N   1      22.525  12.745   7.987  0.00  0.00     0.036 C 
HETATM   11  C   UNK N   1      22.180  12.299   6.580  0.00  0.00     0.038 C 
HETATM   12  C   UNK N   1      21.268  12.794   8.821  0.00  0.00     0.038 C 
HETATM   13  C   UNK N   1      23.460  11.681   8.556  0.00  0.00     0.038 C 
ENDBRANCH   1  10
BRANCH   3  14
HETATM   14  C   UNK N   1      25.245  15.817   5.537  0.00  0.00     0.050 C 
HETATM   15  C   UNK N   1      24.849  15.715   4.203  0.00  0.00     0.030 C 
HETATM   16  C   UNK N   1      25.704  16.096   3.178  0.00  0.00     0.003 C 
HETATM   17  C   UNK N   1      26.900  16.733   3.482  0.00  0.00     0.012 C 
HETATM   18  C   UNK N   1      27.250  16.963   4.813  0.00  0.00    -0.023 C 
HETATM   19  C   UNK N   1      26.429  16.450   5.835  0.00  0.00     0.042 C 
BRANCH  18  20
HETATM   20  C   UNK N   1      28.297  17.967   5.173  0.00  0.00    -0.018 C 
HETATM   21  C   UNK N   1      28.290  19.256   4.737  0.00  0.00    -0.014 C 
BRANCH  21  22
HETATM   22  C   UNK N   1      27.272  19.857   3.797  0.00  0.00     0.028 C 
BRANCH  22  23
HETATM   23  C   UNK N   1      26.099  20.486   4.531  0.00  0.00     0.014 C 
BRANCH  23  24
HETATM   24  C   UNK N   1      24.841  19.639   4.343  0.00  0.00     0.110 C 
BRANCH  24  25
HETATM   25  C   UNK N   1      23.928  20.123   3.254  0.00  0.00     0.139 C 
HETATM   26  O   UNK N   1      22.794  19.681   3.184  0.00  0.00    -0.650 OA
BRANCH  25  27
HETATM   27  O   UNK N   1      24.345  21.031   2.348  0.00  0.00    -0.776 OA
HETATM   28  H   UNK N   1      23.975  21.892   2.332  0.00  0.00     0.167 HD
ENDBRANCH  25  27
ENDBRANCH  24  25
ENDBRANCH  23  24
ENDBRANCH  22  23
ENDBRANCH  21  22
BRANCH  20  29
HETATM   29  C   UNK N   1      29.216  17.585   6.293  0.00  0.00    -0.010 A 
HETATM   30  C   UNK N   1      29.205  18.215   7.535  0.00  0.00     0.015 A 
HETATM   31  C   UNK N   1      30.105  17.796   8.521  0.00  0.00     0.018 A 
HETATM   32  C   UNK N   1      30.982  16.733   8.269  0.00  0.00     0.087 A 
HETATM   33  N   UNK N   1      30.949  16.094   7.077  0.00  0.00    -0.374 N 
HETATM   34  C   UNK N   1      30.093  16.491   6.111  0.00  0.00     0.099 A 
ATOM     35  HN  UNK N   1      31.575  15.307   6.907  1.00  0.00     0.164 HD
ENDBRANCH  20  29
ENDBRANCH  18  20
ENDBRANCH   3  14
TORSDOF 9
ENDMDL
