REMARK  7 active torsions:
REMARK  status: ('A' for Active; 'I' for Inactive)
REMARK    1  A    between atoms: C_2  and  C_5 
REMARK    2  A    between atoms: C_5  and  C_7 
REMARK    3  A    between atoms: C_7  and  N_8 
REMARK    4  A    between atoms: C_15  and  C_33 
REMARK    5  A    between atoms: C_18  and  N_21 
REMARK       I    between atoms: N_21  and  C_22 
REMARK       I    between atoms: C_22  and  N_24 
REMARK    6  A    between atoms: N_24  and  C_25 
REMARK    7  A    between atoms: C_29  and  N_31 
ROOT
HETATM    1  N   UNK N   1       0.514  -1.726   0.027  0.00  0.00    -0.307 N 
HETATM    2  C   UNK N   1      -0.385  -0.805   0.697  0.00  0.00     0.050 A 
HETATM    3  C   UNK N   1      -1.367  -1.386   1.533  0.00  0.00     0.031 A 
HETATM    4  C   UNK N   1      -2.351  -0.646   2.172  0.00  0.00     0.002 A 
HETATM    5  C   UNK N   1      -2.397   0.720   1.996  0.00  0.00     0.001 A 
HETATM    6  C   UNK N   1      -1.454   1.335   1.189  0.00  0.00     0.016 A 
HETATM    7  C   UNK N   1      -0.432   0.634   0.515  0.00  0.00     0.020 A 
HETATM    8  C   UNK N   1       0.479   1.499  -0.340  0.00  0.00     0.069 C 
HETATM    9  N   UNK N   1       1.622   1.114  -0.774  0.00  0.00    -0.358 N 
ATOM     10  HN  UNK N   1       2.076   1.738  -1.441  1.00  0.00     0.162 HD
HETATM   11  C   UNK N   1       2.340  -0.072  -0.446  0.00  0.00     0.280 C 
HETATM   12  C   UNK N   1       1.681  -1.385  -0.593  0.00  0.00     0.267 C 
HETATM   13  O   UNK N   1       2.310  -2.238  -1.205  0.00  0.00    -0.269 OA
ENDROOT
BRANCH  11  14
HETATM   14  N   UNK N   1       3.088   0.076   0.784  0.00  0.00    -0.313 N 
HETATM   15  C   UNK N   1       4.024   1.052   0.914  0.00  0.00     0.322 C 
HETATM   16  O   UNK N   1       4.684   1.121   1.941  0.00  0.00    -0.247 OA
HETATM   17  N   UNK N   1       4.192   1.969  -0.077  0.00  0.00    -0.309 N 
HETATM   18  H   UNK N   1       3.559   1.934  -0.831  0.00  0.00     0.170 HD
HETATM   19  H   UNK N   1       2.917  -0.537   1.535  0.00  0.00     0.166 HD
BRANCH  17  20
HETATM   20  C   UNK N   1       5.194   2.970  -0.123  0.00  0.00     0.038 A 
HETATM   21  C   UNK N   1       4.867   4.222  -0.650  0.00  0.00     0.029 A 
HETATM   22  C   UNK N   1       5.832   5.224  -0.742  0.00  0.00     0.004 A 
HETATM   23  C   UNK N   1       7.145   4.965  -0.345  0.00  0.00     0.029 A 
HETATM   24  C   UNK N   1       7.496   3.702   0.157  0.00  0.00     0.029 A 
HETATM   25  C   UNK N   1       6.516   2.708   0.276  0.00  0.00     0.058 A 
BRANCH  24  26
HETATM   26  N   UNK N   1       8.834   3.414   0.526  0.00  0.00    -0.394 N 
HETATM   27  C   UNK N   1       9.890   4.387   0.398  0.00  0.00     0.146 C 
HETATM   28  H   UNK N   1       9.048   2.521   0.882  0.00  0.00     0.159 HD
ENDBRANCH  24  26
ENDBRANCH  17  20
ENDBRANCH  11  14
BRANCH   8  29
HETATM   29  C   UNK N   1       0.194   2.958  -0.556  0.00  0.00     0.059 A 
HETATM   30  C   UNK N   1      -1.098   3.503  -0.503  0.00  0.00     0.032 A 
HETATM   31  C   UNK N   1      -1.275   4.883  -0.610  0.00  0.00     0.004 A 
HETATM   32  C   UNK N   1      -0.166   5.717  -0.744  0.00  0.00     0.017 A 
HETATM   33  C   UNK N   1       1.106   5.151  -0.801  0.00  0.00     0.088 A 
HETATM   34  N   UNK N   1       1.256   3.802  -0.719  0.00  0.00    -0.364 N 
ATOM     35  HN  UNK N   1       2.194   3.407  -0.781  1.00  0.00     0.165 HD
ENDBRANCH   8  29
BRANCH   1  36
HETATM   36  C   UNK N   1       0.222  -3.161   0.070  0.00  0.00     0.211 C 
BRANCH  36  37
HETATM   37  C   UNK N   1      -1.106  -3.552  -0.519  0.00  0.00     0.152 C 
HETATM   38  O   UNK N   1      -1.415  -3.137  -1.626  0.00  0.00    -0.295 OA
BRANCH  37  39
HETATM   39  C   UNK N   1      -2.041  -4.487   0.227  0.00  0.00     0.011 C 
HETATM   40  C   UNK N   1      -2.285  -5.731  -0.607  0.00  0.00     0.022 C 
HETATM   41  C   UNK N   1      -1.473  -4.931   1.569  0.00  0.00     0.022 C 
HETATM   42  C   UNK N   1      -3.370  -3.803   0.481  0.00  0.00     0.022 C 
ENDBRANCH  37  39
ENDBRANCH  36  37
ENDBRANCH   1  36
TORSDOF 7
