MODEL 1
REMARK VINA RESULT:      -8.1      0.000      0.000
REMARK  7 active torsions:
REMARK  status: ('A' for Active; 'I' for Inactive)
REMARK    1  A    between atoms: C_6  and  N_8 
REMARK    2  A    between atoms: N_8  and  N_9 
REMARK       I    between atoms: N_9  and  C_10 
REMARK    3  A    between atoms: C_10  and  C_12 
REMARK    4  A    between atoms: C_13  and  N_14 
REMARK    5  A    between atoms: C_18  and  C_21 
REMARK    6  A    between atoms: C_23  and  C_31 
REMARK    7  A    between atoms: C_25  and  C_27 
ROOT
HETATM    1  N   UNK N   1      29.882  15.247   3.345  0.00  0.00    -0.261 N 
HETATM    2  C   UNK N   1      29.570  16.300   2.554  0.00  0.00     0.207 A 
HETATM    3  N   UNK N   1      29.124  17.329   3.307  0.00  0.00    -0.335 N 
ATOM      4  HN  UNK N   1      28.816  18.251   2.999  1.00  0.00     0.168 HD
HETATM    5  C   UNK N   1      29.185  16.845   4.564  0.00  0.00     0.131 A 
HETATM    6  N   UNK N   1      29.632  15.579   4.589  0.00  0.00    -0.278 N 
ATOM      7  HN  UNK N   1      29.755  14.991   5.414  1.00  0.00     0.189 HD
ENDROOT
BRANCH   1   8
HETATM    8  C   UNK N   1      30.527  14.009   2.993  0.00  0.00     0.123 C 
HETATM    9  C   UNK N   1      31.863  13.900   2.931  0.00  0.00     0.095 C 
BRANCH   9  10
HETATM   10  C   UNK N   1      32.705  15.008   3.390  0.00  0.00     0.261 C 
HETATM   11  N   UNK N   1      33.101  14.999   4.672  0.00  0.00    -0.265 N 
HETATM   12  H   UNK N   1      32.616  14.440   5.321  0.00  0.00     0.190 HD
HETATM   13  O   UNK N   1      33.235  15.756   2.577  0.00  0.00    -0.267 OA
BRANCH  11  14
HETATM   14  N   UNK N   1      34.166  15.751   5.101  0.00  0.00    -0.283 N 
HETATM   15  H   UNK N   1      34.970  15.842   4.542  0.00  0.00     0.188 HD
BRANCH  14  16
HETATM   16  C   UNK N   1      34.086  16.391   6.357  0.00  0.00     0.119 A 
HETATM   17  N   UNK N   1      34.805  15.916   7.409  0.00  0.00    -0.351 N 
HETATM   18  C   UNK N   1      34.711  16.486   8.642  0.00  0.00     0.089 A 
ATOM     19  HN  UNK N   1      35.426  15.119   7.271  1.00  0.00     0.166 HD
HETATM   20  C   UNK N   1      33.867  17.580   8.850  0.00  0.00     0.017 A 
HETATM   21  C   UNK N   1      33.119  18.080   7.786  0.00  0.00     0.005 A 
HETATM   22  C   UNK N   1      33.221  17.480   6.535  0.00  0.00     0.050 A 
ENDBRANCH  14  16
ENDBRANCH  11  14
ENDBRANCH   9  10
ENDBRANCH   1   8
BRANCH   5  23
HETATM   23  C   UNK N   1      28.915  17.594   5.787  0.00  0.00     0.011 A 
HETATM   24  C   UNK N   1      29.340  17.173   7.056  0.00  0.00     0.031 A 
HETATM   25  C   UNK N   1      28.996  17.931   8.192  0.00  0.00     0.049 A 
HETATM   26  C   UNK N   1      28.222  19.097   8.039  0.00  0.00     0.032 A 
HETATM   27  C   UNK N   1      27.802  19.505   6.767  0.00  0.00     0.049 A 
HETATM   28  C   UNK N   1      28.153  18.748   5.661  0.00  0.00     0.031 A 
BRANCH  25  29
HETATM   29  C   UNK N   1      29.462  17.503   9.555  0.00  0.00     0.417 C 
HETATM   30  F   UNK N   1      29.810  18.614  10.303  0.00  0.00    -0.166 F 
HETATM   31  F   UNK N   1      30.563  16.667   9.464  0.00  0.00    -0.166 F 
HETATM   32  F   UNK N   1      28.445  16.824  10.201  0.00  0.00    -0.166 F 
ENDBRANCH  25  29
BRANCH  27  33
HETATM   33  C   UNK N   1      26.982  20.744   6.572  0.00  0.00     0.417 C 
HETATM   34  F   UNK N   1      26.081  20.548   5.544  0.00  0.00    -0.166 F 
HETATM   35  F   UNK N   1      27.792  21.824   6.250  0.00  0.00    -0.166 F 
HETATM   36  F   UNK N   1      26.302  21.035   7.738  0.00  0.00    -0.166 F 
ENDBRANCH  27  33
ENDBRANCH   5  23
TORSDOF 7
ENDMDL
MODEL 2
REMARK VINA RESULT:      -8.0      8.519     10.804
REMARK  7 active torsions:
REMARK  status: ('A' for Active; 'I' for Inactive)
REMARK    1  A    between atoms: C_6  and  N_8 
REMARK    2  A    between atoms: N_8  and  N_9 
REMARK       I    between atoms: N_9  and  C_10 
REMARK    3  A    between atoms: C_10  and  C_12 
REMARK    4  A    between atoms: C_13  and  N_14 
REMARK    5  A    between atoms: C_18  and  C_21 
REMARK    6  A    between atoms: C_23  and  C_31 
REMARK    7  A    between atoms: C_25  and  C_27 
ROOT
HETATM    1  N   UNK N   1      23.430  17.594   4.662  0.00  0.00    -0.261 N 
HETATM    2  C   UNK N   1      23.543  16.334   4.182  0.00  0.00     0.207 A 
HETATM    3  N   UNK N   1      22.983  15.457   5.044  0.00  0.00    -0.335 N 
ATOM      4  HN  UNK N   1      22.913  14.444   4.958  1.00  0.00     0.168 HD
HETATM    5  C   UNK N   1      22.538  16.245   6.044  0.00  0.00     0.131 A 
HETATM    6  N   UNK N   1      22.819  17.540   5.822  0.00  0.00    -0.278 N 
ATOM      7  HN  UNK N   1      22.599  18.325   6.433  1.00  0.00     0.189 HD
ENDROOT
BRANCH   1   8
HETATM    8  C   UNK N   1      23.746  18.842   4.017  0.00  0.00     0.123 C 
HETATM    9  C   UNK N   1      22.797  19.612   3.464  0.00  0.00     0.095 C 
BRANCH   9  10
HETATM   10  C   UNK N   1      21.383  19.276   3.656  0.00  0.00     0.261 C 
HETATM   11  N   UNK N   1      20.826  18.411   2.795  0.00  0.00    -0.265 N 
HETATM   12  H   UNK N   1      21.264  18.247   1.929  0.00  0.00     0.190 HD
HETATM   13  O   UNK N   1      20.820  19.565   4.705  0.00  0.00    -0.267 OA
BRANCH  11  14
HETATM   14  N   UNK N   1      19.661  17.751   3.092  0.00  0.00    -0.283 N 
HETATM   15  H   UNK N   1      18.799  18.223   3.067  0.00  0.00     0.188 HD
BRANCH  14  16
HETATM   16  C   UNK N   1      19.722  16.382   3.433  0.00  0.00     0.119 A 
HETATM   17  N   UNK N   1      20.363  15.505   2.615  0.00  0.00    -0.351 N 
HETATM   18  C   UNK N   1      20.397  14.173   2.896  0.00  0.00     0.089 A 
ATOM     19  HN  UNK N   1      20.828  15.852   1.776  1.00  0.00     0.166 HD
HETATM   20  C   UNK N   1      19.768  13.679   4.043  0.00  0.00     0.017 A 
HETATM   21  C   UNK N   1      19.103  14.560   4.892  0.00  0.00     0.005 A 
HETATM   22  C   UNK N   1      19.071  15.917   4.584  0.00  0.00     0.050 A 
ENDBRANCH  14  16
ENDBRANCH  11  14
ENDBRANCH   9  10
ENDBRANCH   1   8
BRANCH   5  23
HETATM   23  C   UNK N   1      21.751  15.811   7.194  0.00  0.00     0.011 A 
HETATM   24  C   UNK N   1      22.045  14.659   7.937  0.00  0.00     0.031 A 
HETATM   25  C   UNK N   1      21.204  14.285   9.003  0.00  0.00     0.049 A 
HETATM   26  C   UNK N   1      20.075  15.069   9.303  0.00  0.00     0.032 A 
HETATM   27  C   UNK N   1      19.790  16.216   8.552  0.00  0.00     0.049 A 
HETATM   28  C   UNK N   1      20.630  16.570   7.509  0.00  0.00     0.031 A 
BRANCH  25  29
HETATM   29  C   UNK N   1      21.520  13.064   9.821  0.00  0.00     0.417 C 
HETATM   30  F   UNK N   1      20.440  12.742  10.623  0.00  0.00    -0.166 F 
HETATM   31  F   UNK N   1      22.624  13.280  10.630  0.00  0.00    -0.166 F 
HETATM   32  F   UNK N   1      21.791  12.000   8.980  0.00  0.00    -0.166 F 
ENDBRANCH  25  29
BRANCH  27  33
HETATM   33  C   UNK N   1      18.598  17.073   8.851  0.00  0.00     0.417 C 
HETATM   34  F   UNK N   1      17.979  16.624  10.001  0.00  0.00    -0.166 F 
HETATM   35  F   UNK N   1      17.684  17.026   7.809  0.00  0.00    -0.166 F 
HETATM   36  F   UNK N   1      19.003  18.382   9.023  0.00  0.00    -0.166 F 
ENDBRANCH  27  33
ENDBRANCH   5  23
TORSDOF 7
ENDMDL
MODEL 3
REMARK VINA RESULT:      -7.9      8.582     11.094
REMARK  7 active torsions:
REMARK  status: ('A' for Active; 'I' for Inactive)
REMARK    1  A    between atoms: C_6  and  N_8 
REMARK    2  A    between atoms: N_8  and  N_9 
REMARK       I    between atoms: N_9  and  C_10 
REMARK    3  A    between atoms: C_10  and  C_12 
REMARK    4  A    between atoms: C_13  and  N_14 
REMARK    5  A    between atoms: C_18  and  C_21 
REMARK    6  A    between atoms: C_23  and  C_31 
REMARK    7  A    between atoms: C_25  and  C_27 
ROOT
HETATM    1  N   UNK N   1      23.407  18.138   4.328  0.00  0.00    -0.261 N 
HETATM    2  C   UNK N   1      23.444  16.917   3.746  0.00  0.00     0.207 A 
HETATM    3  N   UNK N   1      22.863  16.001   4.551  0.00  0.00    -0.335 N 
ATOM      4  HN  UNK N   1      22.739  15.002   4.387  1.00  0.00     0.168 HD
HETATM    5  C   UNK N   1      22.485  16.726   5.624  0.00  0.00     0.131 A 
HETATM    6  N   UNK N   1      22.824  18.019   5.498  0.00  0.00    -0.278 N 
ATOM      7  HN  UNK N   1      22.660  18.762   6.176  1.00  0.00     0.189 HD
ENDROOT
BRANCH   1   8
HETATM    8  C   UNK N   1      23.770  19.417   3.776  0.00  0.00     0.123 C 
HETATM    9  C   UNK N   1      22.870  20.205   3.168  0.00  0.00     0.095 C 
BRANCH   9  10
HETATM   10  C   UNK N   1      21.449  19.849   3.204  0.00  0.00     0.261 C 
HETATM   11  N   UNK N   1      20.952  19.165   2.161  0.00  0.00    -0.265 N 
HETATM   12  H   UNK N   1      21.445  19.163   1.309  0.00  0.00     0.190 HD
HETATM   13  O   UNK N   1      20.818  19.939   4.249  0.00  0.00    -0.267 OA
BRANCH  11  14
HETATM   14  N   UNK N   1      19.774  18.469   2.254  0.00  0.00    -0.283 N 
HETATM   15  H   UNK N   1      18.912  18.926   2.127  0.00  0.00     0.188 HD
BRANCH  14  16
HETATM   16  C   UNK N   1      19.820  17.086   2.535  0.00  0.00     0.119 A 
HETATM   17  N   UNK N   1      19.299  16.610   3.698  0.00  0.00    -0.351 N 
HETATM   18  C   UNK N   1      19.371  15.288   4.014  0.00  0.00     0.089 A 
ATOM     19  HN  UNK N   1      18.846  17.257   4.344  1.00  0.00     0.166 HD
HETATM   20  C   UNK N   1      19.986  14.387   3.141  0.00  0.00     0.017 A 
HETATM   21  C   UNK N   1      20.528  14.854   1.946  0.00  0.00     0.005 A 
HETATM   22  C   UNK N   1      20.453  16.210   1.642  0.00  0.00     0.050 A 
ENDBRANCH  14  16
ENDBRANCH  11  14
ENDBRANCH   9  10
ENDBRANCH   1   8
BRANCH   5  23
HETATM   23  C   UNK N   1      21.706  16.238   6.758  0.00  0.00     0.011 A 
HETATM   24  C   UNK N   1      20.542  16.871   7.220  0.00  0.00     0.031 A 
HETATM   25  C   UNK N   1      19.876  16.362   8.352  0.00  0.00     0.049 A 
HETATM   26  C   UNK N   1      20.393  15.229   9.009  0.00  0.00     0.032 A 
HETATM   27  C   UNK N   1      21.557  14.608   8.539  0.00  0.00     0.049 A 
HETATM   28  C   UNK N   1      22.196  15.122   7.423  0.00  0.00     0.031 A 
BRANCH  25  29
HETATM   29  C   UNK N   1      18.616  17.017   8.845  0.00  0.00     0.417 C 
HETATM   30  F   UNK N   1      17.684  17.071   7.824  0.00  0.00    -0.166 F 
HETATM   31  F   UNK N   1      18.866  18.305   9.287  0.00  0.00    -0.166 F 
HETATM   32  F   UNK N   1      18.094  16.283   9.895  0.00  0.00    -0.166 F 
ENDBRANCH  25  29
BRANCH  27  33
HETATM   33  C   UNK N   1      22.128  13.399   9.215  0.00  0.00     0.417 C 
HETATM   34  F   UNK N   1      21.625  12.256   8.624  0.00  0.00    -0.166 F 
HETATM   35  F   UNK N   1      21.795  13.384  10.562  0.00  0.00    -0.166 F 
HETATM   36  F   UNK N   1      23.504  13.414   9.102  0.00  0.00    -0.166 F 
ENDBRANCH  27  33
ENDBRANCH   5  23
TORSDOF 7
ENDMDL
MODEL 4
REMARK VINA RESULT:      -7.8      2.969      4.841
REMARK  7 active torsions:
REMARK  status: ('A' for Active; 'I' for Inactive)
REMARK    1  A    between atoms: C_6  and  N_8 
REMARK    2  A    between atoms: N_8  and  N_9 
REMARK       I    between atoms: N_9  and  C_10 
REMARK    3  A    between atoms: C_10  and  C_12 
REMARK    4  A    between atoms: C_13  and  N_14 
REMARK    5  A    between atoms: C_18  and  C_21 
REMARK    6  A    between atoms: C_23  and  C_31 
REMARK    7  A    between atoms: C_25  and  C_27 
ROOT
HETATM    1  N   UNK N   1      32.770  15.738   3.789  0.00  0.00    -0.261 N 
HETATM    2  C   UNK N   1      32.904  16.749   2.901  0.00  0.00     0.207 A 
HETATM    3  N   UNK N   1      31.689  17.240   2.569  0.00  0.00    -0.335 N 
ATOM      4  HN  UNK N   1      31.468  18.000   1.927  1.00  0.00     0.168 HD
HETATM    5  C   UNK N   1      30.840  16.482   3.293  0.00  0.00     0.131 A 
HETATM    6  N   UNK N   1      31.491  15.562   4.024  0.00  0.00    -0.278 N 
ATOM      7  HN  UNK N   1      31.073  14.865   4.640  1.00  0.00     0.189 HD
ENDROOT
BRANCH   1   8
HETATM    8  C   UNK N   1      33.790  15.033   4.520  0.00  0.00     0.123 C 
HETATM    9  C   UNK N   1      34.292  15.507   5.671  0.00  0.00     0.095 C 
BRANCH   9  10
HETATM   10  C   UNK N   1      33.684  16.684   6.299  0.00  0.00     0.261 C 
HETATM   11  N   UNK N   1      32.706  16.476   7.195  0.00  0.00    -0.265 N 
HETATM   12  H   UNK N   1      32.240  15.609   7.204  0.00  0.00     0.190 HD
HETATM   13  O   UNK N   1      34.225  17.778   6.207  0.00  0.00    -0.267 OA
BRANCH  11  14
HETATM   14  N   UNK N   1      32.340  17.442   8.096  0.00  0.00    -0.283 N 
HETATM   15  H   UNK N   1      33.023  17.967   8.571  0.00  0.00     0.188 HD
BRANCH  14  16
HETATM   16  C   UNK N   1      30.967  17.669   8.331  0.00  0.00     0.119 A 
HETATM   17  N   UNK N   1      30.571  18.370   9.428  0.00  0.00    -0.351 N 
HETATM   18  C   UNK N   1      29.251  18.564   9.703  0.00  0.00     0.089 A 
ATOM     19  HN  UNK N   1      31.276  18.757  10.055  1.00  0.00     0.166 HD
HETATM   20  C   UNK N   1      28.271  18.043   8.854  0.00  0.00     0.017 A 
HETATM   21  C   UNK N   1      28.655  17.319   7.727  0.00  0.00     0.005 A 
HETATM   22  C   UNK N   1      30.008  17.124   7.466  0.00  0.00     0.050 A 
ENDBRANCH  14  16
ENDBRANCH  11  14
ENDBRANCH   9  10
ENDBRANCH   1   8
BRANCH   5  23
HETATM   23  C   UNK N   1      29.395  16.666   3.390  0.00  0.00     0.011 A 
HETATM   24  C   UNK N   1      28.467  15.780   2.822  0.00  0.00     0.031 A 
HETATM   25  C   UNK N   1      27.090  16.058   2.921  0.00  0.00     0.049 A 
HETATM   26  C   UNK N   1      26.664  17.224   3.583  0.00  0.00     0.032 A 
HETATM   27  C   UNK N   1      27.600  18.102   4.145  0.00  0.00     0.049 A 
HETATM   28  C   UNK N   1      28.951  17.810   4.039  0.00  0.00     0.031 A 
BRANCH  25  29
HETATM   29  C   UNK N   1      26.084  15.107   2.335  0.00  0.00     0.417 C 
HETATM   30  F   UNK N   1      26.604  13.825   2.318  0.00  0.00    -0.166 F 
HETATM   31  F   UNK N   1      25.753  15.470   1.040  0.00  0.00    -0.166 F 
HETATM   32  F   UNK N   1      24.934  15.118   3.104  0.00  0.00    -0.166 F 
ENDBRANCH  25  29
BRANCH  27  33
HETATM   33  C   UNK N   1      27.176  19.348   4.859  0.00  0.00     0.417 C 
HETATM   34  F   UNK N   1      28.212  19.804   5.651  0.00  0.00    -0.166 F 
HETATM   35  F   UNK N   1      26.076  19.102   5.668  0.00  0.00    -0.166 F 
HETATM   36  F   UNK N   1      26.837  20.317   3.936  0.00  0.00    -0.166 F 
ENDBRANCH  27  33
ENDBRANCH   5  23
TORSDOF 7
ENDMDL
MODEL 5
REMARK VINA RESULT:      -7.8      4.585      6.591
REMARK  7 active torsions:
REMARK  status: ('A' for Active; 'I' for Inactive)
REMARK    1  A    between atoms: C_6  and  N_8 
REMARK    2  A    between atoms: N_8  and  N_9 
REMARK       I    between atoms: N_9  and  C_10 
REMARK    3  A    between atoms: C_10  and  C_12 
REMARK    4  A    between atoms: C_13  and  N_14 
REMARK    5  A    between atoms: C_18  and  C_21 
REMARK    6  A    between atoms: C_23  and  C_31 
REMARK    7  A    between atoms: C_25  and  C_27 
ROOT
HETATM    1  N   UNK N   1      34.707  14.223   8.725  0.00  0.00    -0.261 N 
HETATM    2  C   UNK N   1      33.789  13.433   9.329  0.00  0.00     0.207 A 
HETATM    3  N   UNK N   1      32.559  13.982   9.218  0.00  0.00    -0.335 N 
ATOM      4  HN  UNK N   1      31.672  13.623   9.570  1.00  0.00     0.168 HD
HETATM    5  C   UNK N   1      32.788  15.119   8.529  0.00  0.00     0.131 A 
HETATM    6  N   UNK N   1      34.090  15.274   8.240  0.00  0.00    -0.278 N 
ATOM      7  HN  UNK N   1      34.516  16.054   7.740  1.00  0.00     0.189 HD
ENDROOT
BRANCH   1   8
HETATM    8  C   UNK N   1      36.100  13.961   8.471  0.00  0.00     0.123 C 
HETATM    9  C   UNK N   1      37.061  14.362   9.317  0.00  0.00     0.095 C 
BRANCH   9  10
HETATM   10  C   UNK N   1      36.694  14.932  10.616  0.00  0.00     0.261 C 
HETATM   11  N   UNK N   1      36.703  14.115  11.681  0.00  0.00    -0.265 N 
HETATM   12  H   UNK N   1      36.676  13.141  11.539  0.00  0.00     0.190 HD
HETATM   13  O   UNK N   1      36.643  16.147  10.762  0.00  0.00    -0.267 OA
BRANCH  11  14
HETATM   14  N   UNK N   1      36.749  14.602  12.962  0.00  0.00    -0.283 N 
HETATM   15  H   UNK N   1      37.186  15.462  13.154  0.00  0.00     0.188 HD
BRANCH  14  16
HETATM   16  C   UNK N   1      36.158  13.849  13.999  0.00  0.00     0.119 A 
HETATM   17  N   UNK N   1      35.199  12.928  13.711  0.00  0.00    -0.351 N 
HETATM   18  C   UNK N   1      34.581  12.221  14.696  0.00  0.00     0.089 A 
ATOM     19  HN  UNK N   1      34.940  12.765  12.738  1.00  0.00     0.166 HD
HETATM   20  C   UNK N   1      34.923  12.430  16.035  0.00  0.00     0.017 A 
HETATM   21  C   UNK N   1      35.901  13.371  16.352  0.00  0.00     0.005 A 
HETATM   22  C   UNK N   1      36.517  14.090  15.333  0.00  0.00     0.050 A 
ENDBRANCH  14  16
ENDBRANCH  11  14
ENDBRANCH   9  10
ENDBRANCH   1   8
BRANCH   5  23
HETATM   23  C   UNK N   1      31.772  16.045   8.039  0.00  0.00     0.011 A 
HETATM   24  C   UNK N   1      30.859  16.700   8.879  0.00  0.00     0.031 A 
HETATM   25  C   UNK N   1      29.878  17.542   8.319  0.00  0.00     0.049 A 
HETATM   26  C   UNK N   1      29.823  17.708   6.923  0.00  0.00     0.032 A 
HETATM   27  C   UNK N   1      30.739  17.047   6.094  0.00  0.00     0.049 A 
HETATM   28  C   UNK N   1      31.698  16.225   6.664  0.00  0.00     0.031 A 
BRANCH  25  29
HETATM   29  C   UNK N   1      28.908  18.266   9.209  0.00  0.00     0.417 C 
HETATM   30  F   UNK N   1      29.594  18.949  10.197  0.00  0.00    -0.166 F 
HETATM   31  F   UNK N   1      28.029  17.380   9.811  0.00  0.00    -0.166 F 
HETATM   32  F   UNK N   1      28.178  19.170   8.459  0.00  0.00    -0.166 F 
ENDBRANCH  25  29
BRANCH  27  33
HETATM   33  C   UNK N   1      30.708  17.208   4.605  0.00  0.00     0.417 C 
HETATM   34  F   UNK N   1      31.659  18.131   4.218  0.00  0.00    -0.166 F 
HETATM   35  F   UNK N   1      29.463  17.653   4.184  0.00  0.00    -0.166 F 
HETATM   36  F   UNK N   1      30.968  15.993   4.004  0.00  0.00    -0.166 F 
ENDBRANCH  27  33
ENDBRANCH   5  23
TORSDOF 7
ENDMDL
MODEL 6
REMARK VINA RESULT:      -7.7      2.844      5.559
REMARK  7 active torsions:
REMARK  status: ('A' for Active; 'I' for Inactive)
REMARK    1  A    between atoms: C_6  and  N_8 
REMARK    2  A    between atoms: N_8  and  N_9 
REMARK       I    between atoms: N_9  and  C_10 
REMARK    3  A    between atoms: C_10  and  C_12 
REMARK    4  A    between atoms: C_13  and  N_14 
REMARK    5  A    between atoms: C_18  and  C_21 
REMARK    6  A    between atoms: C_23  and  C_31 
REMARK    7  A    between atoms: C_25  and  C_27 
ROOT
HETATM    1  N   UNK N   1      28.075  14.929   4.058  0.00  0.00    -0.261 N 
HETATM    2  C   UNK N   1      28.978  15.381   3.158  0.00  0.00     0.207 A 
HETATM    3  N   UNK N   1      29.882  16.180   3.768  0.00  0.00    -0.335 N 
ATOM      4  HN  UNK N   1      30.678  16.665   3.354  1.00  0.00     0.168 HD
HETATM    5  C   UNK N   1      29.478  16.179   5.055  0.00  0.00     0.131 A 
HETATM    6  N   UNK N   1      28.376  15.433   5.232  0.00  0.00    -0.278 N 
ATOM      7  HN  UNK N   1      27.873  15.285   6.106  1.00  0.00     0.189 HD
ENDROOT
BRANCH   1   8
HETATM    8  C   UNK N   1      27.038  13.946   3.886  0.00  0.00     0.123 C 
HETATM    9  C   UNK N   1      25.828  14.271   3.407  0.00  0.00     0.095 C 
BRANCH   9  10
HETATM   10  C   UNK N   1      25.590  15.620   2.886  0.00  0.00     0.261 C 
HETATM   11  N   UNK N   1      25.230  16.571   3.762  0.00  0.00    -0.265 N 
HETATM   12  H   UNK N   1      24.870  16.305   4.639  0.00  0.00     0.190 HD
HETATM   13  O   UNK N   1      25.961  15.918   1.758  0.00  0.00    -0.267 OA
BRANCH  11  14
HETATM   14  N   UNK N   1      25.349  17.905   3.465  0.00  0.00    -0.283 N 
HETATM   15  H   UNK N   1      24.894  18.284   2.680  0.00  0.00     0.188 HD
BRANCH  14  16
HETATM   16  C   UNK N   1      26.136  18.722   4.305  0.00  0.00     0.119 A 
HETATM   17  N   UNK N   1      25.566  19.360   5.362  0.00  0.00    -0.351 N 
HETATM   18  C   UNK N   1      26.291  20.190   6.161  0.00  0.00     0.089 A 
ATOM     19  HN  UNK N   1      24.576  19.213   5.560  1.00  0.00     0.166 HD
HETATM   20  C   UNK N   1      27.649  20.403   5.907  0.00  0.00     0.017 A 
HETATM   21  C   UNK N   1      28.252  19.761   4.827  0.00  0.00     0.005 A 
HETATM   22  C   UNK N   1      27.493  18.923   4.017  0.00  0.00     0.050 A 
ENDBRANCH  14  16
ENDBRANCH  11  14
ENDBRANCH   9  10
ENDBRANCH   1   8
BRANCH   5  23
HETATM   23  C   UNK N   1      30.176  16.806   6.173  0.00  0.00     0.011 A 
HETATM   24  C   UNK N   1      31.571  16.936   6.233  0.00  0.00     0.031 A 
HETATM   25  C   UNK N   1      32.168  17.511   7.373  0.00  0.00     0.049 A 
HETATM   26  C   UNK N   1      31.355  17.939   8.439  0.00  0.00     0.032 A 
HETATM   27  C   UNK N   1      29.963  17.800   8.368  0.00  0.00     0.049 A 
HETATM   28  C   UNK N   1      29.394  17.236   7.238  0.00  0.00     0.031 A 
BRANCH  25  29
HETATM   29  C   UNK N   1      33.660  17.676   7.441  0.00  0.00     0.417 C 
HETATM   30  F   UNK N   1      33.973  18.854   8.097  0.00  0.00    -0.166 F 
HETATM   31  F   UNK N   1      34.214  17.714   6.172  0.00  0.00    -0.166 F 
HETATM   32  F   UNK N   1      34.212  16.614   8.133  0.00  0.00    -0.166 F 
ENDBRANCH  25  29
BRANCH  27  33
HETATM   33  C   UNK N   1      29.072  18.251   9.486  0.00  0.00     0.417 C 
HETATM   34  F   UNK N   1      28.012  18.971   8.972  0.00  0.00    -0.166 F 
HETATM   35  F   UNK N   1      29.767  19.059  10.374  0.00  0.00    -0.166 F 
HETATM   36  F   UNK N   1      28.598  17.149  10.170  0.00  0.00    -0.166 F 
ENDBRANCH  27  33
ENDBRANCH   5  23
TORSDOF 7
ENDMDL
MODEL 7
REMARK VINA RESULT:      -7.7      4.083      6.743
REMARK  7 active torsions:
REMARK  status: ('A' for Active; 'I' for Inactive)
REMARK    1  A    between atoms: C_6  and  N_8 
REMARK    2  A    between atoms: N_8  and  N_9 
REMARK       I    between atoms: N_9  and  C_10 
REMARK    3  A    between atoms: C_10  and  C_12 
REMARK    4  A    between atoms: C_13  and  N_14 
REMARK    5  A    between atoms: C_18  and  C_21 
REMARK    6  A    between atoms: C_23  and  C_31 
REMARK    7  A    between atoms: C_25  and  C_27 
ROOT
HETATM    1  N   UNK N   1      24.852  15.244   5.896  0.00  0.00    -0.261 N 
HETATM    2  C   UNK N   1      25.440  14.563   4.886  0.00  0.00     0.207 A 
HETATM    3  N   UNK N   1      26.744  14.905   4.793  0.00  0.00    -0.335 N 
ATOM      4  HN  UNK N   1      27.443  14.562   4.134  1.00  0.00     0.168 HD
HETATM    5  C   UNK N   1      26.899  15.809   5.782  0.00  0.00     0.131 A 
HETATM    6  N   UNK N   1      25.751  16.026   6.444  0.00  0.00    -0.278 N 
ATOM      7  HN  UNK N   1      25.607  16.671   7.221  1.00  0.00     0.189 HD
ENDROOT
BRANCH   1   8
HETATM    8  C   UNK N   1      23.530  15.088   6.445  0.00  0.00     0.123 C 
HETATM    9  C   UNK N   1      22.551  15.971   6.196  0.00  0.00     0.095 C 
BRANCH   9  10
HETATM   10  C   UNK N   1      22.765  17.034   5.211  0.00  0.00     0.261 C 
HETATM   11  N   UNK N   1      23.427  18.131   5.612  0.00  0.00    -0.265 N 
HETATM   12  H   UNK N   1      23.503  18.321   6.575  0.00  0.00     0.190 HD
HETATM   13  O   UNK N   1      22.582  16.816   4.020  0.00  0.00    -0.267 OA
BRANCH  11  14
HETATM   14  N   UNK N   1      24.001  18.993   4.713  0.00  0.00    -0.283 N 
HETATM   15  H   UNK N   1      23.466  19.387   3.987  0.00  0.00     0.188 HD
BRANCH  14  16
HETATM   16  C   UNK N   1      25.371  19.305   4.848  0.00  0.00     0.119 A 
HETATM   17  N   UNK N   1      25.825  19.900   5.983  0.00  0.00    -0.351 N 
HETATM   18  C   UNK N   1      27.133  20.254   6.120  0.00  0.00     0.089 A 
ATOM     19  HN  UNK N   1      25.174  20.085   6.746  1.00  0.00     0.166 HD
HETATM   20  C   UNK N   1      28.042  20.007   5.087  0.00  0.00     0.017 A 
HETATM   21  C   UNK N   1      27.597  19.401   3.914  0.00  0.00     0.005 A 
HETATM   22  C   UNK N   1      26.255  19.054   3.788  0.00  0.00     0.050 A 
ENDBRANCH  14  16
ENDBRANCH  11  14
ENDBRANCH   9  10
ENDBRANCH   1   8
BRANCH   5  23
HETATM   23  C   UNK N   1      28.157  16.423   6.194  0.00  0.00     0.011 A 
HETATM   24  C   UNK N   1      29.303  16.447   5.385  0.00  0.00     0.031 A 
HETATM   25  C   UNK N   1      30.492  17.018   5.879  0.00  0.00     0.049 A 
HETATM   26  C   UNK N   1      30.516  17.551   7.181  0.00  0.00     0.032 A 
HETATM   27  C   UNK N   1      29.366  17.520   7.980  0.00  0.00     0.049 A 
HETATM   28  C   UNK N   1      28.205  16.956   7.476  0.00  0.00     0.031 A 
BRANCH  25  29
HETATM   29  C   UNK N   1      31.721  17.069   5.015  0.00  0.00     0.417 C 
HETATM   30  F   UNK N   1      31.601  18.086   4.086  0.00  0.00    -0.166 F 
HETATM   31  F   UNK N   1      31.905  15.872   4.342  0.00  0.00    -0.166 F 
HETATM   32  F   UNK N   1      32.832  17.306   5.804  0.00  0.00    -0.166 F 
ENDBRANCH  25  29
BRANCH  27  33
HETATM   33  C   UNK N   1      29.360  18.084   9.368  0.00  0.00     0.417 C 
HETATM   34  F   UNK N   1      30.436  18.934   9.528  0.00  0.00    -0.166 F 
HETATM   35  F   UNK N   1      29.452  17.071  10.312  0.00  0.00    -0.166 F 
HETATM   36  F   UNK N   1      28.185  18.777   9.579  0.00  0.00    -0.166 F 
ENDBRANCH  27  33
ENDBRANCH   5  23
TORSDOF 7
ENDMDL
MODEL 8
REMARK VINA RESULT:      -7.6      1.952      2.670
REMARK  7 active torsions:
REMARK  status: ('A' for Active; 'I' for Inactive)
REMARK    1  A    between atoms: C_6  and  N_8 
REMARK    2  A    between atoms: N_8  and  N_9 
REMARK       I    between atoms: N_9  and  C_10 
REMARK    3  A    between atoms: C_10  and  C_12 
REMARK    4  A    between atoms: C_13  and  N_14 
REMARK    5  A    between atoms: C_18  and  C_21 
REMARK    6  A    between atoms: C_23  and  C_31 
REMARK    7  A    between atoms: C_25  and  C_27 
ROOT
HETATM    1  N   UNK N   1      28.279  15.214   3.113  0.00  0.00    -0.261 N 
HETATM    2  C   UNK N   1      29.162  16.066   2.542  0.00  0.00     0.207 A 
HETATM    3  N   UNK N   1      29.354  17.138   3.342  0.00  0.00    -0.335 N 
ATOM      4  HN  UNK N   1      29.959  17.944   3.184  1.00  0.00     0.168 HD
HETATM    5  C   UNK N   1      28.555  16.886   4.398  0.00  0.00     0.131 A 
HETATM    6  N   UNK N   1      27.892  15.727   4.257  0.00  0.00    -0.278 N 
ATOM      7  HN  UNK N   1      27.221  15.323   4.910  1.00  0.00     0.189 HD
ENDROOT
BRANCH   1   8
HETATM    8  C   UNK N   1      27.896  13.891   2.693  0.00  0.00     0.123 C 
HETATM    9  C   UNK N   1      28.600  12.805   3.049  0.00  0.00     0.095 C 
BRANCH   9  10
HETATM   10  C   UNK N   1      29.689  12.931   4.021  0.00  0.00     0.261 C 
HETATM   11  N   UNK N   1      30.939  13.047   3.545  0.00  0.00    -0.265 N 
HETATM   12  H   UNK N   1      31.127  12.774   2.619  0.00  0.00     0.190 HD
HETATM   13  O   UNK N   1      29.441  13.184   5.193  0.00  0.00    -0.267 OA
BRANCH  11  14
HETATM   14  N   UNK N   1      31.960  13.538   4.319  0.00  0.00    -0.283 N 
HETATM   15  H   UNK N   1      32.508  12.931   4.865  0.00  0.00     0.188 HD
BRANCH  14  16
HETATM   16  C   UNK N   1      32.208  14.927   4.317  0.00  0.00     0.119 A 
HETATM   17  N   UNK N   1      32.677  15.533   3.193  0.00  0.00    -0.351 N 
HETATM   18  C   UNK N   1      32.968  16.863   3.177  0.00  0.00     0.089 A 
ATOM     19  HN  UNK N   1      32.811  14.981   2.346  1.00  0.00     0.166 HD
HETATM   20  C   UNK N   1      32.789  17.637   4.327  0.00  0.00     0.017 A 
HETATM   21  C   UNK N   1      32.313  17.036   5.490  0.00  0.00     0.005 A 
HETATM   22  C   UNK N   1      32.028  15.674   5.490  0.00  0.00     0.050 A 
ENDBRANCH  14  16
ENDBRANCH  11  14
ENDBRANCH   9  10
ENDBRANCH   1   8
BRANCH   5  23
HETATM   23  C   UNK N   1      28.465  17.683   5.617  0.00  0.00     0.011 A 
HETATM   24  C   UNK N   1      28.915  17.231   6.867  0.00  0.00     0.031 A 
HETATM   25  C   UNK N   1      28.747  18.046   8.003  0.00  0.00     0.049 A 
HETATM   26  C   UNK N   1      28.123  19.301   7.871  0.00  0.00     0.032 A 
HETATM   27  C   UNK N   1      27.675  19.740   6.618  0.00  0.00     0.049 A 
HETATM   28  C   UNK N   1      27.852  18.925   5.511  0.00  0.00     0.031 A 
BRANCH  25  29
HETATM   29  C   UNK N   1      29.244  17.583   9.344  0.00  0.00     0.417 C 
HETATM   30  F   UNK N   1      30.353  16.773   9.181  0.00  0.00    -0.166 F 
HETATM   31  F   UNK N   1      28.266  16.868  10.017  0.00  0.00    -0.166 F 
HETATM   32  F   UNK N   1      29.594  18.680  10.111  0.00  0.00    -0.166 F 
ENDBRANCH  25  29
BRANCH  27  33
HETATM   33  C   UNK N   1      27.012  21.072   6.445  0.00  0.00     0.417 C 
HETATM   34  F   UNK N   1      27.965  22.071   6.458  0.00  0.00    -0.166 F 
HETATM   35  F   UNK N   1      26.108  21.308   7.471  0.00  0.00    -0.166 F 
HETATM   36  F   UNK N   1      26.331  21.095   5.244  0.00  0.00    -0.166 F 
ENDBRANCH  27  33
ENDBRANCH   5  23
TORSDOF 7
ENDMDL
MODEL 9
REMARK VINA RESULT:      -7.5      2.896      5.686
REMARK  7 active torsions:
REMARK  status: ('A' for Active; 'I' for Inactive)
REMARK    1  A    between atoms: C_6  and  N_8 
REMARK    2  A    between atoms: N_8  and  N_9 
REMARK       I    between atoms: N_9  and  C_10 
REMARK    3  A    between atoms: C_10  and  C_12 
REMARK    4  A    between atoms: C_13  and  N_14 
REMARK    5  A    between atoms: C_18  and  C_21 
REMARK    6  A    between atoms: C_23  and  C_31 
REMARK    7  A    between atoms: C_25  and  C_27 
ROOT
HETATM    1  N   UNK N   1      28.660  15.216   3.609  0.00  0.00    -0.261 N 
HETATM    2  C   UNK N   1      29.132  16.295   2.942  0.00  0.00     0.207 A 
HETATM    3  N   UNK N   1      29.754  17.134   3.798  0.00  0.00    -0.335 N 
ATOM      4  HN  UNK N   1      30.208  18.024   3.594  1.00  0.00     0.168 HD
HETATM    5  C   UNK N   1      29.632  16.511   4.988  0.00  0.00     0.131 A 
HETATM    6  N   UNK N   1      28.959  15.354   4.879  0.00  0.00    -0.278 N 
ATOM      7  HN  UNK N   1      28.726  14.710   5.634  1.00  0.00     0.189 HD
ENDROOT
BRANCH   1   8
HETATM    8  C   UNK N   1      28.071  14.012   3.083  0.00  0.00     0.123 C 
HETATM    9  C   UNK N   1      26.783  13.960   2.710  0.00  0.00     0.095 C 
BRANCH   9  10
HETATM   10  C   UNK N   1      25.986  15.189   2.673  0.00  0.00     0.261 C 
HETATM   11  N   UNK N   1      25.507  15.656   3.837  0.00  0.00    -0.265 N 
HETATM   12  H   UNK N   1      25.455  15.052   4.612  0.00  0.00     0.190 HD
HETATM   13  O   UNK N   1      25.986  15.892   1.671  0.00  0.00    -0.267 OA
BRANCH  11  14
HETATM   14  N   UNK N   1      25.088  16.955   3.973  0.00  0.00    -0.283 N 
HETATM   15  H   UNK N   1      24.159  17.205   3.769  0.00  0.00     0.188 HD
BRANCH  14  16
HETATM   16  C   UNK N   1      26.014  17.927   4.410  0.00  0.00     0.119 A 
HETATM   17  N   UNK N   1      26.320  18.031   5.731  0.00  0.00    -0.351 N 
HETATM   18  C   UNK N   1      27.174  18.989   6.185  0.00  0.00     0.089 A 
ATOM     19  HN  UNK N   1      25.901  17.378   6.393  1.00  0.00     0.166 HD
HETATM   20  C   UNK N   1      27.759  19.892   5.292  0.00  0.00     0.017 A 
HETATM   21  C   UNK N   1      27.457  19.805   3.935  0.00  0.00     0.005 A 
HETATM   22  C   UNK N   1      26.575  18.825   3.490  0.00  0.00     0.050 A 
ENDBRANCH  14  16
ENDBRANCH  11  14
ENDBRANCH   9  10
ENDBRANCH   1   8
BRANCH   5  23
HETATM   23  C   UNK N   1      30.231  16.941   6.248  0.00  0.00     0.011 A 
HETATM   24  C   UNK N   1      29.479  17.247   7.392  0.00  0.00     0.031 A 
HETATM   25  C   UNK N   1      30.133  17.701   8.554  0.00  0.00     0.049 A 
HETATM   26  C   UNK N   1      31.533  17.849   8.548  0.00  0.00     0.032 A 
HETATM   27  C   UNK N   1      32.272  17.542   7.399  0.00  0.00     0.049 A 
HETATM   28  C   UNK N   1      31.611  17.094   6.266  0.00  0.00     0.031 A 
BRANCH  25  29
HETATM   29  C   UNK N   1      29.342  18.012   9.793  0.00  0.00     0.417 C 
HETATM   30  F   UNK N   1      28.020  18.245   9.460  0.00  0.00    -0.166 F 
HETATM   31  F   UNK N   1      29.843  19.134  10.434  0.00  0.00    -0.166 F 
HETATM   32  F   UNK N   1      29.407  16.940  10.664  0.00  0.00    -0.166 F 
ENDBRANCH  25  29
BRANCH  27  33
HETATM   33  C   UNK N   1      33.763  17.685   7.364  0.00  0.00     0.417 C 
HETATM   34  F   UNK N   1      34.348  16.600   7.986  0.00  0.00    -0.166 F 
HETATM   35  F   UNK N   1      34.163  18.840   8.021  0.00  0.00    -0.166 F 
HETATM   36  F   UNK N   1      34.190  17.755   6.053  0.00  0.00    -0.166 F 
ENDBRANCH  27  33
ENDBRANCH   5  23
TORSDOF 7
ENDMDL
