MODEL 1
REMARK VINA RESULT:      -7.4      0.000      0.000
REMARK  11 active torsions:
REMARK  status: ('A' for Active; 'I' for Inactive)
REMARK    1  A    between atoms: C_12  and  O_1 
REMARK    2  A    between atoms: O_1  and  C_17 
REMARK    3  A    between atoms: C_10  and  O_2 
REMARK    4  A    between atoms: C_11  and  O_3 
REMARK    5  A    between atoms: C_13  and  O_4 
REMARK    6  A    between atoms: O_5  and  C_16 
REMARK    7  A    between atoms: O_6  and  C_20 
REMARK    8  A    between atoms: O_7  and  C_21 
REMARK    9  A    between atoms: C_10  and  C_16 
REMARK   10  A    between atoms: C_17  and  C_18 
REMARK   11  A    between atoms: C_19  and  C_22 
ROOT
HETATM    1  C   UNK N   1      34.770  14.519  11.112  0.00  0.00     0.147 C 
HETATM    2  C   UNK N   1      35.093  14.545   8.155  0.00  0.00     0.176 C 
HETATM    3  C   UNK N   1      34.934  15.802   9.006  0.00  0.00     0.166 C 
HETATM    4  C   UNK N   1      34.331  13.409   8.856  0.00  0.00     0.152 C 
HETATM    5  C   UNK N   1      35.589  15.564  10.366  0.00  0.00     0.084 C 
HETATM    6  C   UNK N   1      34.809  13.208  10.305  0.00  0.00     0.083 C 
ENDROOT
BRANCH   3   7
HETATM    7  O   UNK N   1      35.371  16.962   8.393  0.00  0.00    -0.310 OA
BRANCH   7   8
HETATM    8  C   UNK N   1      34.518  18.009   8.181  0.00  0.00     0.283 C 
HETATM    9  O   UNK N   1      34.891  19.156   8.327  0.00  0.00    -0.260 OA
BRANCH   8  10
HETATM   10  C   UNK N   1      33.116  17.780   7.831  0.00  0.00     0.083 C 
HETATM   11  C   UNK N   1      32.100  17.957   8.672  0.00  0.00     0.017 C 
BRANCH  11  12
HETATM   12  C   UNK N   1      30.719  17.753   8.203  0.00  0.00    -0.033 A 
HETATM   13  C   UNK N   1      29.627  18.112   9.013  0.00  0.00     0.050 A 
HETATM   14  C   UNK N   1      28.322  17.903   8.573  0.00  0.00     0.099 A 
HETATM   15  C   UNK N   1      28.092  17.327   7.317  0.00  0.00     0.098 A 
HETATM   16  C   UNK N   1      29.176  16.965   6.508  0.00  0.00     0.040 A 
HETATM   17  C   UNK N   1      30.487  17.178   6.950  0.00  0.00     0.014 A 
BRANCH  14  18
HETATM   18  O   UNK N   1      27.290  18.258   9.360  0.00  0.00    -0.358 OA
HETATM   19  H   UNK N   1      26.439  18.387   8.989  0.00  0.00     0.217 HD
ENDBRANCH  14  18
BRANCH  15  20
HETATM   20  O   UNK N   1      26.837  17.121   6.885  0.00  0.00    -0.358 OA
HETATM   21  H   UNK N   1      26.306  16.461   7.284  0.00  0.00     0.217 HD
ENDBRANCH  15  20
ENDBRANCH  11  12
ENDBRANCH   8  10
ENDBRANCH   7   8
ENDBRANCH   3   7
BRANCH   2  22
HETATM   22  O   UNK N   1      34.553  14.754   6.885  0.00  0.00    -0.390 OA
HETATM   23  H   UNK N   1      34.225  15.608   6.563  0.00  0.00     0.210 HD
ENDBRANCH   2  22
BRANCH   4  24
HETATM   24  O   UNK N   1      34.478  12.216   8.148  0.00  0.00    -0.393 OA
HETATM   25  H   UNK N   1      33.997  11.416   8.411  0.00  0.00     0.210 HD
ENDBRANCH   4  24
BRANCH   1  26
HETATM   26  O   UNK N   1      33.447  14.962  11.227  0.00  0.00    -0.379 OA
HETATM   27  H   UNK N   1      32.498  15.046  11.410  0.00  0.00     0.211 HD
ENDBRANCH   1  26
BRANCH   1  28
HETATM   28  C   UNK N   1      35.330  14.346  12.498  0.00  0.00     0.176 C 
HETATM   29  O   UNK N   1      34.825  13.535  13.261  0.00  0.00    -0.648 OA
BRANCH  28  30
HETATM   30  O   UNK N   1      36.398  15.059  12.905  0.00  0.00    -0.774 OA
HETATM   31  H   UNK N   1      36.666  15.871  12.520  0.00  0.00     0.167 HD
ENDBRANCH  28  30
ENDBRANCH   1  28
TORSDOF 11
ENDMDL
MODEL 2
REMARK VINA RESULT:      -7.3      1.839      2.682
REMARK  11 active torsions:
REMARK  status: ('A' for Active; 'I' for Inactive)
REMARK    1  A    between atoms: C_12  and  O_1 
REMARK    2  A    between atoms: O_1  and  C_17 
REMARK    3  A    between atoms: C_10  and  O_2 
REMARK    4  A    between atoms: C_11  and  O_3 
REMARK    5  A    between atoms: C_13  and  O_4 
REMARK    6  A    between atoms: O_5  and  C_16 
REMARK    7  A    between atoms: O_6  and  C_20 
REMARK    8  A    between atoms: O_7  and  C_21 
REMARK    9  A    between atoms: C_10  and  C_16 
REMARK   10  A    between atoms: C_17  and  C_18 
REMARK   11  A    between atoms: C_19  and  C_22 
ROOT
HETATM    1  C   UNK N   1      37.014  14.576  10.274  0.00  0.00     0.147 C 
HETATM    2  C   UNK N   1      34.053  14.502  10.549  0.00  0.00     0.176 C 
HETATM    3  C   UNK N   1      34.796  15.407   9.570  0.00  0.00     0.166 C 
HETATM    4  C   UNK N   1      34.965  14.288  11.767  0.00  0.00     0.152 C 
HETATM    5  C   UNK N   1      36.058  14.689   9.094  0.00  0.00     0.084 C 
HETATM    6  C   UNK N   1      36.338  13.723  11.363  0.00  0.00     0.083 C 
ENDROOT
BRANCH   3   7
HETATM    7  O   UNK N   1      34.017  15.876   8.528  0.00  0.00    -0.310 OA
BRANCH   7   8
HETATM    8  C   UNK N   1      33.717  17.205   8.417  0.00  0.00     0.283 C 
HETATM    9  O   UNK N   1      34.478  18.054   8.839  0.00  0.00    -0.260 OA
BRANCH   8  10
HETATM   10  C   UNK N   1      32.445  17.646   7.842  0.00  0.00     0.083 C 
HETATM   11  C   UNK N   1      31.285  17.023   8.035  0.00  0.00     0.017 C 
BRANCH  11  12
HETATM   12  C   UNK N   1      30.051  17.582   7.456  0.00  0.00    -0.033 A 
HETATM   13  C   UNK N   1      29.170  18.341   8.246  0.00  0.00     0.050 A 
HETATM   14  C   UNK N   1      27.996  18.855   7.701  0.00  0.00     0.099 A 
HETATM   15  C   UNK N   1      27.686  18.611   6.357  0.00  0.00     0.098 A 
HETATM   16  C   UNK N   1      28.558  17.853   5.567  0.00  0.00     0.040 A 
HETATM   17  C   UNK N   1      29.739  17.339   6.115  0.00  0.00     0.014 A 
BRANCH  14  18
HETATM   18  O   UNK N   1      27.168  19.583   8.471  0.00  0.00    -0.358 OA
HETATM   19  H   UNK N   1      27.374  19.730   9.373  0.00  0.00     0.217 HD
ENDBRANCH  14  18
BRANCH  15  20
HETATM   20  O   UNK N   1      26.556  19.101   5.822  0.00  0.00    -0.358 OA
HETATM   21  H   UNK N   1      26.592  19.624   5.046  0.00  0.00     0.217 HD
ENDBRANCH  15  20
ENDBRANCH  11  12
ENDBRANCH   8  10
ENDBRANCH   7   8
ENDBRANCH   3   7
BRANCH   2  22
HETATM   22  O   UNK N   1      32.864  15.110  10.957  0.00  0.00    -0.390 OA
HETATM   23  H   UNK N   1      32.443  15.852  10.497  0.00  0.00     0.210 HD
ENDBRANCH   2  22
BRANCH   4  24
HETATM   24  O   UNK N   1      34.359  13.427  12.682  0.00  0.00    -0.393 OA
HETATM   25  H   UNK N   1      34.788  12.601  12.953  0.00  0.00     0.210 HD
ENDBRANCH   4  24
BRANCH   1  26
HETATM   26  O   UNK N   1      37.283  15.855  10.777  0.00  0.00    -0.379 OA
HETATM   27  H   UNK N   1      37.421  16.808  10.890  0.00  0.00     0.211 HD
ENDBRANCH   1  26
BRANCH   1  28
HETATM   28  C   UNK N   1      38.310  13.971   9.806  0.00  0.00     0.176 C 
HETATM   29  O   UNK N   1      38.600  14.000   8.619  0.00  0.00    -0.648 OA
BRANCH  28  30
HETATM   30  O   UNK N   1      39.168  13.415  10.683  0.00  0.00    -0.774 OA
HETATM   31  H   UNK N   1      40.087  13.314  10.528  0.00  0.00     0.167 HD
ENDBRANCH  28  30
ENDBRANCH   1  28
TORSDOF 11
ENDMDL
MODEL 3
REMARK VINA RESULT:      -7.1      2.124      3.951
REMARK  11 active torsions:
REMARK  status: ('A' for Active; 'I' for Inactive)
REMARK    1  A    between atoms: C_12  and  O_1 
REMARK    2  A    between atoms: O_1  and  C_17 
REMARK    3  A    between atoms: C_10  and  O_2 
REMARK    4  A    between atoms: C_11  and  O_3 
REMARK    5  A    between atoms: C_13  and  O_4 
REMARK    6  A    between atoms: O_5  and  C_16 
REMARK    7  A    between atoms: O_6  and  C_20 
REMARK    8  A    between atoms: O_7  and  C_21 
REMARK    9  A    between atoms: C_10  and  C_16 
REMARK   10  A    between atoms: C_17  and  C_18 
REMARK   11  A    between atoms: C_19  and  C_22 
ROOT
HETATM    1  C   UNK N   1      33.660  16.691   8.695  0.00  0.00     0.147 C 
HETATM    2  C   UNK N   1      33.179  13.774   9.021  0.00  0.00     0.176 C 
HETATM    3  C   UNK N   1      32.529  14.629   7.937  0.00  0.00     0.166 C 
HETATM    4  C   UNK N   1      33.421  14.676  10.242  0.00  0.00     0.152 C 
HETATM    5  C   UNK N   1      33.505  15.729   7.524  0.00  0.00     0.084 C 
HETATM    6  C   UNK N   1      34.260  15.914   9.882  0.00  0.00     0.083 C 
ENDROOT
BRANCH   3   7
HETATM    7  O   UNK N   1      32.043  13.908   6.861  0.00  0.00    -0.310 OA
BRANCH   7   8
HETATM    8  C   UNK N   1      31.348  14.525   5.859  0.00  0.00     0.283 C 
HETATM    9  O   UNK N   1      31.537  14.230   4.695  0.00  0.00    -0.260 OA
BRANCH   8  10
HETATM   10  C   UNK N   1      30.399  15.601   6.150  0.00  0.00     0.083 C 
HETATM   11  C   UNK N   1      30.367  16.762   5.501  0.00  0.00     0.017 C 
BRANCH  11  12
HETATM   12  C   UNK N   1      29.334  17.757   5.835  0.00  0.00    -0.033 A 
HETATM   13  C   UNK N   1      28.930  17.949   7.168  0.00  0.00     0.050 A 
HETATM   14  C   UNK N   1      27.941  18.881   7.479  0.00  0.00     0.099 A 
HETATM   15  C   UNK N   1      27.342  19.630   6.459  0.00  0.00     0.098 A 
HETATM   16  C   UNK N   1      27.739  19.440   5.130  0.00  0.00     0.040 A 
HETATM   17  C   UNK N   1      28.734  18.505   4.818  0.00  0.00     0.014 A 
BRANCH  14  18
HETATM   18  O   UNK N   1      27.571  19.054   8.761  0.00  0.00    -0.358 OA
HETATM   19  H   UNK N   1      26.970  19.736   8.987  0.00  0.00     0.217 HD
ENDBRANCH  14  18
BRANCH  15  20
HETATM   20  O   UNK N   1      26.388  20.529   6.749  0.00  0.00    -0.358 OA
HETATM   21  H   UNK N   1      26.029  21.068   6.072  0.00  0.00     0.217 HD
ENDBRANCH  15  20
ENDBRANCH  11  12
ENDBRANCH   8  10
ENDBRANCH   7   8
ENDBRANCH   3   7
BRANCH   2  22
HETATM   22  O   UNK N   1      32.331  12.724   9.377  0.00  0.00    -0.390 OA
HETATM   23  H   UNK N   1      31.624  12.792  10.037  0.00  0.00     0.210 HD
ENDBRANCH   2  22
BRANCH   4  24
HETATM   24  O   UNK N   1      34.058  13.961  11.256  0.00  0.00    -0.393 OA
HETATM   25  H   UNK N   1      33.715  13.964  12.163  0.00  0.00     0.210 HD
ENDBRANCH   4  24
BRANCH   1  26
HETATM   26  O   UNK N   1      32.403  17.196   9.049  0.00  0.00    -0.379 OA
HETATM   27  H   UNK N   1      31.455  17.328   9.204  0.00  0.00     0.211 HD
ENDBRANCH   1  26
BRANCH   1  28
HETATM   28  C   UNK N   1      34.531  17.845   8.278  0.00  0.00     0.176 C 
HETATM   29  O   UNK N   1      35.227  18.412   9.107  0.00  0.00    -0.648 OA
BRANCH  28  30
HETATM   30  O   UNK N   1      34.571  18.251   6.994  0.00  0.00    -0.774 OA
HETATM   31  H   UNK N   1      34.397  19.129   6.714  0.00  0.00     0.167 HD
ENDBRANCH  28  30
ENDBRANCH   1  28
TORSDOF 11
ENDMDL
MODEL 4
REMARK VINA RESULT:      -7.1     10.146     14.081
REMARK  11 active torsions:
REMARK  status: ('A' for Active; 'I' for Inactive)
REMARK    1  A    between atoms: C_12  and  O_1 
REMARK    2  A    between atoms: O_1  and  C_17 
REMARK    3  A    between atoms: C_10  and  O_2 
REMARK    4  A    between atoms: C_11  and  O_3 
REMARK    5  A    between atoms: C_13  and  O_4 
REMARK    6  A    between atoms: O_5  and  C_16 
REMARK    7  A    between atoms: O_6  and  C_20 
REMARK    8  A    between atoms: O_7  and  C_21 
REMARK    9  A    between atoms: C_10  and  C_16 
REMARK   10  A    between atoms: C_17  and  C_18 
REMARK   11  A    between atoms: C_19  and  C_22 
ROOT
HETATM    1  C   UNK N   1      20.191  17.244   2.619  0.00  0.00     0.147 C 
HETATM    2  C   UNK N   1      21.938  18.002   4.903  0.00  0.00     0.176 C 
HETATM    3  C   UNK N   1      20.987  16.809   4.917  0.00  0.00     0.166 C 
HETATM    4  C   UNK N   1      21.325  19.074   3.988  0.00  0.00     0.152 C 
HETATM    5  C   UNK N   1      20.901  16.230   3.506  0.00  0.00     0.084 C 
HETATM    6  C   UNK N   1      21.039  18.528   2.578  0.00  0.00     0.083 C 
ENDROOT
BRANCH   3   7
HETATM    7  O   UNK N   1      21.287  15.856   5.873  0.00  0.00    -0.310 OA
BRANCH   7   8
HETATM    8  C   UNK N   1      20.322  15.375   6.713  0.00  0.00     0.283 C 
HETATM    9  O   UNK N   1      19.145  15.589   6.500  0.00  0.00    -0.260 OA
BRANCH   8  10
HETATM   10  C   UNK N   1      20.678  14.638   7.927  0.00  0.00     0.083 C 
HETATM   11  C   UNK N   1      21.816  13.967   8.085  0.00  0.00     0.017 C 
BRANCH  11  12
HETATM   12  C   UNK N   1      22.103  13.305   9.368  0.00  0.00    -0.033 A 
HETATM   13  C   UNK N   1      23.428  13.111   9.794  0.00  0.00     0.050 A 
HETATM   14  C   UNK N   1      23.697  12.469  11.001  0.00  0.00     0.099 A 
HETATM   15  C   UNK N   1      22.640  12.010  11.797  0.00  0.00     0.098 A 
HETATM   16  C   UNK N   1      21.318  12.198  11.376  0.00  0.00     0.040 A 
HETATM   17  C   UNK N   1      21.049  12.845  10.164  0.00  0.00     0.014 A 
BRANCH  14  18
HETATM   18  O   UNK N   1      24.972  12.298  11.394  0.00  0.00    -0.358 OA
HETATM   19  H   UNK N   1      25.569  13.020  11.379  0.00  0.00     0.217 HD
ENDBRANCH  14  18
BRANCH  15  20
HETATM   20  O   UNK N   1      22.889  11.390  12.962  0.00  0.00    -0.358 OA
HETATM   21  H   UNK N   1      23.754  11.087  13.157  0.00  0.00     0.217 HD
ENDBRANCH  15  20
ENDBRANCH  11  12
ENDBRANCH   8  10
ENDBRANCH   7   8
ENDBRANCH   3   7
BRANCH   2  22
HETATM   22  O   UNK N   1      22.080  18.517   6.193  0.00  0.00    -0.390 OA
HETATM   23  H   UNK N   1      22.001  17.992   7.004  0.00  0.00     0.210 HD
ENDBRANCH   2  22
BRANCH   4  24
HETATM   24  O   UNK N   1      22.173  20.178   3.896  0.00  0.00    -0.393 OA
HETATM   25  H   UNK N   1      22.542  20.456   3.044  0.00  0.00     0.210 HD
ENDBRANCH   4  24
BRANCH   1  26
HETATM   26  O   UNK N   1      18.930  17.529   3.158  0.00  0.00    -0.379 OA
HETATM   27  H   UNK N   1      18.147  17.597   3.724  0.00  0.00     0.211 HD
ENDBRANCH   1  26
BRANCH   1  28
HETATM   28  C   UNK N   1      19.994  16.653   1.248  0.00  0.00     0.176 C 
HETATM   29  O   UNK N   1      20.840  15.902   0.784  0.00  0.00    -0.648 OA
BRANCH  28  30
HETATM   30  O   UNK N   1      18.886  16.924   0.532  0.00  0.00    -0.774 OA
HETATM   31  H   UNK N   1      18.653  17.779   0.228  0.00  0.00     0.167 HD
ENDBRANCH  28  30
ENDBRANCH   1  28
TORSDOF 11
ENDMDL
MODEL 5
REMARK VINA RESULT:      -7.0     14.872     18.794
REMARK  11 active torsions:
REMARK  status: ('A' for Active; 'I' for Inactive)
REMARK    1  A    between atoms: C_12  and  O_1 
REMARK    2  A    between atoms: O_1  and  C_17 
REMARK    3  A    between atoms: C_10  and  O_2 
REMARK    4  A    between atoms: C_11  and  O_3 
REMARK    5  A    between atoms: C_13  and  O_4 
REMARK    6  A    between atoms: O_5  and  C_16 
REMARK    7  A    between atoms: O_6  and  C_20 
REMARK    8  A    between atoms: O_7  and  C_21 
REMARK    9  A    between atoms: C_10  and  C_16 
REMARK   10  A    between atoms: C_17  and  C_18 
REMARK   11  A    between atoms: C_19  and  C_22 
ROOT
HETATM    1  C   UNK N   1      26.986  28.031  -4.757  0.00  0.00     0.147 C 
HETATM    2  C   UNK N   1      27.663  27.408  -7.585  0.00  0.00     0.176 C 
HETATM    3  C   UNK N   1      27.183  26.370  -6.575  0.00  0.00     0.166 C 
HETATM    4  C   UNK N   1      28.429  28.492  -6.810  0.00  0.00     0.152 C 
HETATM    5  C   UNK N   1      26.207  27.036  -5.607  0.00  0.00     0.084 C 
HETATM    6  C   UNK N   1      27.574  29.107  -5.689  0.00  0.00     0.083 C 
ENDROOT
BRANCH   3   7
HETATM    7  O   UNK N   1      26.675  25.217  -7.145  0.00  0.00    -0.310 OA
BRANCH   7   8
HETATM    8  C   UNK N   1      26.427  24.108  -6.385  0.00  0.00     0.283 C 
HETATM    9  O   UNK N   1      25.338  23.570  -6.403  0.00  0.00    -0.260 OA
BRANCH   8  10
HETATM   10  C   UNK N   1      27.445  23.570  -5.481  0.00  0.00     0.083 C 
HETATM   11  C   UNK N   1      28.575  22.997  -5.889  0.00  0.00     0.017 C 
BRANCH  11  12
HETATM   12  C   UNK N   1      29.561  22.538  -4.896  0.00  0.00    -0.033 A 
HETATM   13  C   UNK N   1      29.545  23.044  -3.584  0.00  0.00     0.050 A 
HETATM   14  C   UNK N   1      30.489  22.620  -2.651  0.00  0.00     0.099 A 
HETATM   15  C   UNK N   1      31.465  21.686  -3.021  0.00  0.00     0.098 A 
HETATM   16  C   UNK N   1      31.487  21.182  -4.327  0.00  0.00     0.040 A 
HETATM   17  C   UNK N   1      30.537  21.606  -5.263  0.00  0.00     0.014 A 
BRANCH  14  18
HETATM   18  O   UNK N   1      30.454  23.112  -1.400  0.00  0.00    -0.358 OA
HETATM   19  H   UNK N   1      30.188  23.998  -1.251  0.00  0.00     0.217 HD
ENDBRANCH  14  18
BRANCH  15  20
HETATM   20  O   UNK N   1      32.380  21.272  -2.129  0.00  0.00    -0.358 OA
HETATM   21  H   UNK N   1      32.279  20.443  -1.705  0.00  0.00     0.217 HD
ENDBRANCH  15  20
ENDBRANCH  11  12
ENDBRANCH   8  10
ENDBRANCH   7   8
ENDBRANCH   3   7
BRANCH   2  22
HETATM   22  O   UNK N   1      28.513  26.813  -8.518  0.00  0.00    -0.390 OA
HETATM   23  H   UNK N   1      29.407  26.495  -8.320  0.00  0.00     0.210 HD
ENDBRANCH   2  22
BRANCH   4  24
HETATM   24  O   UNK N   1      28.855  29.499  -7.675  0.00  0.00    -0.393 OA
HETATM   25  H   UNK N   1      28.591  29.502  -8.609  0.00  0.00     0.210 HD
ENDBRANCH   4  24
BRANCH   1  26
HETATM   26  O   UNK N   1      28.023  27.363  -4.094  0.00  0.00    -0.379 OA
HETATM   27  H   UNK N   1      28.569  26.877  -3.458  0.00  0.00     0.211 HD
ENDBRANCH   1  26
BRANCH   1  28
HETATM   28  C   UNK N   1      26.069  28.622  -3.720  0.00  0.00     0.176 C 
HETATM   29  O   UNK N   1      25.457  27.886  -2.960  0.00  0.00    -0.648 OA
BRANCH  28  30
HETATM   30  O   UNK N   1      25.928  29.957  -3.603  0.00  0.00    -0.774 OA
HETATM   31  H   UNK N   1      26.401  30.484  -2.988  0.00  0.00     0.167 HD
ENDBRANCH  28  30
ENDBRANCH   1  28
TORSDOF 11
ENDMDL
MODEL 6
REMARK VINA RESULT:      -6.9     11.121     14.213
REMARK  11 active torsions:
REMARK  status: ('A' for Active; 'I' for Inactive)
REMARK    1  A    between atoms: C_12  and  O_1 
REMARK    2  A    between atoms: O_1  and  C_17 
REMARK    3  A    between atoms: C_10  and  O_2 
REMARK    4  A    between atoms: C_11  and  O_3 
REMARK    5  A    between atoms: C_13  and  O_4 
REMARK    6  A    between atoms: O_5  and  C_16 
REMARK    7  A    between atoms: O_6  and  C_20 
REMARK    8  A    between atoms: O_7  and  C_21 
REMARK    9  A    between atoms: C_10  and  C_16 
REMARK   10  A    between atoms: C_17  and  C_18 
REMARK   11  A    between atoms: C_19  and  C_22 
ROOT
HETATM    1  C   UNK N   1      19.981  17.899   1.733  0.00  0.00     0.147 C 
HETATM    2  C   UNK N   1      21.654  20.297   2.277  0.00  0.00     0.176 C 
HETATM    3  C   UNK N   1      21.115  19.371   3.363  0.00  0.00     0.166 C 
HETATM    4  C   UNK N   1      20.652  20.282   1.112  0.00  0.00     0.152 C 
HETATM    5  C   UNK N   1      21.055  17.947   2.811  0.00  0.00     0.084 C 
HETATM    6  C   UNK N   1      20.394  18.854   0.597  0.00  0.00     0.083 C 
ENDROOT
BRANCH   3   7
HETATM    7  O   UNK N   1      21.789  19.455   4.567  0.00  0.00    -0.310 OA
BRANCH   7   8
HETATM    8  C   UNK N   1      22.822  18.607   4.854  0.00  0.00     0.283 C 
HETATM    9  O   UNK N   1      23.916  18.762   4.349  0.00  0.00    -0.260 OA
BRANCH   8  10
HETATM   10  C   UNK N   1      22.627  17.450   5.731  0.00  0.00     0.083 C 
HETATM   11  C   UNK N   1      21.521  17.230   6.437  0.00  0.00     0.017 C 
BRANCH  11  12
HETATM   12  C   UNK N   1      21.403  16.005   7.246  0.00  0.00    -0.033 A 
HETATM   13  C   UNK N   1      20.317  15.826   8.121  0.00  0.00     0.050 A 
HETATM   14  C   UNK N   1      20.216  14.674   8.897  0.00  0.00     0.099 A 
HETATM   15  C   UNK N   1      21.205  13.686   8.810  0.00  0.00     0.098 A 
HETATM   16  C   UNK N   1      22.290  13.860   7.943  0.00  0.00     0.040 A 
HETATM   17  C   UNK N   1      22.389  15.017   7.162  0.00  0.00     0.014 A 
BRANCH  14  18
HETATM   18  O   UNK N   1      19.167  14.519   9.725  0.00  0.00    -0.358 OA
HETATM   19  H   UNK N   1      18.319  14.324   9.376  0.00  0.00     0.217 HD
ENDBRANCH  14  18
BRANCH  15  20
HETATM   20  O   UNK N   1      21.117  12.571   9.555  0.00  0.00    -0.358 OA
HETATM   21  H   UNK N   1      20.737  11.795   9.194  0.00  0.00     0.217 HD
ENDBRANCH  15  20
ENDBRANCH  11  12
ENDBRANCH   8  10
ENDBRANCH   7   8
ENDBRANCH   3   7
BRANCH   2  22
HETATM   22  O   UNK N   1      21.773  21.597   2.771  0.00  0.00    -0.390 OA
HETATM   23  H   UNK N   1      21.952  21.816   3.699  0.00  0.00     0.210 HD
ENDBRANCH   2  22
BRANCH   4  24
HETATM   24  O   UNK N   1      21.113  21.077   0.063  0.00  0.00    -0.393 OA
HETATM   25  H   UNK N   1      21.591  20.690  -0.687  0.00  0.00     0.210 HD
ENDBRANCH   4  24
BRANCH   1  26
HETATM   26  O   UNK N   1      18.759  18.313   2.277  0.00  0.00    -0.379 OA
HETATM   27  H   UNK N   1      17.942  18.396   2.792  0.00  0.00     0.211 HD
ENDBRANCH   1  26
BRANCH   1  28
HETATM   28  C   UNK N   1      19.825  16.482   1.250  0.00  0.00     0.176 C 
HETATM   29  O   UNK N   1      20.050  16.211   0.079  0.00  0.00    -0.648 OA
BRANCH  28  30
HETATM   30  O   UNK N   1      19.461  15.500   2.097  0.00  0.00    -0.774 OA
HETATM   31  H   UNK N   1      18.841  15.608   2.792  0.00  0.00     0.167 HD
ENDBRANCH  28  30
ENDBRANCH   1  28
TORSDOF 11
ENDMDL
MODEL 7
REMARK VINA RESULT:      -6.9      4.506      9.403
REMARK  11 active torsions:
REMARK  status: ('A' for Active; 'I' for Inactive)
REMARK    1  A    between atoms: C_12  and  O_1 
REMARK    2  A    between atoms: O_1  and  C_17 
REMARK    3  A    between atoms: C_10  and  O_2 
REMARK    4  A    between atoms: C_11  and  O_3 
REMARK    5  A    between atoms: C_13  and  O_4 
REMARK    6  A    between atoms: O_5  and  C_16 
REMARK    7  A    between atoms: O_6  and  C_20 
REMARK    8  A    between atoms: O_7  and  C_21 
REMARK    9  A    between atoms: C_10  and  C_16 
REMARK   10  A    between atoms: C_17  and  C_18 
REMARK   11  A    between atoms: C_19  and  C_22 
ROOT
HETATM    1  C   UNK N   1      35.662  15.610  10.330  0.00  0.00     0.147 C 
HETATM    2  C   UNK N   1      36.100  12.751  11.022  0.00  0.00     0.176 C 
HETATM    3  C   UNK N   1      35.961  13.866  12.054  0.00  0.00     0.166 C 
HETATM    4  C   UNK N   1      36.727  13.363   9.758  0.00  0.00     0.152 C 
HETATM    5  C   UNK N   1      34.997  14.921  11.514  0.00  0.00     0.084 C 
HETATM    6  C   UNK N   1      35.910  14.557   9.234  0.00  0.00     0.083 C 
ENDROOT
BRANCH   3   7
HETATM    7  O   UNK N   1      35.624  13.426  13.321  0.00  0.00    -0.310 OA
BRANCH   7   8
HETATM    8  C   UNK N   1      36.089  14.069  14.435  0.00  0.00     0.283 C 
HETATM    9  O   UNK N   1      36.786  15.060  14.338  0.00  0.00    -0.260 OA
BRANCH   8  10
HETATM   10  C   UNK N   1      35.813  13.550  15.775  0.00  0.00     0.083 C 
HETATM   11  C   UNK N   1      35.744  12.255  16.073  0.00  0.00     0.017 C 
BRANCH  11  12
HETATM   12  C   UNK N   1      35.516  11.836  17.466  0.00  0.00    -0.033 A 
HETATM   13  C   UNK N   1      35.191  12.783  18.454  0.00  0.00     0.050 A 
HETATM   14  C   UNK N   1      34.991  12.386  19.775  0.00  0.00     0.099 A 
HETATM   15  C   UNK N   1      35.119  11.036  20.125  0.00  0.00     0.098 A 
HETATM   16  C   UNK N   1      35.447  10.091  19.146  0.00  0.00     0.040 A 
HETATM   17  C   UNK N   1      35.644  10.490  17.819  0.00  0.00     0.014 A 
BRANCH  14  18
HETATM   18  O   UNK N   1      34.675  13.306  20.704  0.00  0.00    -0.358 OA
HETATM   19  H   UNK N   1      34.763  13.102  21.615  0.00  0.00     0.217 HD
ENDBRANCH  14  18
BRANCH  15  20
HETATM   20  O   UNK N   1      34.929  10.645  21.395  0.00  0.00    -0.358 OA
HETATM   21  H   UNK N   1      35.531  10.050  21.798  0.00  0.00     0.217 HD
ENDBRANCH  15  20
ENDBRANCH  11  12
ENDBRANCH   8  10
ENDBRANCH   7   8
ENDBRANCH   3   7
BRANCH   2  22
HETATM   22  O   UNK N   1      36.932  11.743  11.513  0.00  0.00    -0.390 OA
HETATM   23  H   UNK N   1      37.056  10.880  11.089  0.00  0.00     0.210 HD
ENDBRANCH   2  22
BRANCH   4  24
HETATM   24  O   UNK N   1      36.838  12.400   8.756  0.00  0.00    -0.393 OA
HETATM   25  H   UNK N   1      37.512  11.704   8.803  0.00  0.00     0.210 HD
ENDBRANCH   4  24
BRANCH   1  26
HETATM   26  O   UNK N   1      36.883  16.161  10.739  0.00  0.00    -0.379 OA
HETATM   27  H   UNK N   1      37.808  16.442  10.809  0.00  0.00     0.211 HD
ENDBRANCH   1  26
BRANCH   1  28
HETATM   28  C   UNK N   1      34.779  16.730   9.847  0.00  0.00     0.176 C 
HETATM   29  O   UNK N   1      35.272  17.811   9.560  0.00  0.00    -0.648 OA
BRANCH  28  30
HETATM   30  O   UNK N   1      33.452  16.551   9.707  0.00  0.00    -0.774 OA
HETATM   31  H   UNK N   1      32.979  15.822  10.060  0.00  0.00     0.167 HD
ENDBRANCH  28  30
ENDBRANCH   1  28
TORSDOF 11
ENDMDL
MODEL 8
REMARK VINA RESULT:      -6.9      2.372      3.745
REMARK  11 active torsions:
REMARK  status: ('A' for Active; 'I' for Inactive)
REMARK    1  A    between atoms: C_12  and  O_1 
REMARK    2  A    between atoms: O_1  and  C_17 
REMARK    3  A    between atoms: C_10  and  O_2 
REMARK    4  A    between atoms: C_11  and  O_3 
REMARK    5  A    between atoms: C_13  and  O_4 
REMARK    6  A    between atoms: O_5  and  C_16 
REMARK    7  A    between atoms: O_6  and  C_20 
REMARK    8  A    between atoms: O_7  and  C_21 
REMARK    9  A    between atoms: C_10  and  C_16 
REMARK   10  A    between atoms: C_17  and  C_18 
REMARK   11  A    between atoms: C_19  and  C_22 
ROOT
HETATM    1  C   UNK N   1      34.612  13.535   8.993  0.00  0.00     0.147 C 
HETATM    2  C   UNK N   1      35.969  15.527  10.735  0.00  0.00     0.176 C 
HETATM    3  C   UNK N   1      35.045  15.897   9.578  0.00  0.00     0.166 C 
HETATM    4  C   UNK N   1      36.649  14.195  10.380  0.00  0.00     0.152 C 
HETATM    5  C   UNK N   1      33.958  14.831   9.456  0.00  0.00     0.084 C 
HETATM    6  C   UNK N   1      35.622  13.093  10.068  0.00  0.00     0.083 C 
ENDROOT
BRANCH   3   7
HETATM    7  O   UNK N   1      34.536  17.181   9.647  0.00  0.00    -0.310 OA
BRANCH   7   8
HETATM    8  C   UNK N   1      34.575  18.010   8.561  0.00  0.00     0.283 C 
HETATM    9  O   UNK N   1      35.307  18.979   8.542  0.00  0.00    -0.260 OA
BRANCH   8  10
HETATM   10  C   UNK N   1      33.691  17.793   7.414  0.00  0.00     0.083 C 
HETATM   11  C   UNK N   1      32.433  17.371   7.512  0.00  0.00     0.017 C 
BRANCH  11  12
HETATM   12  C   UNK N   1      31.610  17.238   6.298  0.00  0.00    -0.033 A 
HETATM   13  C   UNK N   1      32.194  17.337   5.023  0.00  0.00     0.050 A 
HETATM   14  C   UNK N   1      31.411  17.226   3.876  0.00  0.00     0.099 A 
HETATM   15  C   UNK N   1      30.031  17.018   3.992  0.00  0.00     0.098 A 
HETATM   16  C   UNK N   1      29.444  16.922   5.259  0.00  0.00     0.040 A 
HETATM   17  C   UNK N   1      30.232  17.031   6.411  0.00  0.00     0.014 A 
BRANCH  14  18
HETATM   18  O   UNK N   1      31.988  17.319   2.665  0.00  0.00    -0.358 OA
HETATM   19  H   UNK N   1      31.489  17.142   1.892  0.00  0.00     0.217 HD
ENDBRANCH  14  18
BRANCH  15  20
HETATM   20  O   UNK N   1      29.267  16.911   2.892  0.00  0.00    -0.358 OA
HETATM   21  H   UNK N   1      28.537  17.485   2.769  0.00  0.00     0.217 HD
ENDBRANCH  15  20
ENDBRANCH  11  12
ENDBRANCH   8  10
ENDBRANCH   7   8
ENDBRANCH   3   7
BRANCH   2  22
HETATM   22  O   UNK N   1      36.941  16.515  10.907  0.00  0.00    -0.390 OA
HETATM   23  H   UNK N   1      37.063  17.027  11.722  0.00  0.00     0.210 HD
ENDBRANCH   2  22
BRANCH   4  24
HETATM   24  O   UNK N   1      37.476  13.778  11.424  0.00  0.00    -0.393 OA
HETATM   25  H   UNK N   1      38.339  13.374  11.247  0.00  0.00     0.210 HD
ENDBRANCH   4  24
BRANCH   1  26
HETATM   26  O   UNK N   1      35.279  13.760   7.783  0.00  0.00    -0.379 OA
HETATM   27  H   UNK N   1      35.522  14.011   6.879  0.00  0.00     0.211 HD
ENDBRANCH   1  26
BRANCH   1  28
HETATM   28  C   UNK N   1      33.547  12.498   8.758  0.00  0.00     0.176 C 
HETATM   29  O   UNK N   1      33.791  11.524   8.060  0.00  0.00    -0.648 OA
BRANCH  28  30
HETATM   30  O   UNK N   1      32.330  12.617   9.325  0.00  0.00    -0.774 OA
HETATM   31  H   UNK N   1      32.181  12.959  10.185  0.00  0.00     0.167 HD
ENDBRANCH  28  30
ENDBRANCH   1  28
TORSDOF 11
ENDMDL
MODEL 9
REMARK VINA RESULT:      -6.6      3.830      6.626
REMARK  11 active torsions:
REMARK  status: ('A' for Active; 'I' for Inactive)
REMARK    1  A    between atoms: C_12  and  O_1 
REMARK    2  A    between atoms: O_1  and  C_17 
REMARK    3  A    between atoms: C_10  and  O_2 
REMARK    4  A    between atoms: C_11  and  O_3 
REMARK    5  A    between atoms: C_13  and  O_4 
REMARK    6  A    between atoms: O_5  and  C_16 
REMARK    7  A    between atoms: O_6  and  C_20 
REMARK    8  A    between atoms: O_7  and  C_21 
REMARK    9  A    between atoms: C_10  and  C_16 
REMARK   10  A    between atoms: C_17  and  C_18 
REMARK   11  A    between atoms: C_19  and  C_22 
ROOT
HETATM    1  C   UNK N   1      32.214  16.759   4.478  0.00  0.00     0.147 C 
HETATM    2  C   UNK N   1      32.299  17.271   7.407  0.00  0.00     0.176 C 
HETATM    3  C   UNK N   1      31.011  17.200   6.591  0.00  0.00     0.166 C 
HETATM    4  C   UNK N   1      33.407  17.797   6.480  0.00  0.00     0.152 C 
HETATM    5  C   UNK N   1      31.198  16.190   5.460  0.00  0.00     0.084 C 
HETATM    6  C   UNK N   1      33.554  16.933   5.215  0.00  0.00     0.083 C 
ENDROOT
BRANCH   3   7
HETATM    7  O   UNK N   1      29.876  16.962   7.343  0.00  0.00    -0.310 OA
BRANCH   7   8
HETATM    8  C   UNK N   1      29.043  17.985   7.702  0.00  0.00     0.283 C 
HETATM    9  O   UNK N   1      28.935  18.323   8.865  0.00  0.00    -0.260 OA
BRANCH   8  10
HETATM   10  C   UNK N   1      28.212  18.666   6.708  0.00  0.00     0.083 C 
HETATM   11  C   UNK N   1      27.470  18.036   5.801  0.00  0.00     0.017 C 
BRANCH  11  12
HETATM   12  C   UNK N   1      26.625  18.815   4.880  0.00  0.00    -0.033 A 
HETATM   13  C   UNK N   1      25.247  18.555   4.780  0.00  0.00     0.050 A 
HETATM   14  C   UNK N   1      24.452  19.282   3.896  0.00  0.00     0.099 A 
HETATM   15  C   UNK N   1      25.029  20.277   3.097  0.00  0.00     0.098 A 
HETATM   16  C   UNK N   1      26.401  20.537   3.190  0.00  0.00     0.040 A 
HETATM   17  C   UNK N   1      27.198  19.808   4.080  0.00  0.00     0.014 A 
BRANCH  14  18
HETATM   18  O   UNK N   1      23.135  19.023   3.818  0.00  0.00    -0.358 OA
HETATM   19  H   UNK N   1      22.541  19.427   4.420  0.00  0.00     0.217 HD
ENDBRANCH  14  18
BRANCH  15  20
HETATM   20  O   UNK N   1      24.272  20.983   2.241  0.00  0.00    -0.358 OA
HETATM   21  H   UNK N   1      23.375  21.161   2.446  0.00  0.00     0.217 HD
ENDBRANCH  15  20
ENDBRANCH  11  12
ENDBRANCH   8  10
ENDBRANCH   7   8
ENDBRANCH   3   7
BRANCH   2  22
HETATM   22  O   UNK N   1      32.137  18.145   8.483  0.00  0.00    -0.390 OA
HETATM   23  H   UNK N   1      32.148  17.875   9.414  0.00  0.00     0.210 HD
ENDBRANCH   2  22
BRANCH   4  24
HETATM   24  O   UNK N   1      34.626  17.841   7.157  0.00  0.00    -0.393 OA
HETATM   25  H   UNK N   1      35.219  18.604   7.072  0.00  0.00     0.210 HD
ENDBRANCH   4  24
BRANCH   1  26
HETATM   26  O   UNK N   1      31.766  18.002   4.016  0.00  0.00    -0.379 OA
HETATM   27  H   UNK N   1      31.386  18.891   3.933  0.00  0.00     0.211 HD
ENDBRANCH   1  26
BRANCH   1  28
HETATM   28  C   UNK N   1      32.335  15.834   3.297  0.00  0.00     0.176 C 
HETATM   29  O   UNK N   1      31.489  14.971   3.112  0.00  0.00    -0.648 OA
BRANCH  28  30
HETATM   30  O   UNK N   1      33.355  15.956   2.426  0.00  0.00    -0.774 OA
HETATM   31  H   UNK N   1      33.977  15.278   2.245  0.00  0.00     0.167 HD
ENDBRANCH  28  30
ENDBRANCH   1  28
TORSDOF 11
ENDMDL
