MODEL 1
REMARK VINA RESULT:      -6.5      0.000      0.000
REMARK  9 active torsions:
REMARK  status: ('A' for Active; 'I' for Inactive)
REMARK    1  A    between atoms: C_2  and  C_3 
REMARK    2  A    between atoms: C_2  and  C_14 
REMARK    3  A    between atoms: C_3  and  C_4 
REMARK    4  A    between atoms: C_7  and  O_12 
REMARK    5  A    between atoms: C_8  and  O_10 
REMARK    6  A    between atoms: C_14  and  C_16 
REMARK    7  A    between atoms: C_16  and  C_17 
REMARK    8  A    between atoms: C_20  and  O_25 
REMARK    9  A    between atoms: C_21  and  O_23 
ROOT
HETATM    1  C   UNK N   1      27.418  21.007   5.974  0.00  0.00     0.010 C 
HETATM    2  C   UNK N   1      26.897  19.773   5.245  0.00  0.00    -0.011 C 
ENDROOT
BRANCH   2   3
HETATM    3  C   UNK N   1      26.352  20.205   3.883  0.00  0.00     0.043 C 
BRANCH   3   4
HETATM    4  C   UNK N   1      24.895  19.881   3.781  0.00  0.00    -0.055 A 
HETATM    5  C   UNK N   1      24.070  20.616   2.930  0.00  0.00     0.010 A 
HETATM    6  C   UNK N   1      22.713  20.298   2.829  0.00  0.00     0.040 A 
HETATM    7  C   UNK N   1      22.162  19.236   3.561  0.00  0.00     0.101 A 
HETATM    8  C   UNK N   1      23.007  18.478   4.417  0.00  0.00     0.102 A 
HETATM    9  C   UNK N   1      24.359  18.825   4.518  0.00  0.00     0.046 A 
BRANCH   7  10
HETATM   10  O   UNK N   1      20.836  18.985   3.405  0.00  0.00    -0.353 OA
HETATM   11  C   UNK N   1      19.925  19.837   2.824  0.00  0.00     0.210 C 
ENDBRANCH   7  10
BRANCH   8  12
HETATM   12  O   UNK N   1      22.521  17.424   5.119  0.00  0.00    -0.353 OA
HETATM   13  C   UNK N   1      21.758  17.562   6.259  0.00  0.00     0.210 C 
ENDBRANCH   8  12
ENDBRANCH   3   4
ENDBRANCH   2   3
BRANCH   2  14
HETATM   14  C   UNK N   1      28.017  18.749   5.127  0.00  0.00    -0.011 C 
HETATM   15  C   UNK N   1      27.842  17.883   3.887  0.00  0.00     0.010 C 
BRANCH  14  16
HETATM   16  C   UNK N   1      27.999  17.842   6.352  0.00  0.00     0.043 C 
BRANCH  16  17
HETATM   17  C   UNK N   1      29.352  17.743   6.962  0.00  0.00    -0.055 A 
HETATM   18  C   UNK N   1      29.562  18.214   8.258  0.00  0.00     0.010 A 
HETATM   19  C   UNK N   1      30.828  18.117   8.838  0.00  0.00     0.040 A 
HETATM   20  C   UNK N   1      31.901  17.555   8.135  0.00  0.00     0.101 A 
HETATM   21  C   UNK N   1      31.689  17.083   6.810  0.00  0.00     0.102 A 
HETATM   22  C   UNK N   1      30.407  17.181   6.247  0.00  0.00     0.046 A 
BRANCH  20  23
HETATM   23  O   UNK N   1      33.101  17.493   8.769  0.00  0.00    -0.353 OA
HETATM   24  C   UNK N   1      33.699  16.346   9.238  0.00  0.00     0.210 C 
ENDBRANCH  20  23
BRANCH  21  25
HETATM   25  O   UNK N   1      32.707  16.549   6.093  0.00  0.00    -0.353 OA
HETATM   26  C   UNK N   1      33.532  17.292   5.278  0.00  0.00     0.210 C 
ENDBRANCH  21  25
ENDBRANCH  16  17
ENDBRANCH  14  16
ENDBRANCH   2  14
TORSDOF 9
ENDMDL
MODEL 2
REMARK VINA RESULT:      -6.5      1.458      9.412
REMARK  9 active torsions:
REMARK  status: ('A' for Active; 'I' for Inactive)
REMARK    1  A    between atoms: C_2  and  C_3 
REMARK    2  A    between atoms: C_2  and  C_14 
REMARK    3  A    between atoms: C_3  and  C_4 
REMARK    4  A    between atoms: C_7  and  O_12 
REMARK    5  A    between atoms: C_8  and  O_10 
REMARK    6  A    between atoms: C_14  and  C_16 
REMARK    7  A    between atoms: C_16  and  C_17 
REMARK    8  A    between atoms: C_20  and  O_25 
REMARK    9  A    between atoms: C_21  and  O_23 
ROOT
HETATM    1  C   UNK N   1      27.801  19.813   6.415  0.00  0.00     0.010 C 
HETATM    2  C   UNK N   1      28.159  18.381   6.030  0.00  0.00    -0.011 C 
ENDROOT
BRANCH   2   3
HETATM    3  C   UNK N   1      28.808  17.699   7.235  0.00  0.00     0.043 C 
BRANCH   3   4
HETATM    4  C   UNK N   1      30.266  17.479   6.985  0.00  0.00    -0.055 A 
HETATM    5  C   UNK N   1      31.191  17.670   8.011  0.00  0.00     0.010 A 
HETATM    6  C   UNK N   1      32.550  17.449   7.774  0.00  0.00     0.040 A 
HETATM    7  C   UNK N   1      33.006  17.019   6.519  0.00  0.00     0.101 A 
HETATM    8  C   UNK N   1      32.060  16.811   5.478  0.00  0.00     0.102 A 
HETATM    9  C   UNK N   1      30.706  17.057   5.730  0.00  0.00     0.046 A 
BRANCH   7  10
HETATM   10  O   UNK N   1      34.341  16.820   6.367  0.00  0.00    -0.353 OA
HETATM   11  C   UNK N   1      34.992  15.620   6.533  0.00  0.00     0.210 C 
ENDBRANCH   7  10
BRANCH   8  12
HETATM   12  O   UNK N   1      32.454  16.367   4.258  0.00  0.00    -0.353 OA
HETATM   13  C   UNK N   1      32.305  17.103   3.102  0.00  0.00     0.210 C 
ENDBRANCH   8  12
ENDBRANCH   3   4
ENDBRANCH   2   3
BRANCH   2  14
HETATM   14  C   UNK N   1      26.906  17.660   5.556  0.00  0.00    -0.011 C 
HETATM   15  C   UNK N   1      26.990  16.166   5.838  0.00  0.00     0.010 C 
BRANCH  14  16
HETATM   16  C   UNK N   1      26.753  17.854   4.051  0.00  0.00     0.043 C 
BRANCH  16  17
HETATM   17  C   UNK N   1      25.544  18.660   3.737  0.00  0.00    -0.055 A 
HETATM   18  C   UNK N   1      25.673  19.853   3.027  0.00  0.00     0.010 A 
HETATM   19  C   UNK N   1      24.540  20.610   2.724  0.00  0.00     0.040 A 
HETATM   20  C   UNK N   1      23.265  20.192   3.127  0.00  0.00     0.101 A 
HETATM   21  C   UNK N   1      23.135  18.980   3.860  0.00  0.00     0.102 A 
HETATM   22  C   UNK N   1      24.285  18.228   4.147  0.00  0.00     0.046 A 
BRANCH  20  23
HETATM   23  O   UNK N   1      22.211  20.981   2.791  0.00  0.00    -0.353 OA
HETATM   24  C   UNK N   1      21.239  20.667   1.871  0.00  0.00     0.210 C 
ENDBRANCH  20  23
BRANCH  21  25
HETATM   25  O   UNK N   1      21.920  18.552   4.282  0.00  0.00    -0.353 OA
HETATM   26  C   UNK N   1      21.303  17.421   3.795  0.00  0.00     0.210 C 
ENDBRANCH  21  25
ENDBRANCH  16  17
ENDBRANCH  14  16
ENDBRANCH   2  14
TORSDOF 9
ENDMDL
MODEL 3
REMARK VINA RESULT:      -6.5     11.179     14.789
REMARK  9 active torsions:
REMARK  status: ('A' for Active; 'I' for Inactive)
REMARK    1  A    between atoms: C_2  and  C_3 
REMARK    2  A    between atoms: C_2  and  C_14 
REMARK    3  A    between atoms: C_3  and  C_4 
REMARK    4  A    between atoms: C_7  and  O_12 
REMARK    5  A    between atoms: C_8  and  O_10 
REMARK    6  A    between atoms: C_14  and  C_16 
REMARK    7  A    between atoms: C_16  and  C_17 
REMARK    8  A    between atoms: C_20  and  O_25 
REMARK    9  A    between atoms: C_21  and  O_23 
ROOT
HETATM    1  C   UNK N   1      27.813  28.799  -6.578  0.00  0.00     0.010 C 
HETATM    2  C   UNK N   1      27.336  27.652  -5.694  0.00  0.00    -0.011 C 
ENDROOT
BRANCH   2   3
HETATM    3  C   UNK N   1      28.473  27.256  -4.751  0.00  0.00     0.043 C 
BRANCH   3   4
HETATM    4  C   UNK N   1      28.878  25.836  -4.993  0.00  0.00    -0.055 A 
HETATM    5  C   UNK N   1      29.217  25.412  -6.278  0.00  0.00     0.010 A 
HETATM    6  C   UNK N   1      29.608  24.088  -6.494  0.00  0.00     0.040 A 
HETATM    7  C   UNK N   1      29.683  23.173  -5.434  0.00  0.00     0.101 A 
HETATM    8  C   UNK N   1      29.352  23.611  -4.122  0.00  0.00     0.102 A 
HETATM    9  C   UNK N   1      28.943  24.935  -3.930  0.00  0.00     0.046 A 
BRANCH   7  10
HETATM   10  O   UNK N   1      30.077  21.905  -5.722  0.00  0.00    -0.353 OA
HETATM   11  C   UNK N   1      31.380  21.465  -5.761  0.00  0.00     0.210 C 
ENDBRANCH   7  10
BRANCH   8  12
HETATM   12  O   UNK N   1      29.439  22.766  -3.064  0.00  0.00    -0.353 OA
HETATM   13  C   UNK N   1      28.949  23.069  -1.812  0.00  0.00     0.210 C 
ENDBRANCH   8  12
ENDBRANCH   3   4
ENDBRANCH   2   3
BRANCH   2  14
HETATM   14  C   UNK N   1      26.082  28.081  -4.947  0.00  0.00    -0.011 C 
HETATM   15  C   UNK N   1      26.203  27.793  -3.457  0.00  0.00     0.010 C 
BRANCH  14  16
HETATM   16  C   UNK N   1      24.885  27.306  -5.488  0.00  0.00     0.043 C 
BRANCH  16  17
HETATM   17  C   UNK N   1      25.303  25.979  -6.015  0.00  0.00    -0.055 A 
HETATM   18  C   UNK N   1      25.430  24.898  -5.144  0.00  0.00     0.010 A 
HETATM   19  C   UNK N   1      25.815  23.649  -5.634  0.00  0.00     0.040 A 
HETATM   20  C   UNK N   1      26.082  23.461  -6.996  0.00  0.00     0.101 A 
HETATM   21  C   UNK N   1      25.961  24.566  -7.883  0.00  0.00     0.102 A 
HETATM   22  C   UNK N   1      25.564  25.812  -7.373  0.00  0.00     0.046 A 
BRANCH  20  23
HETATM   23  O   UNK N   1      26.448  22.215  -7.397  0.00  0.00    -0.353 OA
HETATM   24  C   UNK N   1      25.635  21.313  -8.043  0.00  0.00     0.210 C 
ENDBRANCH  20  23
BRANCH  21  25
HETATM   25  O   UNK N   1      26.228  24.427  -9.205  0.00  0.00    -0.353 OA
HETATM   26  C   UNK N   1      25.352  24.805 -10.199  0.00  0.00     0.210 C 
ENDBRANCH  21  25
ENDBRANCH  16  17
ENDBRANCH  14  16
ENDBRANCH   2  14
TORSDOF 9
ENDMDL
MODEL 4
REMARK VINA RESULT:      -6.2      3.859      5.715
REMARK  9 active torsions:
REMARK  status: ('A' for Active; 'I' for Inactive)
REMARK    1  A    between atoms: C_2  and  C_3 
REMARK    2  A    between atoms: C_2  and  C_14 
REMARK    3  A    between atoms: C_3  and  C_4 
REMARK    4  A    between atoms: C_7  and  O_12 
REMARK    5  A    between atoms: C_8  and  O_10 
REMARK    6  A    between atoms: C_14  and  C_16 
REMARK    7  A    between atoms: C_16  and  C_17 
REMARK    8  A    between atoms: C_20  and  O_25 
REMARK    9  A    between atoms: C_21  and  O_23 
ROOT
HETATM    1  C   UNK N   1      31.153  14.351   3.683  0.00  0.00     0.010 C 
HETATM    2  C   UNK N   1      30.817  15.736   4.224  0.00  0.00    -0.011 C 
ENDROOT
BRANCH   2   3
HETATM    3  C   UNK N   1      30.145  15.577   5.589  0.00  0.00     0.043 C 
BRANCH   3   4
HETATM    4  C   UNK N   1      29.356  16.803   5.925  0.00  0.00    -0.055 A 
HETATM    5  C   UNK N   1      28.532  17.392   4.966  0.00  0.00     0.010 A 
HETATM    6  C   UNK N   1      27.787  18.528   5.291  0.00  0.00     0.040 A 
HETATM    7  C   UNK N   1      27.839  19.085   6.578  0.00  0.00     0.101 A 
HETATM    8  C   UNK N   1      28.667  18.474   7.558  0.00  0.00     0.102 A 
HETATM    9  C   UNK N   1      29.421  17.349   7.207  0.00  0.00     0.046 A 
BRANCH   7  10
HETATM   10  O   UNK N   1      27.081  20.186   6.819  0.00  0.00    -0.353 OA
HETATM   11  C   UNK N   1      27.288  21.432   6.272  0.00  0.00     0.210 C 
ENDBRANCH   7  10
BRANCH   8  12
HETATM   12  O   UNK N   1      28.724  18.962   8.823  0.00  0.00    -0.353 OA
HETATM   13  C   UNK N   1      29.595  18.485   9.779  0.00  0.00     0.210 C 
ENDBRANCH   8  12
ENDBRANCH   3   4
ENDBRANCH   2   3
BRANCH   2  14
HETATM   14  C   UNK N   1      32.088  16.571   4.293  0.00  0.00    -0.011 C 
HETATM   15  C   UNK N   1      32.417  17.184   2.940  0.00  0.00     0.010 C 
BRANCH  14  16
HETATM   16  C   UNK N   1      33.252  15.679   4.711  0.00  0.00     0.043 C 
BRANCH  16  17
HETATM   17  C   UNK N   1      33.792  16.092   6.034  0.00  0.00    -0.055 A 
HETATM   18  C   UNK N   1      33.701  17.425   6.433  0.00  0.00     0.010 A 
HETATM   19  C   UNK N   1      34.200  17.816   7.676  0.00  0.00     0.040 A 
HETATM   20  C   UNK N   1      34.800  16.887   8.536  0.00  0.00     0.101 A 
HETATM   21  C   UNK N   1      34.901  15.529   8.125  0.00  0.00     0.102 A 
HETATM   22  C   UNK N   1      34.385  15.154   6.875  0.00  0.00     0.046 A 
BRANCH  20  23
HETATM   23  O   UNK N   1      35.258  17.345   9.731  0.00  0.00    -0.353 OA
HETATM   24  C   UNK N   1      35.219  16.654  10.919  0.00  0.00     0.210 C 
ENDBRANCH  20  23
BRANCH  21  25
HETATM   25  O   UNK N   1      35.491  14.605   8.923  0.00  0.00    -0.353 OA
HETATM   26  C   UNK N   1      36.698  14.011   8.630  0.00  0.00     0.210 C 
ENDBRANCH  21  25
ENDBRANCH  16  17
ENDBRANCH  14  16
ENDBRANCH   2  14
TORSDOF 9
ENDMDL
MODEL 5
REMARK VINA RESULT:      -6.2     11.502     14.054
REMARK  9 active torsions:
REMARK  status: ('A' for Active; 'I' for Inactive)
REMARK    1  A    between atoms: C_2  and  C_3 
REMARK    2  A    between atoms: C_2  and  C_14 
REMARK    3  A    between atoms: C_3  and  C_4 
REMARK    4  A    between atoms: C_7  and  O_12 
REMARK    5  A    between atoms: C_8  and  O_10 
REMARK    6  A    between atoms: C_14  and  C_16 
REMARK    7  A    between atoms: C_16  and  C_17 
REMARK    8  A    between atoms: C_20  and  O_25 
REMARK    9  A    between atoms: C_21  and  O_23 
ROOT
HETATM    1  C   UNK N   1      26.126  26.188  -9.257  0.00  0.00     0.010 C 
HETATM    2  C   UNK N   1      26.330  25.796  -7.798  0.00  0.00    -0.011 C 
ENDROOT
BRANCH   2   3
HETATM    3  C   UNK N   1      25.266  26.494  -6.951  0.00  0.00     0.043 C 
BRANCH   3   4
HETATM    4  C   UNK N   1      25.911  27.413  -5.962  0.00  0.00    -0.055 A 
HETATM    5  C   UNK N   1      25.322  27.627  -4.715  0.00  0.00     0.010 A 
HETATM    6  C   UNK N   1      25.937  28.475  -3.791  0.00  0.00     0.040 A 
HETATM    7  C   UNK N   1      27.153  29.109  -4.087  0.00  0.00     0.101 A 
HETATM    8  C   UNK N   1      27.759  28.878  -5.352  0.00  0.00     0.102 A 
HETATM    9  C   UNK N   1      27.117  28.041  -6.271  0.00  0.00     0.046 A 
BRANCH   7  10
HETATM   10  O   UNK N   1      27.692  29.914  -3.135  0.00  0.00    -0.353 OA
HETATM   11  C   UNK N   1      28.041  29.523  -1.863  0.00  0.00     0.210 C 
ENDBRANCH   7  10
BRANCH   8  12
HETATM   12  O   UNK N   1      28.950  29.447  -5.668  0.00  0.00    -0.353 OA
HETATM   13  C   UNK N   1      29.100  30.377  -6.674  0.00  0.00     0.210 C 
ENDBRANCH   8  12
ENDBRANCH   3   4
ENDBRANCH   2   3
BRANCH   2  14
HETATM   14  C   UNK N   1      26.274  24.280  -7.672  0.00  0.00    -0.011 C 
HETATM   15  C   UNK N   1      25.186  23.694  -8.560  0.00  0.00     0.010 C 
BRANCH  14  16
HETATM   16  C   UNK N   1      25.964  23.908  -6.226  0.00  0.00     0.043 C 
BRANCH  16  17
HETATM   17  C   UNK N   1      27.212  23.800  -5.424  0.00  0.00    -0.055 A 
HETATM   18  C   UNK N   1      27.247  24.314  -4.128  0.00  0.00     0.010 A 
HETATM   19  C   UNK N   1      28.414  24.210  -3.368  0.00  0.00     0.040 A 
HETATM   20  C   UNK N   1      29.560  23.596  -3.889  0.00  0.00     0.101 A 
HETATM   21  C   UNK N   1      29.527  23.080  -5.214  0.00  0.00     0.102 A 
HETATM   22  C   UNK N   1      28.342  23.187  -5.959  0.00  0.00     0.046 A 
BRANCH  20  23
HETATM   23  O   UNK N   1      30.655  23.530  -3.087  0.00  0.00    -0.353 OA
HETATM   24  C   UNK N   1      31.194  22.378  -2.566  0.00  0.00     0.210 C 
ENDBRANCH  20  23
BRANCH  21  25
HETATM   25  O   UNK N   1      30.622  22.496  -5.759  0.00  0.00    -0.353 OA
HETATM   26  C   UNK N   1      30.693  21.153  -6.060  0.00  0.00     0.210 C 
ENDBRANCH  21  25
ENDBRANCH  16  17
ENDBRANCH  14  16
ENDBRANCH   2  14
TORSDOF 9
ENDMDL
MODEL 6
REMARK VINA RESULT:      -6.2      1.431      9.502
REMARK  9 active torsions:
REMARK  status: ('A' for Active; 'I' for Inactive)
REMARK    1  A    between atoms: C_2  and  C_3 
REMARK    2  A    between atoms: C_2  and  C_14 
REMARK    3  A    between atoms: C_3  and  C_4 
REMARK    4  A    between atoms: C_7  and  O_12 
REMARK    5  A    between atoms: C_8  and  O_10 
REMARK    6  A    between atoms: C_14  and  C_16 
REMARK    7  A    between atoms: C_16  and  C_17 
REMARK    8  A    between atoms: C_20  and  O_25 
REMARK    9  A    between atoms: C_21  and  O_23 
ROOT
HETATM    1  C   UNK N   1      28.185  18.943   6.711  0.00  0.00     0.010 C 
HETATM    2  C   UNK N   1      28.750  18.033   5.626  0.00  0.00    -0.011 C 
ENDROOT
BRANCH   2   3
HETATM    3  C   UNK N   1      29.184  16.716   6.271  0.00  0.00     0.043 C 
BRANCH   3   4
HETATM    4  C   UNK N   1      30.675  16.598   6.258  0.00  0.00    -0.055 A 
HETATM    5  C   UNK N   1      31.395  16.912   5.105  0.00  0.00     0.010 A 
HETATM    6  C   UNK N   1      32.788  16.813   5.104  0.00  0.00     0.040 A 
HETATM    7  C   UNK N   1      33.486  16.416   6.255  0.00  0.00     0.101 A 
HETATM    8  C   UNK N   1      32.753  16.111   7.434  0.00  0.00     0.102 A 
HETATM    9  C   UNK N   1      31.356  16.197   7.407  0.00  0.00     0.046 A 
BRANCH   7  10
HETATM   10  O   UNK N   1      34.841  16.350   6.178  0.00  0.00    -0.353 OA
HETATM   11  C   UNK N   1      35.569  15.216   5.896  0.00  0.00     0.210 C 
ENDBRANCH   7  10
BRANCH   8  12
HETATM   12  O   UNK N   1      33.390  15.751   8.576  0.00  0.00    -0.353 OA
HETATM   13  C   UNK N   1      32.845  14.894   9.509  0.00  0.00     0.210 C 
ENDBRANCH   8  12
ENDBRANCH   3   4
ENDBRANCH   2   3
BRANCH   2  14
HETATM   14  C   UNK N   1      27.702  17.833   4.541  0.00  0.00    -0.011 C 
HETATM   15  C   UNK N   1      28.205  16.889   3.458  0.00  0.00     0.010 C 
BRANCH  14  16
HETATM   16  C   UNK N   1      27.386  19.178   3.895  0.00  0.00     0.043 C 
BRANCH  16  17
HETATM   17  C   UNK N   1      25.918  19.381   3.777  0.00  0.00    -0.055 A 
HETATM   18  C   UNK N   1      25.424  20.389   2.950  0.00  0.00     0.010 A 
HETATM   19  C   UNK N   1      24.046  20.580   2.830  0.00  0.00     0.040 A 
HETATM   20  C   UNK N   1      23.144  19.773   3.534  0.00  0.00     0.101 A 
HETATM   21  C   UNK N   1      23.648  18.751   4.385  0.00  0.00     0.102 A 
HETATM   22  C   UNK N   1      25.036  18.569   4.486  0.00  0.00     0.046 A 
BRANCH  20  23
HETATM   23  O   UNK N   1      21.818  20.018   3.363  0.00  0.00    -0.353 OA
HETATM   24  C   UNK N   1      21.272  20.798   2.370  0.00  0.00     0.210 C 
ENDBRANCH  20  23
BRANCH  21  25
HETATM   25  O   UNK N   1      22.806  17.962   5.097  0.00  0.00    -0.353 OA
HETATM   26  C   UNK N   1      22.515  16.660   4.752  0.00  0.00     0.210 C 
ENDBRANCH  21  25
ENDBRANCH  16  17
ENDBRANCH  14  16
ENDBRANCH   2  14
TORSDOF 9
ENDMDL
MODEL 7
REMARK VINA RESULT:      -6.1     10.708     16.115
REMARK  9 active torsions:
REMARK  status: ('A' for Active; 'I' for Inactive)
REMARK    1  A    between atoms: C_2  and  C_3 
REMARK    2  A    between atoms: C_2  and  C_14 
REMARK    3  A    between atoms: C_3  and  C_4 
REMARK    4  A    between atoms: C_7  and  O_12 
REMARK    5  A    between atoms: C_8  and  O_10 
REMARK    6  A    between atoms: C_14  and  C_16 
REMARK    7  A    between atoms: C_16  and  C_17 
REMARK    8  A    between atoms: C_20  and  O_25 
REMARK    9  A    between atoms: C_21  and  O_23 
ROOT
HETATM    1  C   UNK N   1      33.754  10.766  14.741  0.00  0.00     0.010 C 
HETATM    2  C   UNK N   1      34.712  11.400  15.743  0.00  0.00    -0.011 C 
ENDROOT
BRANCH   2   3
HETATM    3  C   UNK N   1      35.496  10.288  16.441  0.00  0.00     0.043 C 
BRANCH   3   4
HETATM    4  C   UNK N   1      35.093  10.191  17.878  0.00  0.00    -0.055 A 
HETATM    5  C   UNK N   1      35.491  11.171  18.787  0.00  0.00     0.010 A 
HETATM    6  C   UNK N   1      35.098  11.083  20.124  0.00  0.00     0.040 A 
HETATM    7  C   UNK N   1      34.292  10.026  20.574  0.00  0.00     0.101 A 
HETATM    8  C   UNK N   1      33.875   9.035  19.643  0.00  0.00     0.102 A 
HETATM    9  C   UNK N   1      34.295   9.132  18.312  0.00  0.00     0.046 A 
BRANCH   7  10
HETATM   10  O   UNK N   1      33.947  10.011  21.887  0.00  0.00    -0.353 OA
HETATM   11  C   UNK N   1      32.877  10.679  22.439  0.00  0.00     0.210 C 
ENDBRANCH   7  10
BRANCH   8  12
HETATM   12  O   UNK N   1      33.070   8.013  20.029  0.00  0.00    -0.353 OA
HETATM   13  C   UNK N   1      33.128   6.753  19.472  0.00  0.00     0.210 C 
ENDBRANCH   8  12
ENDBRANCH   3   4
ENDBRANCH   2   3
BRANCH   2  14
HETATM   14  C   UNK N   1      35.618  12.386  15.019  0.00  0.00    -0.011 C 
HETATM   15  C   UNK N   1      36.047  13.519  15.940  0.00  0.00     0.010 C 
BRANCH  14  16
HETATM   16  C   UNK N   1      34.864  12.987  13.839  0.00  0.00     0.043 C 
BRANCH  16  17
HETATM   17  C   UNK N   1      35.790  13.308  12.720  0.00  0.00    -0.055 A 
HETATM   18  C   UNK N   1      36.821  12.425  12.401  0.00  0.00     0.010 A 
HETATM   19  C   UNK N   1      37.689  12.718  11.348  0.00  0.00     0.040 A 
HETATM   20  C   UNK N   1      37.545  13.895  10.602  0.00  0.00     0.101 A 
HETATM   21  C   UNK N   1      36.499  14.800  10.934  0.00  0.00     0.102 A 
HETATM   22  C   UNK N   1      35.631  14.484  11.990  0.00  0.00     0.046 A 
BRANCH  20  23
HETATM   23  O   UNK N   1      38.427  14.108   9.591  0.00  0.00    -0.353 OA
HETATM   24  C   UNK N   1      38.288  13.651   8.301  0.00  0.00     0.210 C 
ENDBRANCH  20  23
BRANCH  21  25
HETATM   25  O   UNK N   1      36.339  15.958  10.246  0.00  0.00    -0.353 OA
HETATM   26  C   UNK N   1      35.169  16.685  10.249  0.00  0.00     0.210 C 
ENDBRANCH  21  25
ENDBRANCH  16  17
ENDBRANCH  14  16
ENDBRANCH   2  14
TORSDOF 9
ENDMDL
MODEL 8
REMARK VINA RESULT:      -6.1      6.654      9.273
REMARK  9 active torsions:
REMARK  status: ('A' for Active; 'I' for Inactive)
REMARK    1  A    between atoms: C_2  and  C_3 
REMARK    2  A    between atoms: C_2  and  C_14 
REMARK    3  A    between atoms: C_3  and  C_4 
REMARK    4  A    between atoms: C_7  and  O_12 
REMARK    5  A    between atoms: C_8  and  O_10 
REMARK    6  A    between atoms: C_14  and  C_16 
REMARK    7  A    between atoms: C_16  and  C_17 
REMARK    8  A    between atoms: C_20  and  O_25 
REMARK    9  A    between atoms: C_21  and  O_23 
ROOT
HETATM    1  C   UNK N   1      23.491  18.617   4.039  0.00  0.00     0.010 C 
HETATM    2  C   UNK N   1      22.121  18.005   4.311  0.00  0.00    -0.011 C 
ENDROOT
BRANCH   2   3
HETATM    3  C   UNK N   1      21.707  18.350   5.742  0.00  0.00     0.043 C 
BRANCH   3   4
HETATM    4  C   UNK N   1      21.408  17.102   6.510  0.00  0.00    -0.055 A 
HETATM    5  C   UNK N   1      22.308  16.036   6.498  0.00  0.00     0.010 A 
HETATM    6  C   UNK N   1      22.029  14.879   7.230  0.00  0.00     0.040 A 
HETATM    7  C   UNK N   1      20.859  14.772   7.996  0.00  0.00     0.101 A 
HETATM    8  C   UNK N   1      19.950  15.865   8.020  0.00  0.00     0.102 A 
HETATM    9  C   UNK N   1      20.238  17.007   7.265  0.00  0.00     0.046 A 
BRANCH   7  10
HETATM   10  O   UNK N   1      20.660  13.618   8.685  0.00  0.00    -0.353 OA
HETATM   11  C   UNK N   1      21.534  12.557   8.731  0.00  0.00     0.210 C 
ENDBRANCH   7  10
BRANCH   8  12
HETATM   12  O   UNK N   1      18.821  15.815   8.772  0.00  0.00    -0.353 OA
HETATM   13  C   UNK N   1      18.165  16.939   9.227  0.00  0.00     0.210 C 
ENDBRANCH   8  12
ENDBRANCH   3   4
ENDBRANCH   2   3
BRANCH   2  14
HETATM   14  C   UNK N   1      21.128  18.516   3.277  0.00  0.00    -0.011 C 
HETATM   15  C   UNK N   1      20.707  19.948   3.579  0.00  0.00     0.010 C 
BRANCH  14  16
HETATM   16  C   UNK N   1      19.883  17.637   3.300  0.00  0.00     0.043 C 
BRANCH  16  17
HETATM   17  C   UNK N   1      20.224  16.220   3.003  0.00  0.00    -0.055 A 
HETATM   18  C   UNK N   1      19.737  15.204   3.824  0.00  0.00     0.010 A 
HETATM   19  C   UNK N   1      20.049  13.873   3.547  0.00  0.00     0.040 A 
HETATM   20  C   UNK N   1      20.854  13.535   2.451  0.00  0.00     0.101 A 
HETATM   21  C   UNK N   1      21.359  14.572   1.619  0.00  0.00     0.102 A 
HETATM   22  C   UNK N   1      21.027  15.904   1.909  0.00  0.00     0.046 A 
BRANCH  20  23
HETATM   23  O   UNK N   1      21.110  12.217   2.245  0.00  0.00    -0.353 OA
HETATM   24  C   UNK N   1      20.201  11.286   1.799  0.00  0.00     0.210 C 
ENDBRANCH  20  23
BRANCH  21  25
HETATM   25  O   UNK N   1      22.155  14.285   0.560  0.00  0.00    -0.353 OA
HETATM   26  C   UNK N   1      23.519  14.118   0.660  0.00  0.00     0.210 C 
ENDBRANCH  21  25
ENDBRANCH  16  17
ENDBRANCH  14  16
ENDBRANCH   2  14
TORSDOF 9
ENDMDL
MODEL 9
REMARK VINA RESULT:      -6.1     11.144     14.876
REMARK  9 active torsions:
REMARK  status: ('A' for Active; 'I' for Inactive)
REMARK    1  A    between atoms: C_2  and  C_3 
REMARK    2  A    between atoms: C_2  and  C_14 
REMARK    3  A    between atoms: C_3  and  C_4 
REMARK    4  A    between atoms: C_7  and  O_12 
REMARK    5  A    between atoms: C_8  and  O_10 
REMARK    6  A    between atoms: C_14  and  C_16 
REMARK    7  A    between atoms: C_16  and  C_17 
REMARK    8  A    between atoms: C_20  and  O_25 
REMARK    9  A    between atoms: C_21  and  O_23 
ROOT
HETATM    1  C   UNK N   1      29.179  26.401  -4.192  0.00  0.00     0.010 C 
HETATM    2  C   UNK N   1      28.232  25.252  -4.520  0.00  0.00    -0.011 C 
ENDROOT
BRANCH   2   3
HETATM    3  C   UNK N   1      28.385  24.173  -3.448  0.00  0.00     0.043 C 
BRANCH   3   4
HETATM    4  C   UNK N   1      29.277  23.077  -3.938  0.00  0.00    -0.055 A 
HETATM    5  C   UNK N   1      30.090  22.380  -3.044  0.00  0.00     0.010 A 
HETATM    6  C   UNK N   1      30.910  21.348  -3.506  0.00  0.00     0.040 A 
HETATM    7  C   UNK N   1      30.922  20.985  -4.861  0.00  0.00     0.101 A 
HETATM    8  C   UNK N   1      30.082  21.686  -5.769  0.00  0.00     0.102 A 
HETATM    9  C   UNK N   1      29.282  22.729  -5.289  0.00  0.00     0.046 A 
BRANCH   7  10
HETATM   10  O   UNK N   1      31.742  19.968  -5.234  0.00  0.00    -0.353 OA
HETATM   11  C   UNK N   1      32.907  19.608  -4.596  0.00  0.00     0.210 C 
ENDBRANCH   7  10
BRANCH   8  12
HETATM   12  O   UNK N   1      30.040  21.347  -7.082  0.00  0.00    -0.353 OA
HETATM   13  C   UNK N   1      29.013  20.620  -7.644  0.00  0.00     0.210 C 
ENDBRANCH   8  12
ENDBRANCH   3   4
ENDBRANCH   2   3
BRANCH   2  14
HETATM   14  C   UNK N   1      26.809  25.785  -4.613  0.00  0.00    -0.011 C 
HETATM   15  C   UNK N   1      26.449  26.610  -3.386  0.00  0.00     0.010 C 
BRANCH  14  16
HETATM   16  C   UNK N   1      25.839  24.612  -4.703  0.00  0.00     0.043 C 
BRANCH  16  17
HETATM   17  C   UNK N   1      25.759  24.091  -6.094  0.00  0.00    -0.055 A 
HETATM   18  C   UNK N   1      25.672  22.717  -6.314  0.00  0.00     0.010 A 
HETATM   19  C   UNK N   1      25.590  22.224  -7.617  0.00  0.00     0.040 A 
HETATM   20  C   UNK N   1      25.597  23.091  -8.717  0.00  0.00     0.101 A 
HETATM   21  C   UNK N   1      25.696  24.492  -8.493  0.00  0.00     0.102 A 
HETATM   22  C   UNK N   1      25.769  24.969  -7.176  0.00  0.00     0.046 A 
BRANCH  20  23
HETATM   23  O   UNK N   1      25.510  22.534  -9.954  0.00  0.00    -0.353 OA
HETATM   24  C   UNK N   1      26.119  21.367 -10.350  0.00  0.00     0.210 C 
ENDBRANCH  20  23
BRANCH  21  25
HETATM   25  O   UNK N   1      25.724  25.361  -9.533  0.00  0.00    -0.353 OA
HETATM   26  C   UNK N   1      26.765  26.232  -9.765  0.00  0.00     0.210 C 
ENDBRANCH  21  25
ENDBRANCH  16  17
ENDBRANCH  14  16
ENDBRANCH   2  14
TORSDOF 9
ENDMDL
