REMARK  15 active torsions:
REMARK  status: ('A' for Active; 'I' for Inactive)
REMARK    1  A    between atoms: C_4  and  C_7 
REMARK    2  A    between atoms: C_7  and  C_8 
REMARK    3  A    between atoms: C_8  and  O_9 
REMARK    4  A    between atoms: O_9  and  C_10 
REMARK    5  A    between atoms: C_10  and  C_11 
REMARK    6  A    between atoms: C_11  and  C_12 
REMARK    7  A    between atoms: C_12  and  C_13 
REMARK    8  A    between atoms: C_13  and  C_14 
REMARK    9  A    between atoms: C_14  and  C_15 
REMARK   10  A    between atoms: C_15  and  N_16 
REMARK   11  A    between atoms: N_16  and  C_17 
REMARK   12  A    between atoms: C_17  and  C_18 
REMARK   13  A    between atoms: C_18  and  C_19 
REMARK   14  A    between atoms: C_18  and  O_31 
REMARK   15  A    between atoms: C_22  and  O_30 
ROOT
HETATM    1  N   UNK N   1      -3.590  -0.526  -1.081  0.00  0.00    -0.418 N 
HETATM    2  H   UNK N   1      -4.245   0.162  -1.451  0.00  0.00     0.153 HD
ENDROOT
BRANCH   1   3
HETATM    3  C   UNK N   1      -3.941  -1.722  -0.325  0.00  0.00     0.113 C 
BRANCH   3   4
HETATM    4  C   UNK N   1      -4.823  -1.352   0.860  0.00  0.00     0.019 C 
BRANCH   4   5
HETATM    5  C   UNK N   1      -6.100  -0.672   0.395  0.00  0.00     0.002 C 
BRANCH   5   6
HETATM    6  C   UNK N   1      -5.835   0.788   0.053  0.00  0.00     0.002 C 
BRANCH   6   7
HETATM    7  C   UNK N   1      -6.996   1.375  -0.732  0.00  0.00     0.026 C 
BRANCH   7   8
HETATM    8  C   UNK N   1      -7.999   2.045   0.197  0.00  0.00     0.168 C 
BRANCH   8   9
HETATM    9  O   UNK N   1      -8.421   1.135   1.173  0.00  0.00    -0.385 OA
BRANCH   9  10
HETATM   10  C   UNK N   1      -9.759   0.814   0.902  0.00  0.00     0.252 C 
BRANCH  10  11
HETATM   11  C   UNK N   1      -9.896  -0.222  -0.220  0.00  0.00     0.291 C 
HETATM   12  F   UNK N   1      -8.831  -1.106  -0.178  0.00  0.00    -0.198 F 
HETATM   13  F   UNK N   1      -9.887   0.424  -1.444  0.00  0.00    -0.198 F 
BRANCH  11  14
HETATM   14  C   UNK N   1     -11.183  -0.979  -0.065  0.00  0.00     0.015 A 
HETATM   15  C   UNK N   1     -12.412  -0.303  -0.078  0.00  0.00     0.013 A 
HETATM   16  C   UNK N   1     -13.606  -1.015   0.072  0.00  0.00     0.001 A 
HETATM   17  C   UNK N   1     -13.579  -2.404   0.230  0.00  0.00     0.000 A 
HETATM   18  C   UNK N   1     -12.359  -3.083   0.240  0.00  0.00     0.001 A 
HETATM   19  C   UNK N   1     -11.166  -2.374   0.094  0.00  0.00     0.013 A 
ENDBRANCH  11  14
ENDBRANCH  10  11
ENDBRANCH   9  10
ENDBRANCH   8   9
ENDBRANCH   7   8
ENDBRANCH   6   7
ENDBRANCH   5   6
ENDBRANCH   4   5
ENDBRANCH   3   4
ENDBRANCH   1   3
BRANCH   1  20
HETATM   20  C   UNK N   1      -2.149  -0.487  -1.214  0.00  0.00     0.150 C 
BRANCH  20  21
HETATM   21  C   UNK N   1      -1.499  -0.003   0.076  0.00  0.00     0.169 C 
BRANCH  21  22
HETATM   22  C   UNK N   1      -0.107  -0.585   0.133  0.00  0.00    -0.015 A 
HETATM   23  C   UNK N   1      -0.030  -1.984   0.202  0.00  0.00     0.013 A 
HETATM   24  C   UNK N   1       1.195  -2.641   0.214  0.00  0.00     0.039 A 
HETATM   25  C   UNK N   1       2.379  -1.914   0.155  0.00  0.00     0.093 A 
HETATM   26  C   UNK N   1       2.344  -0.514   0.096  0.00  0.00     0.079 A 
HETATM   27  C   UNK N   1       1.098   0.166   0.088  0.00  0.00     0.003 A 
HETATM   28  N   UNK N   1       3.505   0.191   0.035  0.00  0.00    -0.321 N 
HETATM   29  C   UNK N   1       1.107   1.566   0.017  0.00  0.00     0.020 A 
HETATM   30  C   UNK N   1       2.311   2.265  -0.041  0.00  0.00     0.075 A 
HETATM   31  C   UNK N   1       3.514   1.560  -0.033  0.00  0.00     0.245 A 
HETATM   32  O   UNK N   1       4.570   2.159  -0.088  0.00  0.00    -0.268 OA
HETATM   33  H   UNK N   1       4.361  -0.295   0.040  0.00  0.00     0.169 HD
BRANCH  25  34
HETATM   34  O   UNK N   1       3.554  -2.566   0.151  0.00  0.00    -0.358 OA
HETATM   35  H   UNK N   1       3.570  -3.503   0.148  0.00  0.00     0.217 HD
ENDBRANCH  25  34
ENDBRANCH  21  22
BRANCH  21  36
HETATM   36  O   UNK N   1      -1.557   1.391   0.140  0.00  0.00    -0.389 OA
HETATM   37  H   UNK N   1      -0.739   1.910   0.185  0.00  0.00     0.210 HD
ENDBRANCH  21  36
ENDBRANCH  20  21
ENDBRANCH   1  20
TORSDOF 15
