MODEL 1
REMARK VINA RESULT:      -6.9      0.000      0.000
REMARK  7 active torsions:
REMARK  status: ('A' for Active; 'I' for Inactive)
REMARK    1  A    between atoms: C_10  and  C_8 
REMARK    2  A    between atoms: C_17  and  C_8 
REMARK    3  A    between atoms: O_23  and  C_10 
REMARK    4  A    between atoms: C_15  and  C_13 
REMARK    5  A    between atoms: N_21  and  C_13 
REMARK    6  A    between atoms: O_23  and  C_16 
REMARK    7  A    between atoms: N_20  and  C_18 
ROOT
HETATM    1  C   UNK N   1      33.478  14.891   9.823  0.00  0.00     0.054 A 
HETATM    2  C   UNK N   1      32.740  15.488   8.803  0.00  0.00     0.097 A 
HETATM    3  C   UNK N   1      34.913  16.831   9.885  0.00  0.00     0.111 A 
HETATM    4  C   UNK N   1      34.560  15.580  10.388  0.00  0.00     0.075 A 
HETATM    5  C   UNK N   1      34.163  17.400   8.857  0.00  0.00     0.250 A 
HETATM    6  N   UNK N   1      33.066  16.733   8.350  0.00  0.00    -0.320 N 
HETATM    7  O   UNK N   1      34.466  18.505   8.438  0.00  0.00    -0.268 OA
ENDROOT
BRANCH   6   8
HETATM    8  C   UNK N   1      32.198  17.393   7.376  0.00  0.00     0.170 C 
BRANCH   8   9
HETATM    9  C   UNK N   1      30.812  17.598   7.937  0.00  0.00    -0.032 A 
HETATM   10  C   UNK N   1      30.677  18.396   9.077  0.00  0.00     0.009 A 
HETATM   11  C   UNK N   1      29.417  18.640   9.628  0.00  0.00     0.003 A 
HETATM   12  C   UNK N   1      28.277  18.100   9.034  0.00  0.00     0.029 A 
HETATM   13  C   UNK N   1      28.388  17.302   7.894  0.00  0.00     0.032 A 
HETATM   14  C   UNK N   1      29.652  17.035   7.341  0.00  0.00    -0.028 A 
HETATM   15  C   UNK N   1      29.743  16.172   6.121  0.00  0.00     0.051 C 
BRANCH  13  16
HETATM   16  N   UNK N   1      27.219  16.779   7.301  0.00  0.00    -0.399 N 
HETATM   17  H   UNK N   1      26.514  17.113   6.699  0.00  0.00     0.156 HD
HETATM   18  H   UNK N   1      27.069  15.840   7.553  0.00  0.00     0.156 HD
ENDBRANCH  13  16
ENDBRANCH   8   9
ENDBRANCH   6   8
BRANCH   4  19
HETATM   19  O   UNK N   1      35.255  15.072  11.432  0.00  0.00    -0.351 OA
BRANCH  19  20
HETATM   20  C   UNK N   1      35.367  13.719  11.673  0.00  0.00     0.180 C 
BRANCH  20  21
HETATM   21  C   UNK N   1      36.494  13.430  12.662  0.00  0.00     0.073 C 
BRANCH  21  22
HETATM   22  C   UNK N   1      35.996  13.224  14.057  0.00  0.00    -0.016 A 
HETATM   23  C   UNK N   1      36.490  13.855  15.194  0.00  0.00     0.015 A 
HETATM   24  C   UNK N   1      35.845  13.419  16.388  0.00  0.00     0.008 A 
HETATM   25  C   UNK N   1      34.855  12.447  16.182  0.00  0.00     0.050 A 
HETATM   26  S   UNK N   1      34.817  12.173  14.546  0.00  0.00    -0.106 SA
ENDBRANCH  21  22
ENDBRANCH  20  21
ENDBRANCH  19  20
ENDBRANCH   4  19
TORSDOF 7
ENDMDL
MODEL 2
REMARK VINA RESULT:      -6.9      1.386      1.861
REMARK  7 active torsions:
REMARK  status: ('A' for Active; 'I' for Inactive)
REMARK    1  A    between atoms: C_10  and  C_8 
REMARK    2  A    between atoms: C_17  and  C_8 
REMARK    3  A    between atoms: O_23  and  C_10 
REMARK    4  A    between atoms: C_15  and  C_13 
REMARK    5  A    between atoms: N_21  and  C_13 
REMARK    6  A    between atoms: O_23  and  C_16 
REMARK    7  A    between atoms: N_20  and  C_18 
ROOT
HETATM    1  C   UNK N   1      34.098  14.218  10.335  0.00  0.00     0.054 A 
HETATM    2  C   UNK N   1      33.869  14.937   9.164  0.00  0.00     0.097 A 
HETATM    3  C   UNK N   1      35.328  16.097  11.220  0.00  0.00     0.111 A 
HETATM    4  C   UNK N   1      34.812  14.812  11.385  0.00  0.00     0.075 A 
HETATM    5  C   UNK N   1      35.093  16.790  10.034  0.00  0.00     0.250 A 
HETATM    6  N   UNK N   1      34.339  16.211   9.032  0.00  0.00    -0.320 N 
HETATM    7  O   UNK N   1      35.530  17.922   9.907  0.00  0.00    -0.268 OA
ENDROOT
BRANCH   6   8
HETATM    8  C   UNK N   1      33.973  16.993   7.852  0.00  0.00     0.170 C 
BRANCH   8   9
HETATM    9  C   UNK N   1      32.474  17.117   7.728  0.00  0.00    -0.032 A 
HETATM   10  C   UNK N   1      31.809  17.956   8.627  0.00  0.00     0.009 A 
HETATM   11  C   UNK N   1      30.426  18.129   8.548  0.00  0.00     0.003 A 
HETATM   12  C   UNK N   1      29.695  17.475   7.556  0.00  0.00     0.029 A 
HETATM   13  C   UNK N   1      30.338  16.635   6.645  0.00  0.00     0.032 A 
HETATM   14  C   UNK N   1      31.728  16.440   6.728  0.00  0.00    -0.028 A 
HETATM   15  C   UNK N   1      32.392  15.529   5.742  0.00  0.00     0.051 C 
BRANCH  13  16
HETATM   16  N   UNK N   1      29.581  15.996   5.641  0.00  0.00    -0.399 N 
HETATM   17  H   UNK N   1      28.996  16.280   4.901  0.00  0.00     0.156 HD
HETATM   18  H   UNK N   1      29.656  15.017   5.693  0.00  0.00     0.156 HD
ENDBRANCH  13  16
ENDBRANCH   8   9
ENDBRANCH   6   8
BRANCH   4  19
HETATM   19  O   UNK N   1      34.990  14.180  12.567  0.00  0.00    -0.351 OA
BRANCH  19  20
HETATM   20  C   UNK N   1      36.217  13.723  12.998  0.00  0.00     0.180 C 
BRANCH  20  21
HETATM   21  C   UNK N   1      36.487  14.150  14.439  0.00  0.00     0.073 C 
BRANCH  21  22
HETATM   22  C   UNK N   1      36.141  13.084  15.430  0.00  0.00    -0.016 A 
HETATM   23  C   UNK N   1      35.395  13.268  16.589  0.00  0.00     0.015 A 
HETATM   24  C   UNK N   1      35.272  12.074  17.358  0.00  0.00     0.008 A 
HETATM   25  C   UNK N   1      35.925  10.965  16.801  0.00  0.00     0.050 A 
HETATM   26  S   UNK N   1      36.617  11.502  15.392  0.00  0.00    -0.106 SA
ENDBRANCH  21  22
ENDBRANCH  20  21
ENDBRANCH  19  20
ENDBRANCH   4  19
TORSDOF 7
ENDMDL
MODEL 3
REMARK VINA RESULT:      -6.6      1.552      2.507
REMARK  7 active torsions:
REMARK  status: ('A' for Active; 'I' for Inactive)
REMARK    1  A    between atoms: C_10  and  C_8 
REMARK    2  A    between atoms: C_17  and  C_8 
REMARK    3  A    between atoms: O_23  and  C_10 
REMARK    4  A    between atoms: C_15  and  C_13 
REMARK    5  A    between atoms: N_21  and  C_13 
REMARK    6  A    between atoms: O_23  and  C_16 
REMARK    7  A    between atoms: N_20  and  C_18 
ROOT
HETATM    1  C   UNK N   1      33.653  13.992   9.435  0.00  0.00     0.054 A 
HETATM    2  C   UNK N   1      32.960  15.092   8.932  0.00  0.00     0.097 A 
HETATM    3  C   UNK N   1      35.467  15.455  10.065  0.00  0.00     0.111 A 
HETATM    4  C   UNK N   1      34.908  14.178  10.031  0.00  0.00     0.075 A 
HETATM    5  C   UNK N   1      34.756  16.536   9.545  0.00  0.00     0.250 A 
HETATM    6  N   UNK N   1      33.497  16.344   9.012  0.00  0.00    -0.320 N 
HETATM    7  O   UNK N   1      35.244  17.652   9.598  0.00  0.00    -0.268 OA
ENDROOT
BRANCH   6   8
HETATM    8  C   UNK N   1      32.697  17.496   8.601  0.00  0.00     0.170 C 
BRANCH   8   9
HETATM    9  C   UNK N   1      32.389  17.443   7.124  0.00  0.00    -0.032 A 
HETATM   10  C   UNK N   1      33.455  17.564   6.228  0.00  0.00     0.009 A 
HETATM   11  C   UNK N   1      33.236  17.500   4.851  0.00  0.00     0.003 A 
HETATM   12  C   UNK N   1      31.947  17.297   4.357  0.00  0.00     0.029 A 
HETATM   13  C   UNK N   1      30.869  17.170   5.233  0.00  0.00     0.032 A 
HETATM   14  C   UNK N   1      31.075  17.252   6.621  0.00  0.00    -0.028 A 
HETATM   15  C   UNK N   1      29.900  17.118   7.538  0.00  0.00     0.051 C 
BRANCH  13  16
HETATM   16  N   UNK N   1      29.576  16.950   4.710  0.00  0.00    -0.399 N 
HETATM   17  H   UNK N   1      28.966  16.182   4.620  0.00  0.00     0.156 HD
HETATM   18  H   UNK N   1      29.185  17.774   4.342  0.00  0.00     0.156 HD
ENDBRANCH  13  16
ENDBRANCH   8   9
ENDBRANCH   6   8
BRANCH   4  19
HETATM   19  O   UNK N   1      35.579  13.152  10.601  0.00  0.00    -0.351 OA
BRANCH  19  20
HETATM   20  C   UNK N   1      36.116  13.217  11.870  0.00  0.00     0.180 C 
BRANCH  20  21
HETATM   21  C   UNK N   1      35.164  12.615  12.900  0.00  0.00     0.073 C 
BRANCH  21  22
HETATM   22  C   UNK N   1      35.458  13.072  14.293  0.00  0.00    -0.016 A 
HETATM   23  C   UNK N   1      36.517  13.892  14.669  0.00  0.00     0.015 A 
HETATM   24  C   UNK N   1      36.566  14.117  16.075  0.00  0.00     0.008 A 
HETATM   25  C   UNK N   1      35.550  13.469  16.794  0.00  0.00     0.050 A 
HETATM   26  S   UNK N   1      34.641  12.657  15.668  0.00  0.00    -0.106 SA
ENDBRANCH  21  22
ENDBRANCH  20  21
ENDBRANCH  19  20
ENDBRANCH   4  19
TORSDOF 7
ENDMDL
MODEL 4
REMARK VINA RESULT:      -6.4      1.501      2.384
REMARK  7 active torsions:
REMARK  status: ('A' for Active; 'I' for Inactive)
REMARK    1  A    between atoms: C_10  and  C_8 
REMARK    2  A    between atoms: C_17  and  C_8 
REMARK    3  A    between atoms: O_23  and  C_10 
REMARK    4  A    between atoms: C_15  and  C_13 
REMARK    5  A    between atoms: N_21  and  C_13 
REMARK    6  A    between atoms: O_23  and  C_16 
REMARK    7  A    between atoms: N_20  and  C_18 
ROOT
HETATM    1  C   UNK N   1      33.190  14.467   9.447  0.00  0.00     0.054 A 
HETATM    2  C   UNK N   1      32.538  15.265   8.509  0.00  0.00     0.097 A 
HETATM    3  C   UNK N   1      34.716  16.282   9.895  0.00  0.00     0.111 A 
HETATM    4  C   UNK N   1      34.274  14.988  10.166  0.00  0.00     0.075 A 
HETATM    5  C   UNK N   1      34.051  17.056   8.945  0.00  0.00     0.250 A 
HETATM    6  N   UNK N   1      32.950  16.547   8.286  0.00  0.00    -0.320 N 
HETATM    7  O   UNK N   1      34.432  18.195   8.730  0.00  0.00    -0.268 OA
ENDROOT
BRANCH   6   8
HETATM    8  C   UNK N   1      32.170  17.408   7.399  0.00  0.00     0.170 C 
BRANCH   8   9
HETATM    9  C   UNK N   1      30.772  17.609   7.931  0.00  0.00    -0.032 A 
HETATM   10  C   UNK N   1      30.615  18.377   9.089  0.00  0.00     0.009 A 
HETATM   11  C   UNK N   1      29.345  18.617   9.615  0.00  0.00     0.003 A 
HETATM   12  C   UNK N   1      28.215  18.103   8.978  0.00  0.00     0.029 A 
HETATM   13  C   UNK N   1      28.347  17.336   7.820  0.00  0.00     0.032 A 
HETATM   14  C   UNK N   1      29.623  17.073   7.291  0.00  0.00    -0.028 A 
HETATM   15  C   UNK N   1      29.737  16.244   6.050  0.00  0.00     0.051 C 
BRANCH  13  16
HETATM   16  N   UNK N   1      27.189  16.840   7.184  0.00  0.00    -0.399 N 
HETATM   17  H   UNK N   1      26.938  16.017   6.705  0.00  0.00     0.156 HD
HETATM   18  H   UNK N   1      26.443  17.478   7.232  0.00  0.00     0.156 HD
ENDBRANCH  13  16
ENDBRANCH   8   9
ENDBRANCH   6   8
BRANCH   4  19
HETATM   19  O   UNK N   1      34.886  14.276  11.139  0.00  0.00    -0.351 OA
BRANCH  19  20
HETATM   20  C   UNK N   1      35.714  14.847  12.082  0.00  0.00     0.180 C 
BRANCH  20  21
HETATM   21  C   UNK N   1      36.534  13.784  12.809  0.00  0.00     0.073 C 
BRANCH  21  22
HETATM   22  C   UNK N   1      37.128  12.778  11.875  0.00  0.00    -0.016 A 
HETATM   23  C   UNK N   1      38.045  13.053  10.866  0.00  0.00     0.015 A 
HETATM   24  C   UNK N   1      38.392  11.896  10.110  0.00  0.00     0.008 A 
HETATM   25  C   UNK N   1      37.743  10.724  10.525  0.00  0.00     0.050 A 
HETATM   26  S   UNK N   1      36.778  11.164  11.801  0.00  0.00    -0.106 SA
ENDBRANCH  21  22
ENDBRANCH  20  21
ENDBRANCH  19  20
ENDBRANCH   4  19
TORSDOF 7
ENDMDL
MODEL 5
REMARK VINA RESULT:      -6.4      8.438     12.292
REMARK  7 active torsions:
REMARK  status: ('A' for Active; 'I' for Inactive)
REMARK    1  A    between atoms: C_10  and  C_8 
REMARK    2  A    between atoms: C_17  and  C_8 
REMARK    3  A    between atoms: O_23  and  C_10 
REMARK    4  A    between atoms: C_15  and  C_13 
REMARK    5  A    between atoms: N_21  and  C_13 
REMARK    6  A    between atoms: O_23  and  C_16 
REMARK    7  A    between atoms: N_20  and  C_18 
ROOT
HETATM    1  C   UNK N   1      24.320  18.925   4.131  0.00  0.00     0.054 A 
HETATM    2  C   UNK N   1      22.986  18.523   4.106  0.00  0.00     0.097 A 
HETATM    3  C   UNK N   1      23.748  20.823   2.755  0.00  0.00     0.111 A 
HETATM    4  C   UNK N   1      24.701  20.101   3.471  0.00  0.00     0.075 A 
HETATM    5  C   UNK N   1      22.422  20.394   2.738  0.00  0.00     0.250 A 
HETATM    6  N   UNK N   1      22.052  19.264   3.441  0.00  0.00    -0.320 N 
HETATM    7  O   UNK N   1      21.591  21.044   2.126  0.00  0.00    -0.268 OA
ENDROOT
BRANCH   6   8
HETATM    8  C   UNK N   1      20.640  18.898   3.540  0.00  0.00     0.170 C 
BRANCH   8   9
HETATM    9  C   UNK N   1      20.339  17.674   2.709  0.00  0.00    -0.032 A 
HETATM   10  C   UNK N   1      20.284  17.822   1.320  0.00  0.00     0.009 A 
HETATM   11  C   UNK N   1      20.031  16.722   0.499  0.00  0.00     0.003 A 
HETATM   12  C   UNK N   1      19.847  15.458   1.059  0.00  0.00     0.029 A 
HETATM   13  C   UNK N   1      19.902  15.286   2.443  0.00  0.00     0.032 A 
HETATM   14  C   UNK N   1      20.137  16.390   3.281  0.00  0.00    -0.028 A 
HETATM   15  C   UNK N   1      20.185  16.179   4.762  0.00  0.00     0.051 C 
BRANCH  13  16
HETATM   16  N   UNK N   1      19.728  13.995   2.986  0.00  0.00    -0.399 N 
HETATM   17  H   UNK N   1      19.036  13.295   2.950  0.00  0.00     0.156 HD
HETATM   18  H   UNK N   1      20.492  13.726   3.543  0.00  0.00     0.156 HD
ENDBRANCH  13  16
ENDBRANCH   8   9
ENDBRANCH   6   8
BRANCH   4  19
HETATM   19  O   UNK N   1      25.968  20.569   3.535  0.00  0.00    -0.351 OA
BRANCH  19  20
HETATM   20  C   UNK N   1      27.055  19.762   3.797  0.00  0.00     0.180 C 
BRANCH  20  21
HETATM   21  C   UNK N   1      27.773  20.206   5.070  0.00  0.00     0.073 C 
BRANCH  21  22
HETATM   22  C   UNK N   1      27.832  19.127   6.103  0.00  0.00    -0.016 A 
HETATM   23  C   UNK N   1      28.157  19.307   7.443  0.00  0.00     0.015 A 
HETATM   24  C   UNK N   1      28.176  18.083   8.173  0.00  0.00     0.008 A 
HETATM   25  C   UNK N   1      27.871  16.951   7.402  0.00  0.00     0.050 A 
HETATM   26  S   UNK N   1      27.590  17.509   5.864  0.00  0.00    -0.106 SA
ENDBRANCH  21  22
ENDBRANCH  20  21
ENDBRANCH  19  20
ENDBRANCH   4  19
TORSDOF 7
ENDMDL
MODEL 6
REMARK VINA RESULT:      -6.4      3.263      8.153
REMARK  7 active torsions:
REMARK  status: ('A' for Active; 'I' for Inactive)
REMARK    1  A    between atoms: C_10  and  C_8 
REMARK    2  A    between atoms: C_17  and  C_8 
REMARK    3  A    between atoms: O_23  and  C_10 
REMARK    4  A    between atoms: C_15  and  C_13 
REMARK    5  A    between atoms: N_21  and  C_13 
REMARK    6  A    between atoms: O_23  and  C_16 
REMARK    7  A    between atoms: N_20  and  C_18 
ROOT
HETATM    1  C   UNK N   1      33.250  14.988   8.229  0.00  0.00     0.054 A 
HETATM    2  C   UNK N   1      33.852  14.896   9.482  0.00  0.00     0.097 A 
HETATM    3  C   UNK N   1      34.157  17.211   7.984  0.00  0.00     0.111 A 
HETATM    4  C   UNK N   1      33.426  16.147   7.460  0.00  0.00     0.075 A 
HETATM    5  C   UNK N   1      34.740  17.097   9.245  0.00  0.00     0.250 A 
HETATM    6  N   UNK N   1      34.605  15.926   9.966  0.00  0.00    -0.320 N 
HETATM    7  O   UNK N   1      35.396  18.025   9.687  0.00  0.00    -0.268 OA
ENDROOT
BRANCH   6   8
HETATM    8  C   UNK N   1      35.335  15.755  11.221  0.00  0.00     0.170 C 
BRANCH   8   9
HETATM    9  C   UNK N   1      36.334  14.628  11.117  0.00  0.00    -0.032 A 
HETATM   10  C   UNK N   1      37.274  14.678  10.084  0.00  0.00     0.009 A 
HETATM   11  C   UNK N   1      38.237  13.676   9.951  0.00  0.00     0.003 A 
HETATM   12  C   UNK N   1      38.278  12.620  10.862  0.00  0.00     0.029 A 
HETATM   13  C   UNK N   1      37.351  12.551  11.903  0.00  0.00     0.032 A 
HETATM   14  C   UNK N   1      36.366  13.545  12.035  0.00  0.00    -0.028 A 
HETATM   15  C   UNK N   1      35.380  13.445  13.158  0.00  0.00     0.051 C 
BRANCH  13  16
HETATM   16  N   UNK N   1      37.421  11.482  12.821  0.00  0.00    -0.399 N 
HETATM   17  H   UNK N   1      38.097  11.118  13.438  0.00  0.00     0.156 HD
HETATM   18  H   UNK N   1      36.582  10.970  12.852  0.00  0.00     0.156 HD
ENDBRANCH  13  16
ENDBRANCH   8   9
ENDBRANCH   6   8
BRANCH   4  19
HETATM   19  O   UNK N   1      32.925  16.247   6.208  0.00  0.00    -0.351 OA
BRANCH  19  20
HETATM   20  C   UNK N   1      31.900  17.106   5.874  0.00  0.00     0.180 C 
BRANCH  20  21
HETATM   21  C   UNK N   1      30.547  16.533   6.290  0.00  0.00     0.073 C 
BRANCH  21  22
HETATM   22  C   UNK N   1      29.883  17.342   7.358  0.00  0.00    -0.016 A 
HETATM   23  C   UNK N   1      30.450  17.692   8.579  0.00  0.00     0.015 A 
HETATM   24  C   UNK N   1      29.555  18.427   9.409  0.00  0.00     0.008 A 
HETATM   25  C   UNK N   1      28.292  18.644   8.839  0.00  0.00     0.050 A 
HETATM   26  S   UNK N   1      28.337  17.927   7.344  0.00  0.00    -0.106 SA
ENDBRANCH  21  22
ENDBRANCH  20  21
ENDBRANCH  19  20
ENDBRANCH   4  19
TORSDOF 7
ENDMDL
MODEL 7
REMARK VINA RESULT:      -6.3     16.376     19.502
REMARK  7 active torsions:
REMARK  status: ('A' for Active; 'I' for Inactive)
REMARK    1  A    between atoms: C_10  and  C_8 
REMARK    2  A    between atoms: C_17  and  C_8 
REMARK    3  A    between atoms: O_23  and  C_10 
REMARK    4  A    between atoms: C_15  and  C_13 
REMARK    5  A    between atoms: N_21  and  C_13 
REMARK    6  A    between atoms: O_23  and  C_16 
REMARK    7  A    between atoms: N_20  and  C_18 
ROOT
HETATM    1  C   UNK N   1      27.675  24.152  -6.001  0.00  0.00     0.054 A 
HETATM    2  C   UNK N   1      28.779  23.795  -5.229  0.00  0.00     0.097 A 
HETATM    3  C   UNK N   1      26.339  24.257  -3.993  0.00  0.00     0.111 A 
HETATM    4  C   UNK N   1      26.448  24.412  -5.374  0.00  0.00     0.075 A 
HETATM    5  C   UNK N   1      27.457  23.889  -3.247  0.00  0.00     0.250 A 
HETATM    6  N   UNK N   1      28.672  23.692  -3.873  0.00  0.00    -0.320 N 
HETATM    7  O   UNK N   1      27.357  23.777  -2.037  0.00  0.00    -0.268 OA
ENDROOT
BRANCH   6   8
HETATM    8  C   UNK N   1      29.871  23.448  -3.074  0.00  0.00     0.170 C 
BRANCH   8   9
HETATM    9  C   UNK N   1      30.813  22.506  -3.784  0.00  0.00    -0.032 A 
HETATM   10  C   UNK N   1      30.509  21.142  -3.773  0.00  0.00     0.009 A 
HETATM   11  C   UNK N   1      31.330  20.226  -4.432  0.00  0.00     0.003 A 
HETATM   12  C   UNK N   1      32.457  20.668  -5.124  0.00  0.00     0.029 A 
HETATM   13  C   UNK N   1      32.779  22.026  -5.152  0.00  0.00     0.032 A 
HETATM   14  C   UNK N   1      31.969  22.955  -4.476  0.00  0.00    -0.028 A 
HETATM   15  C   UNK N   1      32.340  24.405  -4.518  0.00  0.00     0.051 C 
BRANCH  13  16
HETATM   16  N   UNK N   1      33.915  22.452  -5.872  0.00  0.00    -0.399 N 
HETATM   17  H   UNK N   1      34.249  23.304  -6.235  0.00  0.00     0.156 HD
HETATM   18  H   UNK N   1      34.531  21.708  -6.057  0.00  0.00     0.156 HD
ENDBRANCH  13  16
ENDBRANCH   8   9
ENDBRANCH   6   8
BRANCH   4  19
HETATM   19  O   UNK N   1      25.372  24.837  -6.075  0.00  0.00    -0.351 OA
BRANCH  19  20
HETATM   20  C   UNK N   1      25.313  26.072  -6.686  0.00  0.00     0.180 C 
BRANCH  20  21
HETATM   21  C   UNK N   1      24.846  27.147  -5.707  0.00  0.00     0.073 C 
BRANCH  21  22
HETATM   22  C   UNK N   1      25.969  27.999  -5.209  0.00  0.00    -0.016 A 
HETATM   23  C   UNK N   1      27.064  28.415  -5.959  0.00  0.00     0.015 A 
HETATM   24  C   UNK N   1      27.994  29.179  -5.196  0.00  0.00     0.008 A 
HETATM   25  C   UNK N   1      27.628  29.352  -3.853  0.00  0.00     0.050 A 
HETATM   26  S   UNK N   1      26.180  28.564  -3.670  0.00  0.00    -0.106 SA
ENDBRANCH  21  22
ENDBRANCH  20  21
ENDBRANCH  19  20
ENDBRANCH   4  19
TORSDOF 7
ENDMDL
MODEL 8
REMARK VINA RESULT:      -6.2     15.492     18.366
REMARK  7 active torsions:
REMARK  status: ('A' for Active; 'I' for Inactive)
REMARK    1  A    between atoms: C_10  and  C_8 
REMARK    2  A    between atoms: C_17  and  C_8 
REMARK    3  A    between atoms: O_23  and  C_10 
REMARK    4  A    between atoms: C_15  and  C_13 
REMARK    5  A    between atoms: N_21  and  C_13 
REMARK    6  A    between atoms: O_23  and  C_16 
REMARK    7  A    between atoms: N_20  and  C_18 
ROOT
HETATM    1  C   UNK N   1      30.408  24.704  -3.909  0.00  0.00     0.054 A 
HETATM    2  C   UNK N   1      29.386  25.348  -4.603  0.00  0.00     0.097 A 
HETATM    3  C   UNK N   1      28.750  23.510  -2.625  0.00  0.00     0.111 A 
HETATM    4  C   UNK N   1      30.088  23.756  -2.928  0.00  0.00     0.075 A 
HETATM    5  C   UNK N   1      27.747  24.176  -3.327  0.00  0.00     0.250 A 
HETATM    6  N   UNK N   1      28.079  25.065  -4.330  0.00  0.00    -0.320 N 
HETATM    7  O   UNK N   1      26.579  23.938  -3.070  0.00  0.00    -0.268 OA
ENDROOT
BRANCH   6   8
HETATM    8  C   UNK N   1      27.028  25.651  -5.161  0.00  0.00     0.170 C 
BRANCH   8   9
HETATM    9  C   UNK N   1      27.180  27.151  -5.247  0.00  0.00    -0.032 A 
HETATM   10  C   UNK N   1      27.864  27.678  -6.347  0.00  0.00     0.009 A 
HETATM   11  C   UNK N   1      28.016  29.058  -6.493  0.00  0.00     0.003 A 
HETATM   12  C   UNK N   1      27.471  29.926  -5.548  0.00  0.00     0.029 A 
HETATM   13  C   UNK N   1      26.782  29.422  -4.443  0.00  0.00     0.032 A 
HETATM   14  C   UNK N   1      26.638  28.034  -4.276  0.00  0.00    -0.028 A 
HETATM   15  C   UNK N   1      25.899  27.519  -3.080  0.00  0.00     0.051 C 
BRANCH  13  16
HETATM   16  N   UNK N   1      26.226  30.320  -3.507  0.00  0.00    -0.399 N 
HETATM   17  H   UNK N   1      25.527  30.283  -2.814  0.00  0.00     0.156 HD
HETATM   18  H   UNK N   1      26.642  31.209  -3.561  0.00  0.00     0.156 HD
ENDBRANCH  13  16
ENDBRANCH   8   9
ENDBRANCH   6   8
BRANCH   4  19
HETATM   19  O   UNK N   1      31.047  23.051  -2.285  0.00  0.00    -0.351 OA
BRANCH  19  20
HETATM   20  C   UNK N   1      31.461  21.800  -2.693  0.00  0.00     0.180 C 
BRANCH  20  21
HETATM   21  C   UNK N   1      32.368  21.895  -3.917  0.00  0.00     0.073 C 
BRANCH  21  22
HETATM   22  C   UNK N   1      31.807  21.181  -5.106  0.00  0.00    -0.016 A 
HETATM   23  C   UNK N   1      32.546  20.483  -6.054  0.00  0.00     0.015 A 
HETATM   24  C   UNK N   1      31.737  19.949  -7.098  0.00  0.00     0.008 A 
HETATM   25  C   UNK N   1      30.370  20.234  -6.965  0.00  0.00     0.050 A 
HETATM   26  S   UNK N   1      30.222  21.124  -5.572  0.00  0.00    -0.106 SA
ENDBRANCH  21  22
ENDBRANCH  20  21
ENDBRANCH  19  20
ENDBRANCH   4  19
TORSDOF 7
ENDMDL
MODEL 9
REMARK VINA RESULT:      -6.2      2.203      3.653
REMARK  7 active torsions:
REMARK  status: ('A' for Active; 'I' for Inactive)
REMARK    1  A    between atoms: C_10  and  C_8 
REMARK    2  A    between atoms: C_17  and  C_8 
REMARK    3  A    between atoms: O_23  and  C_10 
REMARK    4  A    between atoms: C_15  and  C_13 
REMARK    5  A    between atoms: N_21  and  C_13 
REMARK    6  A    between atoms: O_23  and  C_16 
REMARK    7  A    between atoms: N_20  and  C_18 
ROOT
HETATM    1  C   UNK N   1      33.255  14.762   9.932  0.00  0.00     0.054 A 
HETATM    2  C   UNK N   1      32.744  15.724   9.063  0.00  0.00     0.097 A 
HETATM    3  C   UNK N   1      35.163  16.183  10.342  0.00  0.00     0.111 A 
HETATM    4  C   UNK N   1      34.464  15.005  10.599  0.00  0.00     0.075 A 
HETATM    5  C   UNK N   1      34.634  17.124   9.461  0.00  0.00     0.250 A 
HETATM    6  N   UNK N   1      33.414  16.895   8.855  0.00  0.00    -0.320 N 
HETATM    7  O   UNK N   1      35.242  18.162   9.259  0.00  0.00    -0.268 OA
ENDROOT
BRANCH   6   8
HETATM    8  C   UNK N   1      32.795  17.943   8.046  0.00  0.00     0.170 C 
BRANCH   8   9
HETATM    9  C   UNK N   1      32.530  17.458   6.641  0.00  0.00    -0.032 A 
HETATM   10  C   UNK N   1      33.626  17.282   5.791  0.00  0.00     0.009 A 
HETATM   11  C   UNK N   1      33.446  16.814   4.489  0.00  0.00     0.003 A 
HETATM   12  C   UNK N   1      32.168  16.502   4.028  0.00  0.00     0.029 A 
HETATM   13  C   UNK N   1      31.059  16.667   4.860  0.00  0.00     0.032 A 
HETATM   14  C   UNK N   1      31.227  17.155   6.167  0.00  0.00    -0.028 A 
HETATM   15  C   UNK N   1      30.020  17.327   7.037  0.00  0.00     0.051 C 
BRANCH  13  16
HETATM   16  N   UNK N   1      29.777  16.330   4.377  0.00  0.00    -0.399 N 
HETATM   17  H   UNK N   1      28.885  16.749   4.373  0.00  0.00     0.156 HD
HETATM   18  H   UNK N   1      29.772  15.453   3.930  0.00  0.00     0.156 HD
ENDBRANCH  13  16
ENDBRANCH   8   9
ENDBRANCH   6   8
BRANCH   4  19
HETATM   19  O   UNK N   1      34.957  14.134  11.509  0.00  0.00    -0.351 OA
BRANCH  19  20
HETATM   20  C   UNK N   1      36.015  14.433  12.340  0.00  0.00     0.180 C 
BRANCH  20  21
HETATM   21  C   UNK N   1      36.747  13.166  12.775  0.00  0.00     0.073 C 
BRANCH  21  22
HETATM   22  C   UNK N   1      37.467  12.501  11.645  0.00  0.00    -0.016 A 
HETATM   23  C   UNK N   1      38.231  13.147  10.680  0.00  0.00     0.015 A 
HETATM   24  C   UNK N   1      38.754  12.252   9.702  0.00  0.00     0.008 A 
HETATM   25  C   UNK N   1      38.393  10.911   9.902  0.00  0.00     0.050 A 
HETATM   26  S   UNK N   1      37.454  10.891  11.270  0.00  0.00    -0.106 SA
ENDBRANCH  21  22
ENDBRANCH  20  21
ENDBRANCH  19  20
ENDBRANCH   4  19
TORSDOF 7
ENDMDL
