MODEL 1
REMARK VINA RESULT:      -8.4      0.000      0.000
REMARK  5 active torsions:
REMARK  status: ('A' for Active; 'I' for Inactive)
REMARK    1  A    between atoms: C_5  and  C_12 
REMARK    2  A    between atoms: N_6  and  C_9 
REMARK    3  A    between atoms: C_21  and  C_27 
REMARK    4  A    between atoms: N_31  and  C_33 
REMARK    5  A    between atoms: C_33  and  C_36 
REMARK       I    between atoms: C_36  and  N_38 
ROOT
HETATM    1  C   UNK N   1      36.025  13.940  11.456  0.00  0.00     0.095 A 
HETATM    2  C   UNK N   1      36.709  13.190  10.512  0.00  0.00     0.126 A 
HETATM    3  N   UNK N   1      36.209  13.530   9.308  0.00  0.00    -0.338 N 
HETATM    4  C   UNK N   1      35.264  14.466   9.533  0.00  0.00     0.121 A 
HETATM    5  N   UNK N   1      35.128  14.722  10.842  0.00  0.00    -0.337 N 
ATOM      6  HN  UNK N   1      34.478  15.375  11.279  1.00  0.00     0.167 HD
HETATM    7  C   UNK N   1      34.401  15.129   8.534  0.00  0.00     0.042 A 
HETATM    8  C   UNK N   1      33.339  15.888   9.058  0.00  0.00     0.019 A 
HETATM    9  C   UNK N   1      32.397  16.486   8.234  0.00  0.00     0.013 A 
HETATM   10  C   UNK N   1      32.496  16.334   6.856  0.00  0.00    -0.020 A 
HETATM   11  C   UNK N   1      33.567  15.619   6.310  0.00  0.00     0.050 A 
HETATM   12  C   UNK N   1      34.539  15.025   7.119  0.00  0.00     0.083 A 
HETATM   13  O   UNK N   1      35.556  14.386   6.482  0.00  0.00    -0.348 OA
HETATM   14  C   UNK N   1      36.769  14.023   7.022  0.00  0.00     0.196 C 
HETATM   15  C   UNK N   1      36.581  12.933   8.042  0.00  0.00     0.156 C 
ENDROOT
BRANCH  10  16
HETATM   16  C   UNK N   1      31.428  16.819   5.979  0.00  0.00     0.008 A 
HETATM   17  C   UNK N   1      31.548  17.467   4.762  0.00  0.00     0.121 A 
HETATM   18  N   UNK N   1      30.315  17.861   4.385  0.00  0.00    -0.308 N 
HETATM   19  N   UNK N   1      29.451  17.485   5.320  0.00  0.00    -0.284 N 
ATOM     20  HN  UNK N   1      30.085  18.363   3.528  1.00  0.00     0.186 HD
HETATM   21  C   UNK N   1      30.097  16.840   6.307  0.00  0.00     0.125 A 
BRANCH  19  22
HETATM   22  C   UNK N   1      28.016  17.792   5.327  0.00  0.00     0.126 C 
HETATM   23  C   UNK N   1      27.437  17.495   3.949  0.00  0.00     0.051 C 
HETATM   24  C   UNK N   1      27.284  16.895   6.323  0.00  0.00     0.051 C 
BRANCH  22  25
HETATM   25  C   UNK N   1      27.796  19.257   5.653  0.00  0.00     0.245 C 
HETATM   26  O   UNK N   1      28.157  20.128   4.876  0.00  0.00    -0.271 OA
HETATM   27  N   UNK N   1      27.199  19.612   6.811  0.00  0.00    -0.368 N 
HETATM   28  H   UNK N   1      26.313  19.283   7.086  0.00  0.00     0.159 HD
HETATM   29  H   UNK N   1      27.674  20.232   7.410  0.00  0.00     0.159 HD
ENDBRANCH  22  25
ENDBRANCH  19  22
ENDBRANCH  10  16
BRANCH   1  30
HETATM   30  C   UNK N   1      36.138  13.936  12.920  0.00  0.00     0.152 A 
HETATM   31  N   UNK N   1      36.827  14.892  13.572  0.00  0.00    -0.328 N 
HETATM   32  C   UNK N   1      36.678  14.561  14.865  0.00  0.00     0.093 A 
ATOM     33  HN  UNK N   1      37.340  15.681  13.177  1.00  0.00     0.169 HD
HETATM   34  C   UNK N   1      37.262  15.337  15.989  0.00  0.00     0.090 C 
HETATM   35  N   UNK N   1      35.933  13.449  15.013  0.00  0.00    -0.285 N 
HETATM   36  N   UNK N   1      35.599  13.056  13.794  0.00  0.00    -0.269 N 
ATOM     37  HN  UNK N   1      35.678  12.998  15.891  1.00  0.00     0.188 HD
BRANCH  36  38
HETATM   38  C   UNK N   1      34.789  11.868  13.504  0.00  0.00     0.102 C 
HETATM   39  C   UNK N   1      33.947  11.463  14.705  0.00  0.00     0.034 C 
HETATM   40  C   UNK N   1      35.683  10.696  13.139  0.00  0.00     0.034 C 
ENDBRANCH  36  38
ENDBRANCH   1  30
TORSDOF 5
ENDMDL
MODEL 2
REMARK VINA RESULT:      -8.4      4.640     12.740
REMARK  5 active torsions:
REMARK  status: ('A' for Active; 'I' for Inactive)
REMARK    1  A    between atoms: C_5  and  C_12 
REMARK    2  A    between atoms: N_6  and  C_9 
REMARK    3  A    between atoms: C_21  and  C_27 
REMARK    4  A    between atoms: N_31  and  C_33 
REMARK    5  A    between atoms: C_33  and  C_36 
REMARK       I    between atoms: C_36  and  N_38 
ROOT
HETATM    1  C   UNK N   1      22.899  17.485   4.154  0.00  0.00     0.095 A 
HETATM    2  C   UNK N   1      23.076  18.794   3.733  0.00  0.00     0.126 A 
HETATM    3  N   UNK N   1      24.341  19.136   4.045  0.00  0.00    -0.338 N 
HETATM    4  C   UNK N   1      24.902  18.053   4.623  0.00  0.00     0.121 A 
HETATM    5  N   UNK N   1      24.032  17.037   4.711  0.00  0.00    -0.337 N 
ATOM      6  HN  UNK N   1      24.198  16.116   5.115  1.00  0.00     0.167 HD
HETATM    7  C   UNK N   1      26.268  17.936   5.174  0.00  0.00     0.042 A 
HETATM    8  C   UNK N   1      26.518  16.779   5.933  0.00  0.00     0.019 A 
HETATM    9  C   UNK N   1      27.726  16.586   6.587  0.00  0.00     0.013 A 
HETATM   10  C   UNK N   1      28.718  17.555   6.497  0.00  0.00    -0.020 A 
HETATM   11  C   UNK N   1      28.507  18.695   5.714  0.00  0.00     0.050 A 
HETATM   12  C   UNK N   1      27.306  18.902   5.031  0.00  0.00     0.083 A 
HETATM   13  O   UNK N   1      27.223  20.025   4.269  0.00  0.00    -0.348 OA
HETATM   14  C   UNK N   1      26.310  20.279   3.271  0.00  0.00     0.196 C 
HETATM   15  C   UNK N   1      24.932  20.444   3.854  0.00  0.00     0.156 C 
ENDROOT
BRANCH  10  16
HETATM   16  C   UNK N   1      29.934  17.448   7.305  0.00  0.00     0.008 A 
HETATM   17  C   UNK N   1      30.162  17.943   8.577  0.00  0.00     0.121 A 
HETATM   18  N   UNK N   1      31.464  17.742   8.867  0.00  0.00    -0.308 N 
HETATM   19  N   UNK N   1      32.037  17.151   7.826  0.00  0.00    -0.284 N 
ATOM     20  HN  UNK N   1      31.928  18.001   9.737  1.00  0.00     0.186 HD
HETATM   21  C   UNK N   1      31.130  16.951   6.856  0.00  0.00     0.125 A 
BRANCH  19  22
HETATM   22  C   UNK N   1      33.465  16.832   7.709  0.00  0.00     0.126 C 
HETATM   23  C   UNK N   1      33.679  15.367   8.071  0.00  0.00     0.051 C 
HETATM   24  C   UNK N   1      33.934  17.010   6.266  0.00  0.00     0.051 C 
BRANCH  22  25
HETATM   25  C   UNK N   1      34.275  17.701   8.653  0.00  0.00     0.245 C 
HETATM   26  O   UNK N   1      34.588  18.839   8.339  0.00  0.00    -0.271 OA
HETATM   27  N   UNK N   1      34.659  17.220   9.855  0.00  0.00    -0.368 N 
HETATM   28  H   UNK N   1      34.029  16.857  10.519  0.00  0.00     0.159 HD
HETATM   29  H   UNK N   1      35.618  17.234  10.078  0.00  0.00     0.159 HD
ENDBRANCH  22  25
ENDBRANCH  19  22
ENDBRANCH  10  16
BRANCH   1  30
HETATM   30  C   UNK N   1      21.703  16.635   4.101  0.00  0.00     0.152 A 
HETATM   31  N   UNK N   1      21.544  15.598   4.945  0.00  0.00    -0.328 N 
HETATM   32  C   UNK N   1      20.345  15.097   4.606  0.00  0.00     0.093 A 
ATOM     33  HN  UNK N   1      22.182  15.271   5.672  1.00  0.00     0.169 HD
HETATM   34  C   UNK N   1      19.718  13.928   5.274  0.00  0.00     0.090 C 
HETATM   35  N   UNK N   1      19.784  15.787   3.594  0.00  0.00    -0.285 N 
HETATM   36  N   UNK N   1      20.638  16.748   3.277  0.00  0.00    -0.269 N 
ATOM     37  HN  UNK N   1      18.881  15.605   3.158  1.00  0.00     0.188 HD
BRANCH  36  38
HETATM   38  C   UNK N   1      20.414  17.728   2.208  0.00  0.00     0.102 C 
HETATM   39  C   UNK N   1      19.343  18.737   2.595  0.00  0.00     0.034 C 
HETATM   40  C   UNK N   1      19.968  17.030   0.936  0.00  0.00     0.034 C 
ENDBRANCH  36  38
ENDBRANCH   1  30
TORSDOF 5
ENDMDL
MODEL 3
REMARK VINA RESULT:      -8.4      5.768     10.257
REMARK  5 active torsions:
REMARK  status: ('A' for Active; 'I' for Inactive)
REMARK    1  A    between atoms: C_5  and  C_12 
REMARK    2  A    between atoms: N_6  and  C_9 
REMARK    3  A    between atoms: C_21  and  C_27 
REMARK    4  A    between atoms: N_31  and  C_33 
REMARK    5  A    between atoms: C_33  and  C_36 
REMARK       I    between atoms: C_36  and  N_38 
ROOT
HETATM    1  C   UNK N   1      34.349   9.128  20.338  0.00  0.00     0.095 A 
HETATM    2  C   UNK N   1      34.872   8.008  19.712  0.00  0.00     0.126 A 
HETATM    3  N   UNK N   1      35.453   8.434  18.572  0.00  0.00    -0.338 N 
HETATM    4  C   UNK N   1      35.288   9.772  18.533  0.00  0.00     0.121 A 
HETATM    5  N   UNK N   1      34.605  10.215  19.598  0.00  0.00    -0.337 N 
ATOM      6  HN  UNK N   1      34.336  11.178  19.802  1.00  0.00     0.167 HD
HETATM    7  C   UNK N   1      35.717  10.698  17.465  0.00  0.00     0.042 A 
HETATM    8  C   UNK N   1      35.213  12.007  17.558  0.00  0.00     0.019 A 
HETATM    9  C   UNK N   1      35.457  12.953  16.573  0.00  0.00     0.013 A 
HETATM   10  C   UNK N   1      36.217  12.606  15.462  0.00  0.00    -0.020 A 
HETATM   11  C   UNK N   1      36.764  11.322  15.368  0.00  0.00     0.050 A 
HETATM   12  C   UNK N   1      36.547  10.359  16.357  0.00  0.00     0.083 A 
HETATM   13  O   UNK N   1      37.157   9.157  16.182  0.00  0.00    -0.348 OA
HETATM   14  C   UNK N   1      37.369   8.192  17.140  0.00  0.00     0.196 C 
HETATM   15  C   UNK N   1      36.060   7.585  17.568  0.00  0.00     0.156 C 
ENDROOT
BRANCH  10  16
HETATM   16  C   UNK N   1      36.353  13.535  14.339  0.00  0.00     0.008 A 
HETATM   17  C   UNK N   1      36.631  14.890  14.378  0.00  0.00     0.121 A 
HETATM   18  N   UNK N   1      36.512  15.367  13.122  0.00  0.00    -0.308 N 
HETATM   19  N   UNK N   1      36.170  14.365  12.323  0.00  0.00    -0.284 N 
ATOM     20  HN  UNK N   1      36.659  16.335  12.836  1.00  0.00     0.186 HD
HETATM   21  C   UNK N   1      36.070  13.228  13.032  0.00  0.00     0.125 A 
BRANCH  19  22
HETATM   22  C   UNK N   1      35.866  14.482  10.892  0.00  0.00     0.126 C 
HETATM   23  C   UNK N   1      37.122  14.165  10.089  0.00  0.00     0.051 C 
HETATM   24  C   UNK N   1      34.807  13.460  10.488  0.00  0.00     0.051 C 
BRANCH  22  25
HETATM   25  C   UNK N   1      35.412  15.892  10.568  0.00  0.00     0.245 C 
HETATM   26  O   UNK N   1      36.202  16.823  10.596  0.00  0.00    -0.271 OA
HETATM   27  N   UNK N   1      34.123  16.133  10.247  0.00  0.00    -0.368 N 
HETATM   28  H   UNK N   1      33.653  15.673   9.514  0.00  0.00     0.159 HD
HETATM   29  H   UNK N   1      33.627  16.802  10.772  0.00  0.00     0.159 HD
ENDBRANCH  22  25
ENDBRANCH  19  22
ENDBRANCH  10  16
BRANCH   1  30
HETATM   30  C   UNK N   1      33.580   9.234  21.583  0.00  0.00     0.152 A 
HETATM   31  N   UNK N   1      33.884  10.155  22.518  0.00  0.00    -0.328 N 
HETATM   32  C   UNK N   1      32.959   9.954  23.471  0.00  0.00     0.093 A 
ATOM     33  HN  UNK N   1      34.638  10.842  22.506  1.00  0.00     0.169 HD
HETATM   34  C   UNK N   1      32.876  10.748  24.724  0.00  0.00     0.090 C 
HETATM   35  N   UNK N   1      32.118   8.953  23.147  0.00  0.00    -0.285 N 
HETATM   36  N   UNK N   1      32.510   8.501  21.966  0.00  0.00    -0.269 N 
ATOM     37  HN  UNK N   1      31.335   8.610  23.702  1.00  0.00     0.188 HD
BRANCH  36  38
HETATM   38  C   UNK N   1      31.864   7.395  21.252  0.00  0.00     0.102 C 
HETATM   39  C   UNK N   1      30.730   7.892  20.366  0.00  0.00     0.034 C 
HETATM   40  C   UNK N   1      31.287   6.395  22.237  0.00  0.00     0.034 C 
ENDBRANCH  36  38
ENDBRANCH   1  30
TORSDOF 5
ENDMDL
MODEL 4
REMARK VINA RESULT:      -8.3      2.099     10.266
REMARK  5 active torsions:
REMARK  status: ('A' for Active; 'I' for Inactive)
REMARK    1  A    between atoms: C_5  and  C_12 
REMARK    2  A    between atoms: N_6  and  C_9 
REMARK    3  A    between atoms: C_21  and  C_27 
REMARK    4  A    between atoms: N_31  and  C_33 
REMARK    5  A    between atoms: C_33  and  C_36 
REMARK       I    between atoms: C_36  and  N_38 
ROOT
HETATM    1  C   UNK N   1      29.446  17.234   5.329  0.00  0.00     0.095 A 
HETATM    2  C   UNK N   1      30.430  17.491   4.388  0.00  0.00     0.126 A 
HETATM    3  N   UNK N   1      31.606  17.145   4.948  0.00  0.00    -0.338 N 
HETATM    4  C   UNK N   1      31.322  16.683   6.184  0.00  0.00     0.121 A 
HETATM    5  N   UNK N   1      30.008  16.741   6.441  0.00  0.00    -0.337 N 
ATOM      6  HN  UNK N   1      29.535  16.467   7.301  1.00  0.00     0.167 HD
HETATM    7  C   UNK N   1      32.278  16.215   7.208  0.00  0.00     0.042 A 
HETATM    8  C   UNK N   1      31.741  16.013   8.492  0.00  0.00     0.019 A 
HETATM    9  C   UNK N   1      32.543  15.665   9.569  0.00  0.00     0.013 A 
HETATM   10  C   UNK N   1      33.912  15.513   9.385  0.00  0.00    -0.020 A 
HETATM   11  C   UNK N   1      34.462  15.668   8.109  0.00  0.00     0.050 A 
HETATM   12  C   UNK N   1      33.672  15.999   7.005  0.00  0.00     0.083 A 
HETATM   13  O   UNK N   1      34.306  16.087   5.805  0.00  0.00    -0.348 OA
HETATM   14  C   UNK N   1      33.720  16.068   4.560  0.00  0.00     0.196 C 
HETATM   15  C   UNK N   1      32.910  17.318   4.345  0.00  0.00     0.156 C 
ENDROOT
BRANCH  10  16
HETATM   16  C   UNK N   1      34.795  15.306  10.534  0.00  0.00     0.008 A 
HETATM   17  C   UNK N   1      35.922  16.027  10.887  0.00  0.00     0.121 A 
HETATM   18  N   UNK N   1      36.504  15.392  11.926  0.00  0.00    -0.308 N 
HETATM   19  N   UNK N   1      35.783  14.316  12.216  0.00  0.00    -0.284 N 
ATOM     20  HN  UNK N   1      37.353  15.688  12.406  1.00  0.00     0.186 HD
HETATM   21  C   UNK N   1      34.728  14.236  11.389  0.00  0.00     0.125 A 
BRANCH  19  22
HETATM   22  C   UNK N   1      36.121  13.314  13.233  0.00  0.00     0.126 C 
HETATM   23  C   UNK N   1      36.469  14.024  14.536  0.00  0.00     0.051 C 
HETATM   24  C   UNK N   1      34.918  12.418  13.518  0.00  0.00     0.051 C 
BRANCH  22  25
HETATM   25  C   UNK N   1      37.315  12.493  12.781  0.00  0.00     0.245 C 
HETATM   26  O   UNK N   1      37.719  12.563  11.631  0.00  0.00    -0.271 OA
HETATM   27  N   UNK N   1      37.942  11.673  13.651  0.00  0.00    -0.368 N 
HETATM   28  H   UNK N   1      38.311  11.977  14.512  0.00  0.00     0.159 HD
HETATM   29  H   UNK N   1      38.035  10.722  13.412  0.00  0.00     0.159 HD
ENDBRANCH  22  25
ENDBRANCH  19  22
ENDBRANCH  10  16
BRANCH   1  30
HETATM   30  C   UNK N   1      27.998  17.465   5.261  0.00  0.00     0.152 A 
HETATM   31  N   UNK N   1      27.185  16.624   4.593  0.00  0.00    -0.328 N 
HETATM   32  C   UNK N   1      25.964  17.150   4.781  0.00  0.00     0.093 A 
ATOM     33  HN  UNK N   1      27.437  15.785   4.070  1.00  0.00     0.169 HD
HETATM   34  C   UNK N   1      24.716  16.560   4.233  0.00  0.00     0.090 C 
HETATM   35  N   UNK N   1      26.013  18.270   5.528  0.00  0.00    -0.285 N 
HETATM   36  N   UNK N   1      27.288  18.468   5.825  0.00  0.00    -0.269 N 
ATOM     37  HN  UNK N   1      25.224  18.851   5.809  1.00  0.00     0.188 HD
BRANCH  36  38
HETATM   38  C   UNK N   1      27.782  19.595   6.624  0.00  0.00     0.102 C 
HETATM   39  C   UNK N   1      27.992  19.196   8.077  0.00  0.00     0.034 C 
HETATM   40  C   UNK N   1      26.790  20.743   6.588  0.00  0.00     0.034 C 
ENDBRANCH  36  38
ENDBRANCH   1  30
TORSDOF 5
ENDMDL
MODEL 5
REMARK VINA RESULT:      -8.1      4.385     12.198
REMARK  5 active torsions:
REMARK  status: ('A' for Active; 'I' for Inactive)
REMARK    1  A    between atoms: C_5  and  C_12 
REMARK    2  A    between atoms: N_6  and  C_9 
REMARK    3  A    between atoms: C_21  and  C_27 
REMARK    4  A    between atoms: N_31  and  C_33 
REMARK    5  A    between atoms: C_33  and  C_36 
REMARK       I    between atoms: C_36  and  N_38 
ROOT
HETATM    1  C   UNK N   1      23.126  17.290   4.256  0.00  0.00     0.095 A 
HETATM    2  C   UNK N   1      23.266  18.603   3.837  0.00  0.00     0.126 A 
HETATM    3  N   UNK N   1      24.518  18.985   4.160  0.00  0.00    -0.338 N 
HETATM    4  C   UNK N   1      25.107  17.920   4.744  0.00  0.00     0.121 A 
HETATM    5  N   UNK N   1      24.268  16.877   4.823  0.00  0.00    -0.337 N 
ATOM      6  HN  UNK N   1      24.459  15.961   5.230  1.00  0.00     0.167 HD
HETATM    7  C   UNK N   1      26.470  17.846   5.307  0.00  0.00     0.042 A 
HETATM    8  C   UNK N   1      26.750  16.697   6.069  0.00  0.00     0.019 A 
HETATM    9  C   UNK N   1      27.957  16.542   6.734  0.00  0.00     0.013 A 
HETATM   10  C   UNK N   1      28.919  17.542   6.653  0.00  0.00    -0.020 A 
HETATM   11  C   UNK N   1      28.679  18.674   5.867  0.00  0.00     0.050 A 
HETATM   12  C   UNK N   1      27.479  18.843   5.173  0.00  0.00     0.083 A 
HETATM   13  O   UNK N   1      27.368  19.964   4.410  0.00  0.00    -0.348 OA
HETATM   14  C   UNK N   1      26.456  20.189   3.404  0.00  0.00     0.196 C 
HETATM   15  C   UNK N   1      25.069  20.311   3.974  0.00  0.00     0.156 C 
ENDROOT
BRANCH  10  16
HETATM   16  C   UNK N   1      30.130  17.472   7.472  0.00  0.00     0.008 A 
HETATM   17  C   UNK N   1      30.391  18.117   8.668  0.00  0.00     0.121 A 
HETATM   18  N   UNK N   1      31.681  17.882   8.986  0.00  0.00    -0.308 N 
HETATM   19  N   UNK N   1      32.215  17.127   8.034  0.00  0.00    -0.284 N 
ATOM     20  HN  UNK N   1      32.163  18.226   9.816  1.00  0.00     0.186 HD
HETATM   21  C   UNK N   1      31.294  16.853   7.096  0.00  0.00     0.125 A 
BRANCH  19  22
HETATM   22  C   UNK N   1      33.622  16.714   7.965  0.00  0.00     0.126 C 
HETATM   23  C   UNK N   1      33.729  15.244   8.352  0.00  0.00     0.051 C 
HETATM   24  C   UNK N   1      34.144  16.840   6.535  0.00  0.00     0.051 C 
BRANCH  22  25
HETATM   25  C   UNK N   1      34.458  17.542   8.923  0.00  0.00     0.245 C 
HETATM   26  O   UNK N   1      34.859  18.651   8.602  0.00  0.00    -0.271 OA
HETATM   27  N   UNK N   1      34.770  17.057  10.144  0.00  0.00    -0.368 N 
HETATM   28  H   UNK N   1      34.095  16.749  10.792  0.00  0.00     0.159 HD
HETATM   29  H   UNK N   1      35.719  17.010  10.399  0.00  0.00     0.159 HD
ENDBRANCH  22  25
ENDBRANCH  19  22
ENDBRANCH  10  16
BRANCH   1  30
HETATM   30  C   UNK N   1      21.959  16.403   4.192  0.00  0.00     0.152 A 
HETATM   31  N   UNK N   1      21.453  15.994   3.012  0.00  0.00    -0.328 N 
HETATM   32  C   UNK N   1      20.433  15.196   3.366  0.00  0.00     0.093 A 
ATOM     33  HN  UNK N   1      21.770  16.234   2.073  1.00  0.00     0.169 HD
HETATM   34  C   UNK N   1      19.559  14.490   2.394  0.00  0.00     0.090 C 
HETATM   35  N   UNK N   1      20.306  15.113   4.705  0.00  0.00    -0.285 N 
HETATM   36  N   UNK N   1      21.260  15.871   5.221  0.00  0.00    -0.269 N 
ATOM     37  HN  UNK N   1      19.611  14.572   5.219  1.00  0.00     0.188 HD
BRANCH  36  38
HETATM   38  C   UNK N   1      21.470  16.067   6.659  0.00  0.00     0.102 C 
HETATM   39  C   UNK N   1      21.094  14.822   7.450  0.00  0.00     0.034 C 
HETATM   40  C   UNK N   1      20.622  17.220   7.165  0.00  0.00     0.034 C 
ENDBRANCH  36  38
ENDBRANCH   1  30
TORSDOF 5
ENDMDL
MODEL 6
REMARK VINA RESULT:      -8.0      4.310     12.299
REMARK  5 active torsions:
REMARK  status: ('A' for Active; 'I' for Inactive)
REMARK    1  A    between atoms: C_5  and  C_12 
REMARK    2  A    between atoms: N_6  and  C_9 
REMARK    3  A    between atoms: C_21  and  C_27 
REMARK    4  A    between atoms: N_31  and  C_33 
REMARK    5  A    between atoms: C_33  and  C_36 
REMARK       I    between atoms: C_36  and  N_38 
ROOT
HETATM    1  C   UNK N   1      23.188  17.461   4.238  0.00  0.00     0.095 A 
HETATM    2  C   UNK N   1      23.382  18.767   3.818  0.00  0.00     0.126 A 
HETATM    3  N   UNK N   1      24.644  19.102   4.154  0.00  0.00    -0.338 N 
HETATM    4  C   UNK N   1      25.185  18.018   4.747  0.00  0.00     0.121 A 
HETATM    5  N   UNK N   1      24.307  17.007   4.819  0.00  0.00    -0.337 N 
ATOM      6  HN  UNK N   1      24.459  16.086   5.229  1.00  0.00     0.167 HD
HETATM    7  C   UNK N   1      26.539  17.893   5.325  0.00  0.00     0.042 A 
HETATM    8  C   UNK N   1      26.766  16.737   6.092  0.00  0.00     0.019 A 
HETATM    9  C   UNK N   1      27.960  16.537   6.771  0.00  0.00     0.013 A 
HETATM   10  C   UNK N   1      28.959  17.500   6.698  0.00  0.00    -0.020 A 
HETATM   11  C   UNK N   1      28.772  18.639   5.908  0.00  0.00     0.050 A 
HETATM   12  C   UNK N   1      27.586  18.851   5.200  0.00  0.00     0.083 A 
HETATM   13  O   UNK N   1      27.526  19.973   4.434  0.00  0.00    -0.348 OA
HETATM   14  C   UNK N   1      26.634  20.231   3.417  0.00  0.00     0.196 C 
HETATM   15  C   UNK N   1      25.247  20.406   3.971  0.00  0.00     0.156 C 
ENDROOT
BRANCH  10  16
HETATM   16  C   UNK N   1      30.158  17.387   7.531  0.00  0.00     0.008 A 
HETATM   17  C   UNK N   1      30.484  18.113   8.663  0.00  0.00     0.121 A 
HETATM   18  N   UNK N   1      31.744  17.780   9.013  0.00  0.00    -0.308 N 
HETATM   19  N   UNK N   1      32.198  16.888   8.142  0.00  0.00    -0.284 N 
ATOM     20  HN  UNK N   1      32.259  18.151   9.811  1.00  0.00     0.186 HD
HETATM   21  C   UNK N   1      31.253  16.620   7.226  0.00  0.00     0.125 A 
BRANCH  19  22
HETATM   22  C   UNK N   1      33.556  16.330   8.124  0.00  0.00     0.126 C 
HETATM   23  C   UNK N   1      33.476  14.820   8.309  0.00  0.00     0.051 C 
HETATM   24  C   UNK N   1      34.217  16.581   6.771  0.00  0.00     0.051 C 
BRANCH  22  25
HETATM   25  C   UNK N   1      34.380  16.925   9.250  0.00  0.00     0.245 C 
HETATM   26  O   UNK N   1      34.969  17.985   9.098  0.00  0.00    -0.271 OA
HETATM   27  N   UNK N   1      34.473  16.285  10.435  0.00  0.00    -0.368 N 
HETATM   28  H   UNK N   1      33.690  16.023  10.971  0.00  0.00     0.159 HD
HETATM   29  H   UNK N   1      35.369  16.069  10.780  0.00  0.00     0.159 HD
ENDBRANCH  22  25
ENDBRANCH  19  22
ENDBRANCH  10  16
BRANCH   1  30
HETATM   30  C   UNK N   1      21.989  16.619   4.163  0.00  0.00     0.152 A 
HETATM   31  N   UNK N   1      20.938  16.821   4.982  0.00  0.00    -0.328 N 
HETATM   32  C   UNK N   1      20.053  15.887   4.596  0.00  0.00     0.093 A 
ATOM     33  HN  UNK N   1      20.838  17.519   5.719  1.00  0.00     0.169 HD
HETATM   34  C   UNK N   1      18.712  15.716   5.209  0.00  0.00     0.090 C 
HETATM   35  N   UNK N   1      20.532  15.135   3.586  0.00  0.00    -0.285 N 
HETATM   36  N   UNK N   1      21.745  15.592   3.319  0.00  0.00    -0.269 N 
ATOM     37  HN  UNK N   1      20.053  14.364   3.120  1.00  0.00     0.188 HD
BRANCH  36  38
HETATM   38  C   UNK N   1      22.623  15.039   2.282  0.00  0.00     0.102 C 
HETATM   39  C   UNK N   1      21.825  14.535   1.088  0.00  0.00     0.034 C 
HETATM   40  C   UNK N   1      23.427  13.876   2.836  0.00  0.00     0.034 C 
ENDBRANCH  36  38
ENDBRANCH   1  30
TORSDOF 5
ENDMDL
MODEL 7
REMARK VINA RESULT:      -8.0      5.473      9.855
REMARK  5 active torsions:
REMARK  status: ('A' for Active; 'I' for Inactive)
REMARK    1  A    between atoms: C_5  and  C_12 
REMARK    2  A    between atoms: N_6  and  C_9 
REMARK    3  A    between atoms: C_21  and  C_27 
REMARK    4  A    between atoms: N_31  and  C_33 
REMARK    5  A    between atoms: C_33  and  C_36 
REMARK       I    between atoms: C_36  and  N_38 
ROOT
HETATM    1  C   UNK N   1      34.329   8.488  19.078  0.00  0.00     0.095 A 
HETATM    2  C   UNK N   1      34.859   9.332  20.041  0.00  0.00     0.126 A 
HETATM    3  N   UNK N   1      35.139  10.498  19.424  0.00  0.00    -0.338 N 
HETATM    4  C   UNK N   1      34.772  10.350  18.135  0.00  0.00     0.121 A 
HETATM    5  N   UNK N   1      34.286   9.123  17.900  0.00  0.00    -0.337 N 
ATOM      6  HN  UNK N   1      33.952   8.752  17.010  1.00  0.00     0.167 HD
HETATM    7  C   UNK N   1      34.911  11.336  17.043  0.00  0.00     0.042 A 
HETATM    8  C   UNK N   1      34.671  10.844  15.748  0.00  0.00     0.019 A 
HETATM    9  C   UNK N   1      34.857  11.636  14.624  0.00  0.00     0.013 A 
HETATM   10  C   UNK N   1      35.294  12.947  14.772  0.00  0.00    -0.020 A 
HETATM   11  C   UNK N   1      35.499  13.470  16.053  0.00  0.00     0.050 A 
HETATM   12  C   UNK N   1      35.299  12.698  17.200  0.00  0.00     0.083 A 
HETATM   13  O   UNK N   1      35.491  13.319  18.395  0.00  0.00    -0.348 OA
HETATM   14  C   UNK N   1      35.051  12.892  19.627  0.00  0.00     0.196 C 
HETATM   15  C   UNK N   1      35.781  11.642  20.038  0.00  0.00     0.156 C 
ENDROOT
BRANCH  10  16
HETATM   16  C   UNK N   1      35.650  13.746  13.599  0.00  0.00     0.008 A 
HETATM   17  C   UNK N   1      36.484  14.849  13.536  0.00  0.00     0.121 A 
HETATM   18  N   UNK N   1      36.401  15.353  12.287  0.00  0.00    -0.308 N 
HETATM   19  N   UNK N   1      35.551  14.609  11.591  0.00  0.00    -0.284 N 
ATOM     20  HN  UNK N   1      36.905  16.168  11.938  1.00  0.00     0.186 HD
HETATM   21  C   UNK N   1      35.077  13.614  12.360  0.00  0.00     0.125 A 
BRANCH  19  22
HETATM   22  C   UNK N   1      35.122  14.871  10.212  0.00  0.00     0.126 C 
HETATM   23  C   UNK N   1      36.259  14.517   9.262  0.00  0.00     0.051 C 
HETATM   24  C   UNK N   1      33.938  13.980   9.844  0.00  0.00     0.051 C 
BRANCH  22  25
HETATM   25  C   UNK N   1      34.772  16.337  10.043  0.00  0.00     0.245 C 
HETATM   26  O   UNK N   1      35.575  17.208  10.341  0.00  0.00    -0.271 OA
HETATM   27  N   UNK N   1      33.562  16.694   9.561  0.00  0.00    -0.368 N 
HETATM   28  H   UNK N   1      33.207  16.376   8.700  0.00  0.00     0.159 HD
HETATM   29  H   UNK N   1      33.007  17.305  10.098  0.00  0.00     0.159 HD
ENDBRANCH  22  25
ENDBRANCH  19  22
ENDBRANCH  10  16
BRANCH   1  30
HETATM   30  C   UNK N   1      33.894   7.091  19.192  0.00  0.00     0.152 A 
HETATM   31  N   UNK N   1      34.549   6.099  18.557  0.00  0.00    -0.328 N 
HETATM   32  C   UNK N   1      33.877   4.994  18.921  0.00  0.00     0.093 A 
ATOM     33  HN  UNK N   1      35.363   6.171  17.946  1.00  0.00     0.169 HD
HETATM   34  C   UNK N   1      34.235   3.624  18.474  0.00  0.00     0.090 C 
HETATM   35  N   UNK N   1      32.849   5.283  19.742  0.00  0.00    -0.285 N 
HETATM   36  N   UNK N   1      32.859   6.597  19.908  0.00  0.00    -0.269 N 
ATOM     37  HN  UNK N   1      32.192   4.621  20.153  1.00  0.00     0.188 HD
BRANCH  36  38
HETATM   38  C   UNK N   1      31.890   7.330  20.729  0.00  0.00     0.102 C 
HETATM   39  C   UNK N   1      31.456   6.514  21.939  0.00  0.00     0.034 C 
HETATM   40  C   UNK N   1      30.651   7.661  19.916  0.00  0.00     0.034 C 
ENDBRANCH  36  38
ENDBRANCH   1  30
TORSDOF 5
ENDMDL
MODEL 8
REMARK VINA RESULT:      -7.8      3.215     10.210
REMARK  5 active torsions:
REMARK  status: ('A' for Active; 'I' for Inactive)
REMARK    1  A    between atoms: C_5  and  C_12 
REMARK    2  A    between atoms: N_6  and  C_9 
REMARK    3  A    between atoms: C_21  and  C_27 
REMARK    4  A    between atoms: N_31  and  C_33 
REMARK    5  A    between atoms: C_33  and  C_36 
REMARK       I    between atoms: C_36  and  N_38 
ROOT
HETATM    1  C   UNK N   1      32.498  15.532   5.871  0.00  0.00     0.095 A 
HETATM    2  C   UNK N   1      32.595  16.896   6.101  0.00  0.00     0.126 A 
HETATM    3  N   UNK N   1      33.216  17.048   7.288  0.00  0.00    -0.338 N 
HETATM    4  C   UNK N   1      33.490  15.807   7.741  0.00  0.00     0.121 A 
HETATM    5  N   UNK N   1      33.048  14.866   6.895  0.00  0.00    -0.337 N 
ATOM      6  HN  UNK N   1      33.116  13.854   7.007  1.00  0.00     0.167 HD
HETATM    7  C   UNK N   1      34.133  15.441   9.020  0.00  0.00     0.042 A 
HETATM    8  C   UNK N   1      34.083  14.075   9.354  0.00  0.00     0.019 A 
HETATM    9  C   UNK N   1      34.563  13.606  10.568  0.00  0.00     0.013 A 
HETATM   10  C   UNK N   1      35.105  14.500  11.484  0.00  0.00    -0.020 A 
HETATM   11  C   UNK N   1      35.202  15.857  11.156  0.00  0.00     0.050 A 
HETATM   12  C   UNK N   1      34.744  16.349   9.932  0.00  0.00     0.083 A 
HETATM   13  O   UNK N   1      34.923  17.678   9.703  0.00  0.00    -0.348 OA
HETATM   14  C   UNK N   1      34.866  18.320   8.487  0.00  0.00     0.196 C 
HETATM   15  C   UNK N   1      33.458  18.309   7.956  0.00  0.00     0.156 C 
ENDROOT
BRANCH  10  16
HETATM   16  C   UNK N   1      35.469  14.053  12.829  0.00  0.00     0.008 A 
HETATM   17  C   UNK N   1      36.421  14.586  13.680  0.00  0.00     0.121 A 
HETATM   18  N   UNK N   1      36.521  13.768  14.747  0.00  0.00    -0.308 N 
HETATM   19  N   UNK N   1      35.675  12.759  14.580  0.00  0.00    -0.284 N 
ATOM     20  HN  UNK N   1      37.141  13.901  15.545  1.00  0.00     0.186 HD
HETATM   21  C   UNK N   1      35.011  12.904  13.422  0.00  0.00     0.125 A 
BRANCH  19  22
HETATM   22  C   UNK N   1      35.534  11.609  15.481  0.00  0.00     0.126 C 
HETATM   23  C   UNK N   1      34.378  10.739  15.000  0.00  0.00     0.051 C 
HETATM   24  C   UNK N   1      36.791  10.744  15.442  0.00  0.00     0.051 C 
BRANCH  22  25
HETATM   25  C   UNK N   1      35.244  12.082  16.893  0.00  0.00     0.245 C 
HETATM   26  O   UNK N   1      34.876  13.228  17.102  0.00  0.00    -0.271 OA
HETATM   27  N   UNK N   1      35.394  11.238  17.936  0.00  0.00    -0.368 N 
HETATM   28  H   UNK N   1      34.940  10.366  17.996  0.00  0.00     0.159 HD
HETATM   29  H   UNK N   1      35.987  11.508  18.674  0.00  0.00     0.159 HD
ENDBRANCH  22  25
ENDBRANCH  19  22
ENDBRANCH  10  16
BRANCH   1  30
HETATM   30  C   UNK N   1      31.877  14.810   4.755  0.00  0.00     0.152 A 
HETATM   31  N   UNK N   1      32.618  14.118   3.869  0.00  0.00    -0.328 N 
HETATM   32  C   UNK N   1      31.705  13.592   3.036  0.00  0.00     0.093 A 
ATOM     33  HN  UNK N   1      33.633  14.017   3.838  1.00  0.00     0.169 HD
HETATM   34  C   UNK N   1      32.044  12.725   1.879  0.00  0.00     0.090 C 
HETATM   35  N   UNK N   1      30.452  13.942   3.385  0.00  0.00    -0.285 N 
HETATM   36  N   UNK N   1      30.561  14.707   4.460  0.00  0.00    -0.269 N 
ATOM     37  HN  UNK N   1      29.590  13.670   2.914  1.00  0.00     0.188 HD
BRANCH  36  38
HETATM   38  C   UNK N   1      29.422  15.313   5.159  0.00  0.00     0.102 C 
HETATM   39  C   UNK N   1      28.176  14.447   5.044  0.00  0.00     0.034 C 
HETATM   40  C   UNK N   1      29.106  16.676   4.570  0.00  0.00     0.034 C 
ENDBRANCH  36  38
ENDBRANCH   1  30
TORSDOF 5
ENDMDL
MODEL 9
REMARK VINA RESULT:      -7.8      2.481      3.443
REMARK  5 active torsions:
REMARK  status: ('A' for Active; 'I' for Inactive)
REMARK    1  A    between atoms: C_5  and  C_12 
REMARK    2  A    between atoms: N_6  and  C_9 
REMARK    3  A    between atoms: C_21  and  C_27 
REMARK    4  A    between atoms: N_31  and  C_33 
REMARK    5  A    between atoms: C_33  and  C_36 
REMARK       I    between atoms: C_36  and  N_38 
ROOT
HETATM    1  C   UNK N   1      36.243  13.034  13.865  0.00  0.00     0.095 A 
HETATM    2  C   UNK N   1      37.208  12.285  13.210  0.00  0.00     0.126 A 
HETATM    3  N   UNK N   1      37.185  12.665  11.917  0.00  0.00    -0.338 N 
HETATM    4  C   UNK N   1      36.240  13.622  11.813  0.00  0.00     0.121 A 
HETATM    5  N   UNK N   1      35.644  13.854  12.991  0.00  0.00    -0.337 N 
ATOM      6  HN  UNK N   1      34.892  14.516  13.182  1.00  0.00     0.167 HD
HETATM    7  C   UNK N   1      35.810  14.330  10.590  0.00  0.00     0.042 A 
HETATM    8  C   UNK N   1      34.645  15.107  10.716  0.00  0.00     0.019 A 
HETATM    9  C   UNK N   1      34.076  15.748   9.625  0.00  0.00     0.013 A 
HETATM   10  C   UNK N   1      34.665  15.623   8.372  0.00  0.00    -0.020 A 
HETATM   11  C   UNK N   1      35.847  14.890   8.230  0.00  0.00     0.050 A 
HETATM   12  C   UNK N   1      36.449  14.252   9.318  0.00  0.00     0.083 A 
HETATM   13  O   UNK N   1      37.616  13.598   9.073  0.00  0.00    -0.348 OA
HETATM   14  C   UNK N   1      38.544  13.190  10.004  0.00  0.00     0.196 C 
HETATM   15  C   UNK N   1      37.979  12.084  10.854  0.00  0.00     0.156 C 
ENDROOT
BRANCH  10  16
HETATM   16  C   UNK N   1      33.997  16.156   7.184  0.00  0.00     0.008 A 
HETATM   17  C   UNK N   1      33.493  17.429   6.984  0.00  0.00     0.121 A 
HETATM   18  N   UNK N   1      32.833  17.427   5.808  0.00  0.00    -0.308 N 
HETATM   19  N   UNK N   1      32.909  16.209   5.287  0.00  0.00    -0.284 N 
ATOM     20  HN  UNK N   1      32.356  18.226   5.391  1.00  0.00     0.186 HD
HETATM   21  C   UNK N   1      33.618  15.408   6.099  0.00  0.00     0.125 A 
BRANCH  19  22
HETATM   22  C   UNK N   1      32.253  15.770   4.049  0.00  0.00     0.126 C 
HETATM   23  C   UNK N   1      32.880  16.500   2.868  0.00  0.00     0.051 C 
HETATM   24  C   UNK N   1      32.482  14.277   3.826  0.00  0.00     0.051 C 
BRANCH  22  25
HETATM   25  C   UNK N   1      30.771  16.090   4.101  0.00  0.00     0.245 C 
HETATM   26  O   UNK N   1      30.029  15.482   4.858  0.00  0.00    -0.271 OA
HETATM   27  N   UNK N   1      30.257  17.052   3.306  0.00  0.00    -0.368 N 
HETATM   28  H   UNK N   1      30.589  17.979   3.294  0.00  0.00     0.159 HD
HETATM   29  H   UNK N   1      29.510  16.815   2.710  0.00  0.00     0.159 HD
ENDBRANCH  22  25
ENDBRANCH  19  22
ENDBRANCH  10  16
BRANCH   1  30
HETATM   30  C   UNK N   1      35.818  12.996  15.269  0.00  0.00     0.152 A 
HETATM   31  N   UNK N   1      35.977  14.061  16.078  0.00  0.00    -0.328 N 
HETATM   32  C   UNK N   1      35.455  13.651  17.246  0.00  0.00     0.093 A 
ATOM     33  HN  UNK N   1      36.395  14.966  15.856  1.00  0.00     0.169 HD
HETATM   34  C   UNK N   1      35.391  14.496  18.465  0.00  0.00     0.090 C 
HETATM   35  N   UNK N   1      34.994  12.388  17.169  0.00  0.00    -0.285 N 
HETATM   36  N   UNK N   1      35.225  11.978  15.932  0.00  0.00    -0.269 N 
ATOM     37  HN  UNK N   1      34.555  11.853  17.918  1.00  0.00     0.188 HD
BRANCH  36  38
HETATM   38  C   UNK N   1      34.882  10.643  15.429  0.00  0.00     0.102 C 
HETATM   39  C   UNK N   1      33.594  10.669  14.619  0.00  0.00     0.034 C 
HETATM   40  C   UNK N   1      34.693   9.676  16.584  0.00  0.00     0.034 C 
ENDBRANCH  36  38
ENDBRANCH   1  30
TORSDOF 5
ENDMDL
