MODEL 1
REMARK VINA RESULT:      -9.0      0.000      0.000
REMARK  9 active torsions:
REMARK  status: ('A' for Active; 'I' for Inactive)
REMARK    1  A    between atoms: C_5  and  C_8 
REMARK    2  A    between atoms: C_9  and  C_10 
REMARK    3  A    between atoms: C_13  and  S_15 
REMARK    4  A    between atoms: S_15  and  N_18 
REMARK    5  A    between atoms: C_19  and  N_18 
REMARK    6  A    between atoms: C_19  and  C_20 
REMARK    7  A    between atoms: C_19  and  C_30 
REMARK    8  A    between atoms: C_20  and  C_21 
REMARK    9  A    between atoms: C_30  and  O_32 
ROOT
HETATM    1  N   UNK N   1      33.476  14.931  10.838  0.00  0.00    -0.303 N 
HETATM    2  H   UNK N   1      32.687  15.065  11.471  0.00  0.00     0.173 HD
ENDROOT
BRANCH   1   3
HETATM    3  S   UNK N   1      33.300  14.658   9.084  0.00  0.00     0.244 S 
HETATM    4  O   UNK N   1      34.628  13.992   8.688  0.00  0.00    -0.204 OA
HETATM    5  O   UNK N   1      32.323  13.494   8.884  0.00  0.00    -0.204 OA
BRANCH   3   6
HETATM    6  C   UNK N   1      33.108  16.045   8.001  0.00  0.00     0.218 A 
HETATM    7  C   UNK N   1      32.781  17.281   8.571  0.00  0.00     0.008 A 
HETATM    8  C   UNK N   1      31.713  17.945   7.910  0.00  0.00     0.026 A 
HETATM    9  C   UNK N   1      31.238  17.207   6.837  0.00  0.00     0.055 A 
HETATM   10  S   UNK N   1      32.146  15.858   6.691  0.00  0.00    -0.095 SA
BRANCH   9  11
HETATM   11  C   UNK N   1      30.004  17.326   6.160  0.00  0.00    -0.054 C 
HETATM   12  C   UNK N   1      29.066  17.680   5.513  0.00  0.00    -0.061 C 
BRANCH  12  13
HETATM   13  C   UNK N   1      28.044  18.411   4.863  0.00  0.00     0.018 A 
HETATM   14  C   UNK N   1      27.040  17.660   4.261  0.00  0.00     0.021 A 
HETATM   15  C   UNK N   1      26.014  18.288   3.574  0.00  0.00     0.008 A 
HETATM   16  C   UNK N   1      25.968  19.678   3.520  0.00  0.00    -0.062 A 
HETATM   17  C   UNK N   1      24.868  20.335   2.773  0.00  0.00     0.048 C 
HETATM   18  C   UNK N   1      26.959  20.444   4.155  0.00  0.00     0.008 A 
HETATM   19  C   UNK N   1      28.015  19.808   4.820  0.00  0.00     0.021 A 
ENDBRANCH  12  13
ENDBRANCH   9  11
ENDBRANCH   3   6
ENDBRANCH   1   3
BRANCH   1  20
HETATM   20  C   UNK N   1      34.880  14.945  11.272  0.00  0.00     0.194 C 
BRANCH  20  21
HETATM   21  C   UNK N   1      35.563  13.616  11.559  0.00  0.00     0.077 C 
BRANCH  21  22
HETATM   22  C   UNK N   1      35.707  13.446  13.031  0.00  0.00    -0.028 A 
HETATM   23  C   UNK N   1      36.379  14.279  13.922  0.00  0.00     0.096 A 
HETATM   24  N   UNK N   1      36.238  13.795  15.184  0.00  0.00    -0.365 N 
HETATM   25  C   UNK N   1      35.485  12.684  15.073  0.00  0.00     0.042 A 
HETATM   26  H   UNK N   1      36.610  14.179  16.011  0.00  0.00     0.165 HD
HETATM   27  C   UNK N   1      35.151  12.446  13.773  0.00  0.00    -0.002 A 
HETATM   28  C   UNK N   1      35.058  11.850  16.103  0.00  0.00     0.030 A 
HETATM   29  C   UNK N   1      34.365  11.361  13.394  0.00  0.00     0.014 A 
HETATM   30  C   UNK N   1      33.917  10.497  14.407  0.00  0.00     0.001 A 
HETATM   31  C   UNK N   1      34.261  10.740  15.757  0.00  0.00     0.002 A 
ENDBRANCH  21  22
ENDBRANCH  20  21
BRANCH  20  32
HETATM   32  C   UNK N   1      35.716  16.150  10.967  0.00  0.00     0.164 C 
HETATM   33  O   UNK N   1      35.195  17.250  10.875  0.00  0.00    -0.648 OA
BRANCH  32  34
HETATM   34  O   UNK N   1      37.039  16.016  10.765  0.00  0.00    -0.775 OA
HETATM   35  H   UNK N   1      37.893  15.707  10.997  0.00  0.00     0.167 HD
ENDBRANCH  32  34
ENDBRANCH  20  32
ENDBRANCH   1  20
TORSDOF 9
ENDMDL
MODEL 2
REMARK VINA RESULT:      -8.9      2.665     11.394
REMARK  9 active torsions:
REMARK  status: ('A' for Active; 'I' for Inactive)
REMARK    1  A    between atoms: C_5  and  C_8 
REMARK    2  A    between atoms: C_9  and  C_10 
REMARK    3  A    between atoms: C_13  and  S_15 
REMARK    4  A    between atoms: S_15  and  N_18 
REMARK    5  A    between atoms: C_19  and  N_18 
REMARK    6  A    between atoms: C_19  and  C_20 
REMARK    7  A    between atoms: C_19  and  C_30 
REMARK    8  A    between atoms: C_20  and  C_21 
REMARK    9  A    between atoms: C_30  and  O_32 
ROOT
HETATM    1  N   UNK N   1      34.272  16.790   9.980  0.00  0.00    -0.303 N 
HETATM    2  H   UNK N   1      34.259  17.324  10.850  0.00  0.00     0.173 HD
ENDROOT
BRANCH   1   3
HETATM    3  S   UNK N   1      35.083  15.213   9.801  0.00  0.00     0.244 S 
HETATM    4  O   UNK N   1      33.937  14.199   9.947  0.00  0.00    -0.204 OA
HETATM    5  O   UNK N   1      35.441  15.031   8.322  0.00  0.00    -0.204 OA
BRANCH   3   6
HETATM    6  C   UNK N   1      36.316  14.728  10.976  0.00  0.00     0.218 A 
HETATM    7  C   UNK N   1      36.675  13.376  11.029  0.00  0.00     0.008 A 
HETATM    8  C   UNK N   1      36.707  12.850  12.348  0.00  0.00     0.026 A 
HETATM    9  C   UNK N   1      36.374  13.811  13.289  0.00  0.00     0.055 A 
HETATM   10  S   UNK N   1      36.132  15.232  12.521  0.00  0.00    -0.095 SA
BRANCH   9  11
HETATM   11  C   UNK N   1      35.951  13.631  14.626  0.00  0.00    -0.054 C 
HETATM   12  C   UNK N   1      35.775  13.258  15.745  0.00  0.00    -0.061 C 
BRANCH  12  13
HETATM   13  C   UNK N   1      35.624  12.508  16.934  0.00  0.00     0.018 A 
HETATM   14  C   UNK N   1      35.237  13.219  18.065  0.00  0.00     0.021 A 
HETATM   15  C   UNK N   1      35.094  12.574  19.283  0.00  0.00     0.008 A 
HETATM   16  C   UNK N   1      35.301  11.199  19.365  0.00  0.00    -0.062 A 
HETATM   17  C   UNK N   1      35.153  10.524  20.677  0.00  0.00     0.048 C 
HETATM   18  C   UNK N   1      35.658  10.468  18.221  0.00  0.00     0.008 A 
HETATM   19  C   UNK N   1      35.837  11.127  16.997  0.00  0.00     0.021 A 
ENDBRANCH  12  13
ENDBRANCH   9  11
ENDBRANCH   3   6
ENDBRANCH   1   3
BRANCH   1  20
HETATM   20  C   UNK N   1      33.623  17.239   8.739  0.00  0.00     0.194 C 
BRANCH  20  21
HETATM   21  C   UNK N   1      32.104  17.186   8.656  0.00  0.00     0.077 C 
BRANCH  21  22
HETATM   22  C   UNK N   1      31.705  16.213   7.602  0.00  0.00    -0.028 A 
HETATM   23  C   UNK N   1      32.240  14.950   7.363  0.00  0.00     0.096 A 
HETATM   24  N   UNK N   1      31.568  14.363   6.337  0.00  0.00    -0.365 N 
HETATM   25  C   UNK N   1      30.629  15.249   5.955  0.00  0.00     0.042 A 
HETATM   26  H   UNK N   1      31.734  13.472   5.954  0.00  0.00     0.165 HD
HETATM   27  C   UNK N   1      30.691  16.385   6.706  0.00  0.00    -0.002 A 
HETATM   28  C   UNK N   1      29.681  15.089   4.947  0.00  0.00     0.030 A 
HETATM   29  C   UNK N   1      29.817  17.452   6.515  0.00  0.00     0.014 A 
HETATM   30  C   UNK N   1      28.848  17.326   5.505  0.00  0.00     0.001 A 
HETATM   31  C   UNK N   1      28.779  16.149   4.724  0.00  0.00     0.002 A 
ENDBRANCH  21  22
ENDBRANCH  20  21
BRANCH  20  32
HETATM   32  C   UNK N   1      34.379  18.148   7.820  0.00  0.00     0.164 C 
HETATM   33  O   UNK N   1      34.991  19.103   8.269  0.00  0.00    -0.648 OA
BRANCH  32  34
HETATM   34  O   UNK N   1      34.358  17.929   6.493  0.00  0.00    -0.775 OA
HETATM   35  H   UNK N   1      34.511  18.177   5.602  0.00  0.00     0.167 HD
ENDBRANCH  32  34
ENDBRANCH  20  32
ENDBRANCH   1  20
TORSDOF 9
ENDMDL
MODEL 3
REMARK VINA RESULT:      -8.6      2.725     11.434
REMARK  9 active torsions:
REMARK  status: ('A' for Active; 'I' for Inactive)
REMARK    1  A    between atoms: C_5  and  C_8 
REMARK    2  A    between atoms: C_9  and  C_10 
REMARK    3  A    between atoms: C_13  and  S_15 
REMARK    4  A    between atoms: S_15  and  N_18 
REMARK    5  A    between atoms: C_19  and  N_18 
REMARK    6  A    between atoms: C_19  and  C_20 
REMARK    7  A    between atoms: C_19  and  C_30 
REMARK    8  A    between atoms: C_20  and  C_21 
REMARK    9  A    between atoms: C_30  and  O_32 
ROOT
HETATM    1  N   UNK N   1      33.411  15.712  10.099  0.00  0.00    -0.303 N 
HETATM    2  H   UNK N   1      32.777  15.836  10.889  0.00  0.00     0.173 HD
ENDROOT
BRANCH   1   3
HETATM    3  S   UNK N   1      35.188  15.720  10.248  0.00  0.00     0.244 S 
HETATM    4  O   UNK N   1      35.671  15.516   8.803  0.00  0.00    -0.204 OA
HETATM    5  O   UNK N   1      35.633  17.166  10.499  0.00  0.00    -0.204 OA
BRANCH   3   6
HETATM    6  C   UNK N   1      35.988  14.470  11.212  0.00  0.00     0.218 A 
HETATM    7  C   UNK N   1      35.487  13.165  11.138  0.00  0.00     0.008 A 
HETATM    8  C   UNK N   1      35.306  12.555  12.408  0.00  0.00     0.026 A 
HETATM    9  C   UNK N   1      35.676  13.403  13.440  0.00  0.00     0.055 A 
HETATM   10  S   UNK N   1      36.256  14.787  12.794  0.00  0.00    -0.095 SA
BRANCH   9  11
HETATM   11  C   UNK N   1      35.334  13.331  14.809  0.00  0.00    -0.054 C 
HETATM   12  C   UNK N   1      35.250  13.073  15.970  0.00  0.00    -0.061 C 
BRANCH  12  13
HETATM   13  C   UNK N   1      35.238  12.453  17.241  0.00  0.00     0.018 A 
HETATM   14  C   UNK N   1      35.270  11.062  17.246  0.00  0.00     0.021 A 
HETATM   15  C   UNK N   1      35.230  10.366  18.444  0.00  0.00     0.008 A 
HETATM   16  C   UNK N   1      35.198  11.064  19.648  0.00  0.00    -0.062 A 
HETATM   17  C   UNK N   1      35.146  10.304  20.920  0.00  0.00     0.048 C 
HETATM   18  C   UNK N   1      35.202  12.468  19.653  0.00  0.00     0.008 A 
HETATM   19  C   UNK N   1      35.206  13.171  18.441  0.00  0.00     0.021 A 
ENDBRANCH  12  13
ENDBRANCH   9  11
ENDBRANCH   3   6
ENDBRANCH   1   3
BRANCH   1  20
HETATM   20  C   UNK N   1      32.958  15.504   8.716  0.00  0.00     0.194 C 
BRANCH  20  21
HETATM   21  C   UNK N   1      32.942  16.698   7.772  0.00  0.00     0.077 C 
BRANCH  21  22
HETATM   22  C   UNK N   1      31.567  16.874   7.228  0.00  0.00    -0.028 A 
HETATM   23  C   UNK N   1      31.075  16.438   6.000  0.00  0.00     0.096 A 
HETATM   24  N   UNK N   1      29.758  16.761   5.903  0.00  0.00    -0.365 N 
HETATM   25  C   UNK N   1      29.442  17.380   7.056  0.00  0.00     0.042 A 
HETATM   26  H   UNK N   1      29.158  16.578   5.145  0.00  0.00     0.165 HD
HETATM   27  C   UNK N   1      30.525  17.466   7.880  0.00  0.00    -0.002 A 
HETATM   28  C   UNK N   1      28.198  17.880   7.430  0.00  0.00     0.030 A 
HETATM   29  C   UNK N   1      30.457  18.054   9.140  0.00  0.00     0.014 A 
HETATM   30  C   UNK N   1      29.217  18.570   9.550  0.00  0.00     0.001 A 
HETATM   31  C   UNK N   1      28.091  18.484   8.699  0.00  0.00     0.002 A 
ENDBRANCH  21  22
ENDBRANCH  20  21
BRANCH  20  32
HETATM   32  C   UNK N   1      32.990  14.118   8.149  0.00  0.00     0.164 C 
HETATM   33  O   UNK N   1      32.350  13.224   8.678  0.00  0.00    -0.648 OA
BRANCH  32  34
HETATM   34  O   UNK N   1      33.749  13.852   7.071  0.00  0.00    -0.775 OA
HETATM   35  H   UNK N   1      34.116  13.276   6.428  0.00  0.00     0.167 HD
ENDBRANCH  32  34
ENDBRANCH  20  32
ENDBRANCH   1  20
TORSDOF 9
ENDMDL
MODEL 4
REMARK VINA RESULT:      -8.6      2.490     11.278
REMARK  9 active torsions:
REMARK  status: ('A' for Active; 'I' for Inactive)
REMARK    1  A    between atoms: C_5  and  C_8 
REMARK    2  A    between atoms: C_9  and  C_10 
REMARK    3  A    between atoms: C_13  and  S_15 
REMARK    4  A    between atoms: S_15  and  N_18 
REMARK    5  A    between atoms: C_19  and  N_18 
REMARK    6  A    between atoms: C_19  and  C_20 
REMARK    7  A    between atoms: C_19  and  C_30 
REMARK    8  A    between atoms: C_20  and  C_21 
REMARK    9  A    between atoms: C_30  and  O_32 
ROOT
HETATM    1  N   UNK N   1      33.899  15.191   9.126  0.00  0.00    -0.303 N 
HETATM    2  H   UNK N   1      33.187  15.103   9.852  0.00  0.00     0.173 HD
ENDROOT
BRANCH   1   3
HETATM    3  S   UNK N   1      35.408  14.242   9.101  0.00  0.00     0.244 S 
HETATM    4  O   UNK N   1      34.917  12.786   9.040  0.00  0.00    -0.204 OA
HETATM    5  O   UNK N   1      36.036  14.392   7.710  0.00  0.00    -0.204 OA
BRANCH   3   6
HETATM    6  C   UNK N   1      36.515  14.327  10.480  0.00  0.00     0.218 A 
HETATM    7  C   UNK N   1      37.240  13.176  10.810  0.00  0.00     0.008 A 
HETATM    8  C   UNK N   1      37.204  12.863  12.195  0.00  0.00     0.026 A 
HETATM    9  C   UNK N   1      36.453  13.783  12.908  0.00  0.00     0.055 A 
HETATM   10  S   UNK N   1      35.937  14.943  11.880  0.00  0.00    -0.095 SA
BRANCH   9  11
HETATM   11  C   UNK N   1      35.886  13.654  14.196  0.00  0.00    -0.054 C 
HETATM   12  C   UNK N   1      35.648  13.403  15.338  0.00  0.00    -0.061 C 
BRANCH  12  13
HETATM   13  C   UNK N   1      35.546  12.822  16.623  0.00  0.00     0.018 A 
HETATM   14  C   UNK N   1      35.825  11.462  16.705  0.00  0.00     0.021 A 
HETATM   15  C   UNK N   1      35.720  10.798  17.918  0.00  0.00     0.008 A 
HETATM   16  C   UNK N   1      35.372  11.507  19.065  0.00  0.00    -0.062 A 
HETATM   17  C   UNK N   1      35.255  10.781  20.353  0.00  0.00     0.048 C 
HETATM   18  C   UNK N   1      35.122  12.887  18.996  0.00  0.00     0.008 A 
HETATM   19  C   UNK N   1      35.194  13.550  17.764  0.00  0.00     0.021 A 
ENDBRANCH  12  13
ENDBRANCH   9  11
ENDBRANCH   3   6
ENDBRANCH   1   3
BRANCH   1  20
HETATM   20  C   UNK N   1      33.790  16.115   7.987  0.00  0.00     0.194 C 
BRANCH  20  21
HETATM   21  C   UNK N   1      32.662  15.904   6.988  0.00  0.00     0.077 C 
BRANCH  21  22
HETATM   22  C   UNK N   1      31.429  16.569   7.493  0.00  0.00    -0.028 A 
HETATM   23  C   UNK N   1      31.040  16.748   8.818  0.00  0.00     0.096 A 
HETATM   24  N   UNK N   1      29.871  17.440   8.854  0.00  0.00    -0.365 N 
HETATM   25  C   UNK N   1      29.548  17.690   7.570  0.00  0.00     0.042 A 
HETATM   26  H   UNK N   1      29.365  17.707   9.655  0.00  0.00     0.165 HD
HETATM   27  C   UNK N   1      30.478  17.167   6.720  0.00  0.00    -0.002 A 
HETATM   28  C   UNK N   1      28.440  18.390   7.102  0.00  0.00     0.030 A 
HETATM   29  C   UNK N   1      30.379  17.300   5.338  0.00  0.00     0.014 A 
HETATM   30  C   UNK N   1      29.272  17.999   4.829  0.00  0.00     0.001 A 
HETATM   31  C   UNK N   1      28.305  18.543   5.707  0.00  0.00     0.002 A 
ENDBRANCH  21  22
ENDBRANCH  20  21
BRANCH  20  32
HETATM   32  C   UNK N   1      34.442  17.460   8.087  0.00  0.00     0.164 C 
HETATM   33  O   UNK N   1      34.527  18.175   7.101  0.00  0.00    -0.648 OA
BRANCH  32  34
HETATM   34  O   UNK N   1      34.963  17.868   9.258  0.00  0.00    -0.775 OA
HETATM   35  H   UNK N   1      35.309  17.719  10.116  0.00  0.00     0.167 HD
ENDBRANCH  32  34
ENDBRANCH  20  32
ENDBRANCH   1  20
TORSDOF 9
ENDMDL
MODEL 5
REMARK VINA RESULT:      -8.5      2.094      2.644
REMARK  9 active torsions:
REMARK  status: ('A' for Active; 'I' for Inactive)
REMARK    1  A    between atoms: C_5  and  C_8 
REMARK    2  A    between atoms: C_9  and  C_10 
REMARK    3  A    between atoms: C_13  and  S_15 
REMARK    4  A    between atoms: S_15  and  N_18 
REMARK    5  A    between atoms: C_19  and  N_18 
REMARK    6  A    between atoms: C_19  and  C_20 
REMARK    7  A    between atoms: C_19  and  C_30 
REMARK    8  A    between atoms: C_20  and  C_21 
REMARK    9  A    between atoms: C_30  and  O_32 
ROOT
HETATM    1  N   UNK N   1      35.141  15.513   8.165  0.00  0.00    -0.303 N 
HETATM    2  H   UNK N   1      35.814  14.972   7.621  0.00  0.00     0.173 HD
ENDROOT
BRANCH   1   3
HETATM    3  S   UNK N   1      34.062  16.744   7.458  0.00  0.00     0.244 S 
HETATM    4  O   UNK N   1      32.947  16.891   8.506  0.00  0.00    -0.204 OA
HETATM    5  O   UNK N   1      34.756  18.105   7.581  0.00  0.00    -0.204 OA
BRANCH   3   6
HETATM    6  C   UNK N   1      33.247  16.410   5.922  0.00  0.00     0.218 A 
HETATM    7  C   UNK N   1      33.372  17.355   4.896  0.00  0.00     0.008 A 
HETATM    8  C   UNK N   1      32.136  17.687   4.279  0.00  0.00     0.026 A 
HETATM    9  C   UNK N   1      31.080  16.988   4.841  0.00  0.00     0.055 A 
HETATM   10  S   UNK N   1      31.672  15.974   5.977  0.00  0.00    -0.095 SA
BRANCH   9  11
HETATM   11  C   UNK N   1      29.697  17.271   4.773  0.00  0.00    -0.054 C 
HETATM   12  C   UNK N   1      28.612  17.690   4.513  0.00  0.00    -0.061 C 
BRANCH  12  13
HETATM   13  C   UNK N   1      27.497  18.478   4.141  0.00  0.00     0.018 A 
HETATM   14  C   UNK N   1      26.312  17.791   3.901  0.00  0.00     0.021 A 
HETATM   15  C   UNK N   1      25.175  18.476   3.501  0.00  0.00     0.008 A 
HETATM   16  C   UNK N   1      25.212  19.862   3.378  0.00  0.00    -0.062 A 
HETATM   17  C   UNK N   1      23.990  20.579   2.939  0.00  0.00     0.048 C 
HETATM   18  C   UNK N   1      26.395  20.566   3.651  0.00  0.00     0.008 A 
HETATM   19  C   UNK N   1      27.553  19.870   4.021  0.00  0.00     0.021 A 
ENDBRANCH  12  13
ENDBRANCH   9  11
ENDBRANCH   3   6
ENDBRANCH   1   3
BRANCH   1  20
HETATM   20  C   UNK N   1      34.954  15.360   9.615  0.00  0.00     0.194 C 
BRANCH  20  21
HETATM   21  C   UNK N   1      34.378  14.052  10.138  0.00  0.00     0.077 C 
BRANCH  21  22
HETATM   22  C   UNK N   1      35.491  13.170  10.585  0.00  0.00    -0.028 A 
HETATM   23  C   UNK N   1      36.381  12.453   9.790  0.00  0.00     0.096 A 
HETATM   24  N   UNK N   1      37.273  11.806  10.585  0.00  0.00    -0.365 N 
HETATM   25  C   UNK N   1      36.942  12.124  11.851  0.00  0.00     0.042 A 
HETATM   26  H   UNK N   1      38.012  11.224  10.294  0.00  0.00     0.165 HD
HETATM   27  C   UNK N   1      35.858  12.951  11.881  0.00  0.00    -0.002 A 
HETATM   28  C   UNK N   1      37.581  11.713  13.018  0.00  0.00     0.030 A 
HETATM   29  C   UNK N   1      35.323  13.434  13.072  0.00  0.00     0.014 A 
HETATM   30  C   UNK N   1      35.942  13.038  14.270  0.00  0.00     0.001 A 
HETATM   31  C   UNK N   1      37.066  12.181  14.244  0.00  0.00     0.002 A 
ENDBRANCH  21  22
ENDBRANCH  20  21
BRANCH  20  32
HETATM   32  C   UNK N   1      35.743  16.237  10.538  0.00  0.00     0.164 C 
HETATM   33  O   UNK N   1      35.201  17.167  11.113  0.00  0.00    -0.648 OA
BRANCH  32  34
HETATM   34  O   UNK N   1      37.059  16.017  10.712  0.00  0.00    -0.775 OA
HETATM   35  H   UNK N   1      37.850  16.035  11.214  0.00  0.00     0.167 HD
ENDBRANCH  32  34
ENDBRANCH  20  32
ENDBRANCH   1  20
TORSDOF 9
ENDMDL
MODEL 6
REMARK VINA RESULT:      -8.5      2.715     10.411
REMARK  9 active torsions:
REMARK  status: ('A' for Active; 'I' for Inactive)
REMARK    1  A    between atoms: C_5  and  C_8 
REMARK    2  A    between atoms: C_9  and  C_10 
REMARK    3  A    between atoms: C_13  and  S_15 
REMARK    4  A    between atoms: S_15  and  N_18 
REMARK    5  A    between atoms: C_19  and  N_18 
REMARK    6  A    between atoms: C_19  and  C_20 
REMARK    7  A    between atoms: C_19  and  C_30 
REMARK    8  A    between atoms: C_20  and  C_21 
REMARK    9  A    between atoms: C_30  and  O_32 
ROOT
HETATM    1  N   UNK N   1      32.349  16.363   9.034  0.00  0.00    -0.303 N 
HETATM    2  H   UNK N   1      31.845  16.242   9.913  0.00  0.00     0.173 HD
ENDROOT
BRANCH   1   3
HETATM    3  S   UNK N   1      33.139  15.026   8.156  0.00  0.00     0.244 S 
HETATM    4  O   UNK N   1      32.307  13.795   8.551  0.00  0.00    -0.204 OA
HETATM    5  O   UNK N   1      32.775  15.156   6.673  0.00  0.00    -0.204 OA
BRANCH   3   6
HETATM    6  C   UNK N   1      34.822  14.617   8.522  0.00  0.00     0.218 A 
HETATM    7  C   UNK N   1      35.211  13.277   8.403  0.00  0.00     0.008 A 
HETATM    8  C   UNK N   1      35.947  12.801   9.521  0.00  0.00     0.026 A 
HETATM    9  C   UNK N   1      36.115  13.786  10.480  0.00  0.00     0.055 A 
HETATM   10  S   UNK N   1      35.450  15.171   9.927  0.00  0.00    -0.095 SA
BRANCH   9  11
HETATM   11  C   UNK N   1      36.459  13.643  11.843  0.00  0.00    -0.054 C 
HETATM   12  C   UNK N   1      36.467  13.528  13.031  0.00  0.00    -0.061 C 
BRANCH  12  13
HETATM   13  C   UNK N   1      36.197  13.590  14.418  0.00  0.00     0.018 A 
HETATM   14  C   UNK N   1      35.147  12.800  14.874  0.00  0.00     0.021 A 
HETATM   15  C   UNK N   1      34.788  12.819  16.213  0.00  0.00     0.008 A 
HETATM   16  C   UNK N   1      35.509  13.602  17.110  0.00  0.00    -0.062 A 
HETATM   17  C   UNK N   1      35.107  13.619  18.537  0.00  0.00     0.048 C 
HETATM   18  C   UNK N   1      36.592  14.376  16.663  0.00  0.00     0.008 A 
HETATM   19  C   UNK N   1      36.932  14.384  15.304  0.00  0.00     0.021 A 
ENDBRANCH  12  13
ENDBRANCH   9  11
ENDBRANCH   3   6
ENDBRANCH   1   3
BRANCH   1  20
HETATM   20  C   UNK N   1      32.503  17.657   8.354  0.00  0.00     0.194 C 
BRANCH  20  21
HETATM   21  C   UNK N   1      31.454  18.733   8.597  0.00  0.00     0.077 C 
BRANCH  21  22
HETATM   22  C   UNK N   1      30.100  18.114   8.564  0.00  0.00    -0.028 A 
HETATM   23  C   UNK N   1      29.185  18.013   9.608  0.00  0.00     0.096 A 
HETATM   24  N   UNK N   1      28.050  17.417   9.156  0.00  0.00    -0.365 N 
HETATM   25  C   UNK N   1      28.261  17.161   7.850  0.00  0.00     0.042 A 
HETATM   26  H   UNK N   1      27.239  17.216   9.676  0.00  0.00     0.165 HD
HETATM   27  C   UNK N   1      29.502  17.572   7.464  0.00  0.00    -0.002 A 
HETATM   28  C   UNK N   1      27.373  16.572   6.954  0.00  0.00     0.030 A 
HETATM   29  C   UNK N   1      29.960  17.429   6.157  0.00  0.00     0.014 A 
HETATM   30  C   UNK N   1      29.091  16.837   5.225  0.00  0.00     0.001 A 
HETATM   31  C   UNK N   1      27.802  16.410   5.621  0.00  0.00     0.002 A 
ENDBRANCH  21  22
ENDBRANCH  20  21
BRANCH  20  32
HETATM   32  C   UNK N   1      33.860  18.052   7.857  0.00  0.00     0.164 C 
HETATM   33  O   UNK N   1      34.689  18.502   8.631  0.00  0.00    -0.648 OA
BRANCH  32  34
HETATM   34  O   UNK N   1      34.155  17.939   6.549  0.00  0.00    -0.775 OA
HETATM   35  H   UNK N   1      34.306  17.446   5.766  0.00  0.00     0.167 HD
ENDBRANCH  32  34
ENDBRANCH  20  32
ENDBRANCH   1  20
TORSDOF 9
ENDMDL
MODEL 7
REMARK VINA RESULT:      -8.4      1.433      2.015
REMARK  9 active torsions:
REMARK  status: ('A' for Active; 'I' for Inactive)
REMARK    1  A    between atoms: C_5  and  C_8 
REMARK    2  A    between atoms: C_9  and  C_10 
REMARK    3  A    between atoms: C_13  and  S_15 
REMARK    4  A    between atoms: S_15  and  N_18 
REMARK    5  A    between atoms: C_19  and  N_18 
REMARK    6  A    between atoms: C_19  and  C_20 
REMARK    7  A    between atoms: C_19  and  C_30 
REMARK    8  A    between atoms: C_20  and  C_21 
REMARK    9  A    between atoms: C_30  and  O_32 
ROOT
HETATM    1  N   UNK N   1      33.484  14.969  10.797  0.00  0.00    -0.303 N 
HETATM    2  H   UNK N   1      32.692  15.010  11.439  0.00  0.00     0.173 HD
ENDROOT
BRANCH   1   3
HETATM    3  S   UNK N   1      33.315  14.873   9.024  0.00  0.00     0.244 S 
HETATM    4  O   UNK N   1      34.659  14.287   8.565  0.00  0.00    -0.204 OA
HETATM    5  O   UNK N   1      32.369  13.710   8.703  0.00  0.00    -0.204 OA
BRANCH   3   6
HETATM    6  C   UNK N   1      33.084  16.359   8.089  0.00  0.00     0.218 A 
HETATM    7  C   UNK N   1      32.131  17.278   8.545  0.00  0.00     0.008 A 
HETATM    8  C   UNK N   1      31.258  17.740   7.524  0.00  0.00     0.026 A 
HETATM    9  C   UNK N   1      31.557  17.170   6.298  0.00  0.00     0.055 A 
HETATM   10  S   UNK N   1      32.870  16.214   6.474  0.00  0.00    -0.095 SA
BRANCH   9  11
HETATM   11  C   UNK N   1      30.749  17.082   5.142  0.00  0.00    -0.054 C 
HETATM   12  C   UNK N   1      29.884  16.882   4.345  0.00  0.00    -0.061 C 
BRANCH  12  13
HETATM   13  C   UNK N   1      28.802  16.367   3.594  0.00  0.00     0.018 A 
HETATM   14  C   UNK N   1      27.580  17.011   3.755  0.00  0.00     0.021 A 
HETATM   15  C   UNK N   1      26.456  16.556   3.083  0.00  0.00     0.008 A 
HETATM   16  C   UNK N   1      26.562  15.475   2.212  0.00  0.00    -0.062 A 
HETATM   17  C   UNK N   1      25.349  14.995   1.508  0.00  0.00     0.048 C 
HETATM   18  C   UNK N   1      27.800  14.841   2.017  0.00  0.00     0.008 A 
HETATM   19  C   UNK N   1      28.928  15.279   2.724  0.00  0.00     0.021 A 
ENDBRANCH  12  13
ENDBRANCH   9  11
ENDBRANCH   3   6
ENDBRANCH   1   3
BRANCH   1  20
HETATM   20  C   UNK N   1      34.888  14.983  11.233  0.00  0.00     0.194 C 
BRANCH  20  21
HETATM   21  C   UNK N   1      35.575  13.653  11.506  0.00  0.00     0.077 C 
BRANCH  21  22
HETATM   22  C   UNK N   1      35.702  13.459  12.977  0.00  0.00    -0.028 A 
HETATM   23  C   UNK N   1      36.358  14.281  13.890  0.00  0.00     0.096 A 
HETATM   24  N   UNK N   1      36.204  13.774  15.142  0.00  0.00    -0.365 N 
HETATM   25  C   UNK N   1      35.460  12.661  15.002  0.00  0.00     0.042 A 
HETATM   26  H   UNK N   1      36.563  14.146  15.979  0.00  0.00     0.165 HD
HETATM   27  C   UNK N   1      35.142  12.443  13.694  0.00  0.00    -0.002 A 
HETATM   28  C   UNK N   1      35.024  11.807  16.013  0.00  0.00     0.030 A 
HETATM   29  C   UNK N   1      34.368  11.360  13.287  0.00  0.00     0.014 A 
HETATM   30  C   UNK N   1      33.913  10.476  14.280  0.00  0.00     0.001 A 
HETATM   31  C   UNK N   1      34.239  10.698  15.637  0.00  0.00     0.002 A 
ENDBRANCH  21  22
ENDBRANCH  20  21
BRANCH  20  32
HETATM   32  C   UNK N   1      35.720  16.194  10.942  0.00  0.00     0.164 C 
HETATM   33  O   UNK N   1      35.186  17.280  10.781  0.00  0.00    -0.648 OA
BRANCH  32  34
HETATM   34  O   UNK N   1      37.055  16.080  10.829  0.00  0.00    -0.775 OA
HETATM   35  H   UNK N   1      37.930  16.128  11.163  0.00  0.00     0.167 HD
ENDBRANCH  32  34
ENDBRANCH  20  32
ENDBRANCH   1  20
TORSDOF 9
ENDMDL
MODEL 8
REMARK VINA RESULT:      -8.4      3.336      6.319
REMARK  9 active torsions:
REMARK  status: ('A' for Active; 'I' for Inactive)
REMARK    1  A    between atoms: C_5  and  C_8 
REMARK    2  A    between atoms: C_9  and  C_10 
REMARK    3  A    between atoms: C_13  and  S_15 
REMARK    4  A    between atoms: S_15  and  N_18 
REMARK    5  A    between atoms: C_19  and  N_18 
REMARK    6  A    between atoms: C_19  and  C_20 
REMARK    7  A    between atoms: C_19  and  C_30 
REMARK    8  A    between atoms: C_20  and  C_21 
REMARK    9  A    between atoms: C_30  and  O_32 
ROOT
HETATM    1  N   UNK N   1      36.080  12.367  10.723  0.00  0.00    -0.303 N 
HETATM    2  H   UNK N   1      35.310  11.743  10.965  0.00  0.00     0.173 HD
ENDROOT
BRANCH   1   3
HETATM    3  S   UNK N   1      37.556  11.833   9.876  0.00  0.00     0.244 S 
HETATM    4  O   UNK N   1      38.669  12.666  10.532  0.00  0.00    -0.204 OA
HETATM    5  O   UNK N   1      37.909  10.430  10.383  0.00  0.00    -0.204 OA
BRANCH   3   6
HETATM    6  C   UNK N   1      37.706  12.103   8.133  0.00  0.00     0.218 A 
HETATM    7  C   UNK N   1      38.659  13.030   7.693  0.00  0.00     0.008 A 
HETATM    8  C   UNK N   1      38.155  13.949   6.735  0.00  0.00     0.026 A 
HETATM    9  C   UNK N   1      36.820  13.710   6.451  0.00  0.00     0.055 A 
HETATM   10  S   UNK N   1      36.336  12.394   7.289  0.00  0.00    -0.095 SA
BRANCH   9  11
HETATM   11  C   UNK N   1      35.875  14.573   5.851  0.00  0.00    -0.054 C 
HETATM   12  C   UNK N   1      34.905  15.196   5.545  0.00  0.00    -0.061 C 
BRANCH  12  13
HETATM   13  C   UNK N   1      33.591  15.653   5.289  0.00  0.00     0.018 A 
HETATM   14  C   UNK N   1      33.471  16.971   4.862  0.00  0.00     0.021 A 
HETATM   15  C   UNK N   1      32.220  17.516   4.617  0.00  0.00     0.008 A 
HETATM   16  C   UNK N   1      31.083  16.726   4.761  0.00  0.00    -0.062 A 
HETATM   17  C   UNK N   1      29.751  17.326   4.504  0.00  0.00     0.048 C 
HETATM   18  C   UNK N   1      31.198  15.384   5.158  0.00  0.00     0.008 A 
HETATM   19  C   UNK N   1      32.460  14.845   5.440  0.00  0.00     0.021 A 
ENDBRANCH  12  13
ENDBRANCH   9  11
ENDBRANCH   3   6
ENDBRANCH   1   3
BRANCH   1  20
HETATM   20  C   UNK N   1      36.093  13.804  11.035  0.00  0.00     0.194 C 
BRANCH  20  21
HETATM   21  C   UNK N   1      35.946  14.795   9.890  0.00  0.00     0.077 C 
BRANCH  21  22
HETATM   22  C   UNK N   1      34.502  14.948   9.557  0.00  0.00    -0.028 A 
HETATM   23  C   UNK N   1      33.488  14.007   9.716  0.00  0.00     0.096 A 
HETATM   24  N   UNK N   1      32.304  14.553   9.332  0.00  0.00    -0.365 N 
HETATM   25  C   UNK N   1      32.584  15.813   8.949  0.00  0.00     0.042 A 
HETATM   26  H   UNK N   1      31.422  14.117   9.336  0.00  0.00     0.165 HD
HETATM   27  C   UNK N   1      33.915  16.080   9.072  0.00  0.00    -0.002 A 
HETATM   28  C   UNK N   1      31.685  16.773   8.491  0.00  0.00     0.030 A 
HETATM   29  C   UNK N   1      34.459  17.320   8.750  0.00  0.00     0.014 A 
HETATM   30  C   UNK N   1      33.581  18.313   8.283  0.00  0.00     0.001 A 
HETATM   31  C   UNK N   1      32.199  18.042   8.154  0.00  0.00     0.002 A 
ENDBRANCH  21  22
ENDBRANCH  20  21
BRANCH  20  32
HETATM   32  C   UNK N   1      35.772  14.240  12.432  0.00  0.00     0.164 C 
HETATM   33  O   UNK N   1      34.890  13.679  13.062  0.00  0.00    -0.648 OA
BRANCH  32  34
HETATM   34  O   UNK N   1      36.437  15.272  12.982  0.00  0.00    -0.775 OA
HETATM   35  H   UNK N   1      37.012  15.653  13.616  0.00  0.00     0.167 HD
ENDBRANCH  32  34
ENDBRANCH  20  32
ENDBRANCH   1  20
TORSDOF 9
ENDMDL
MODEL 9
REMARK VINA RESULT:      -8.3     16.506     19.571
REMARK  9 active torsions:
REMARK  status: ('A' for Active; 'I' for Inactive)
REMARK    1  A    between atoms: C_5  and  C_8 
REMARK    2  A    between atoms: C_9  and  C_10 
REMARK    3  A    between atoms: C_13  and  S_15 
REMARK    4  A    between atoms: S_15  and  N_18 
REMARK    5  A    between atoms: C_19  and  N_18 
REMARK    6  A    between atoms: C_19  and  C_20 
REMARK    7  A    between atoms: C_19  and  C_30 
REMARK    8  A    between atoms: C_20  and  C_21 
REMARK    9  A    between atoms: C_30  and  O_32 
ROOT
HETATM    1  N   UNK N   1      25.183  24.816  -5.593  0.00  0.00    -0.303 N 
HETATM    2  H   UNK N   1      24.428  24.494  -4.988  0.00  0.00     0.173 HD
ENDROOT
BRANCH   1   3
HETATM    3  S   UNK N   1      25.522  26.536  -5.920  0.00  0.00     0.244 S 
HETATM    4  O   UNK N   1      25.785  26.571  -7.434  0.00  0.00    -0.204 OA
HETATM    5  O   UNK N   1      24.196  27.301  -5.840  0.00  0.00    -0.204 OA
BRANCH   3   6
HETATM    6  C   UNK N   1      26.924  27.308  -5.162  0.00  0.00     0.218 A 
HETATM    7  C   UNK N   1      27.887  27.884  -6.000  0.00  0.00     0.008 A 
HETATM    8  C   UNK N   1      29.218  27.522  -5.663  0.00  0.00     0.026 A 
HETATM    9  C   UNK N   1      29.257  26.675  -4.567  0.00  0.00     0.055 A 
HETATM   10  S   UNK N   1      27.733  26.460  -4.021  0.00  0.00    -0.095 SA
BRANCH   9  11
HETATM   11  C   UNK N   1      30.304  25.827  -4.141  0.00  0.00    -0.054 C 
HETATM   12  C   UNK N   1      31.122  24.967  -4.018  0.00  0.00    -0.061 C 
BRANCH  12  13
HETATM   13  C   UNK N   1      31.850  23.755  -4.023  0.00  0.00     0.018 A 
HETATM   14  C   UNK N   1      31.418  22.774  -3.136  0.00  0.00     0.021 A 
HETATM   15  C   UNK N   1      32.090  21.565  -3.049  0.00  0.00     0.008 A 
HETATM   16  C   UNK N   1      33.178  21.318  -3.881  0.00  0.00    -0.062 A 
HETATM   17  C   UNK N   1      33.892  20.023  -3.769  0.00  0.00     0.048 C 
HETATM   18  C   UNK N   1      33.599  22.289  -4.804  0.00  0.00     0.008 A 
HETATM   19  C   UNK N   1      32.941  23.525  -4.867  0.00  0.00     0.021 A 
ENDBRANCH  12  13
ENDBRANCH   9  11
ENDBRANCH   3   6
ENDBRANCH   1   3
BRANCH   1  20
HETATM   20  C   UNK N   1      26.112  23.913  -6.288  0.00  0.00     0.194 C 
BRANCH  20  21
HETATM   21  C   UNK N   1      27.393  23.502  -5.577  0.00  0.00     0.077 C 
BRANCH  21  22
HETATM   22  C   UNK N   1      28.519  23.509  -6.551  0.00  0.00    -0.028 A 
HETATM   23  C   UNK N   1      28.859  24.516  -7.452  0.00  0.00     0.096 A 
HETATM   24  N   UNK N   1      29.977  24.152  -8.132  0.00  0.00    -0.365 N 
HETATM   25  C   UNK N   1      30.325  22.942  -7.654  0.00  0.00     0.042 A 
HETATM   26  H   UNK N   1      30.440  24.668  -8.830  0.00  0.00     0.165 HD
HETATM   27  C   UNK N   1      29.452  22.525  -6.693  0.00  0.00    -0.002 A 
HETATM   28  C   UNK N   1      31.420  22.169  -8.032  0.00  0.00     0.030 A 
HETATM   29  C   UNK N   1      29.598  21.308  -6.032  0.00  0.00     0.014 A 
HETATM   30  C   UNK N   1      30.691  20.501  -6.390  0.00  0.00     0.001 A 
HETATM   31  C   UNK N   1      31.599  20.929  -7.386  0.00  0.00     0.002 A 
ENDBRANCH  21  22
ENDBRANCH  20  21
BRANCH  20  32
HETATM   32  C   UNK N   1      25.589  23.067  -7.409  0.00  0.00     0.164 C 
HETATM   33  O   UNK N   1      24.904  23.567  -8.287  0.00  0.00    -0.648 OA
BRANCH  32  34
HETATM   34  O   UNK N   1      25.849  21.748  -7.431  0.00  0.00    -0.775 OA
HETATM   35  H   UNK N   1      26.327  20.995  -7.720  0.00  0.00     0.167 HD
ENDBRANCH  32  34
ENDBRANCH  20  32
ENDBRANCH   1  20
TORSDOF 9
ENDMDL
