REMARK  1 active torsions:
REMARK  status: ('A' for Active; 'I' for Inactive)
REMARK    1  A    between atoms: O_22  and  C_18 
ROOT
HETATM    1  C   UNK N   1       4.325   6.407  -1.512  0.00  0.00     0.310 C 
HETATM    2  C   UNK N   1      -0.220   1.652   0.659  0.00  0.00     0.001 A 
HETATM    3  C   UNK N   1       0.985   0.968   0.839  0.00  0.00     0.001 A 
HETATM    4  C   UNK N   1      -0.216   2.955   0.156  0.00  0.00     0.007 A 
HETATM    5  C   UNK N   1       2.197   1.583   0.508  0.00  0.00     0.008 A 
HETATM    6  C   UNK N   1       1.027   4.967  -0.679  0.00  0.00     0.041 C 
HETATM    7  C   UNK N   1       2.050   5.744   0.156  0.00  0.00     0.041 C 
HETATM    8  C   UNK N   1       6.029   4.531   1.154  0.00  0.00     0.069 C 
HETATM    9  C   UNK N   1       5.871   5.559   0.050  0.00  0.00     0.277 C 
HETATM   10  C   UNK N   1       7.001   2.322   0.674  0.00  0.00     0.034 A 
HETATM   11  C   UNK N   1       4.791   1.499  -0.801  0.00  0.00     0.046 A 
HETATM   12  C   UNK N   1       0.994   3.564  -0.186  0.00  0.00    -0.051 A 
HETATM   13  C   UNK N   1       5.906   3.184   0.540  0.00  0.00    -0.048 A 
HETATM   14  C   UNK N   1       2.212   2.886  -0.021  0.00  0.00    -0.041 A 
HETATM   15  C   UNK N   1       4.762   2.773  -0.201  0.00  0.00    -0.038 A 
HETATM   16  C   UNK N   1       6.990   1.055   0.095  0.00  0.00     0.067 A 
HETATM   17  C   UNK N   1       3.433   5.037   0.297  0.00  0.00     0.235 C 
HETATM   18  C   UNK N   1       5.882   0.643  -0.649  0.00  0.00     0.087 A 
HETATM   19  C   UNK N   1       3.495   3.629  -0.414  0.00  0.00     0.086 C 
HETATM   20 Cl   UNK N   1       8.377  -0.000   0.303  0.00  0.00    -0.081 Cl
HETATM   21  N   UNK N   1       4.484   5.996  -0.121  0.00  0.00     0.090 N 
ENDROOT
BRANCH  18  22
HETATM   22  O   UNK N   1       5.854  -0.576  -1.214  0.00  0.00    -0.359 OA
HETATM   23  H   UNK N   1       5.109  -0.984  -1.608  0.00  0.00     0.217 HD
ENDBRANCH  18  22
TORSDOF 1
