MODEL 1
REMARK VINA RESULT:      -7.9      0.000      0.000
REMARK  8 active torsions:
REMARK  status: ('A' for Active; 'I' for Inactive)
REMARK    1  A    between atoms: C_2  and  C_3 
REMARK    2  A    between atoms: C_3  and  N_4 
REMARK    3  A    between atoms: N_4  and  C_5 
REMARK       I    between atoms: N_4  and  C_8 
REMARK    4  A    between atoms: C_5  and  C_6 
REMARK    5  A    between atoms: C_8  and  C_10 
REMARK    6  A    between atoms: C_15  and  C_23 
REMARK    7  A    between atoms: C_20  and  N_22 
REMARK    8  A    between atoms: C_26  and  C_29 
REMARK       I    between atoms: C_29  and  N_31 
ROOT
HETATM    1  C   UNK N   1      33.055  16.597   7.819  0.00  0.00     0.018 C 
HETATM    2  C   UNK N   1      32.023  17.317   8.187  0.00  0.00     0.027 C 
HETATM    3  C   UNK N   1      30.817  17.379   7.396  0.00  0.00    -0.009 C 
HETATM    4  C   UNK N   1      29.707  17.909   8.070  0.00  0.00     0.014 C 
HETATM    5  C   UNK N   1      28.500  18.084   7.409  0.00  0.00     0.013 C 
HETATM    6  C   UNK N   1      28.385  17.653   6.090  0.00  0.00    -0.024 C 
HETATM    7  C   UNK N   1      29.429  16.960   5.499  0.00  0.00     0.042 C 
HETATM    8  C   UNK N   1      30.649  16.834   6.088  0.00  0.00     0.044 C 
HETATM    9  N   UNK N   1      31.647  16.343   5.204  0.00  0.00    -0.345 N 
ATOM     10  HN  UNK N   1      31.282  15.920   4.351  1.00  0.00     0.167 HD
HETATM   11  C   UNK N   1      32.925  16.339   5.287  0.00  0.00     0.079 C 
HETATM   12  C   UNK N   1      33.671  16.831   6.468  0.00  0.00     0.120 C 
ENDROOT
BRANCH   6  13
HETATM   13  C   UNK N   1      27.621  18.474   5.149  0.00  0.00    -0.026 A 
HETATM   14  C   UNK N   1      27.247  17.976   3.892  0.00  0.00     0.013 A 
HETATM   15  C   UNK N   1      26.164  18.549   3.216  0.00  0.00     0.018 A 
HETATM   16  C   UNK N   1      25.415  19.579   3.816  0.00  0.00     0.032 A 
HETATM   17  C   UNK N   1      25.825  20.074   5.049  0.00  0.00     0.018 A 
HETATM   18  C   UNK N   1      26.898  19.539   5.699  0.00  0.00     0.013 A 
BRANCH  16  19
HETATM   19  C   UNK N   1      24.256  20.197   3.132  0.00  0.00     0.253 C 
HETATM   20  O   UNK N   1      24.470  21.158   2.391  0.00  0.00    -0.267 OA
HETATM   21  N   UNK N   1      22.963  19.783   3.322  0.00  0.00    -0.348 N 
HETATM   22  C   UNK N   1      21.851  20.509   2.798  0.00  0.00     0.126 C 
HETATM   23  C   UNK N   1      22.581  18.633   4.112  0.00  0.00     0.126 C 
HETATM   24  C   UNK N   1      20.649  19.962   3.546  0.00  0.00     0.021 C 
HETATM   25  C   UNK N   1      21.071  18.600   4.075  0.00  0.00     0.021 C 
ENDBRANCH  16  19
ENDBRANCH   6  13
BRANCH  11  26
HETATM   26  N   UNK N   1      33.666  15.937   4.154  0.00  0.00    -0.389 N 
HETATM   27  H   UNK N   1      33.763  16.535   3.377  0.00  0.00     0.157 HD
HETATM   28  H   UNK N   1      34.090  15.048   4.140  0.00  0.00     0.157 HD
ENDBRANCH  11  26
BRANCH   1  29
HETATM   29  C   UNK N   1      33.075  15.304   8.568  0.00  0.00     0.250 C 
HETATM   30  N   UNK N   1      34.084  14.911   9.402  0.00  0.00    -0.348 N 
HETATM   31  O   UNK N   1      32.164  14.513   8.338  0.00  0.00    -0.268 OA
BRANCH  30  32
HETATM   32  C   UNK N   1      34.020  13.597   9.999  0.00  0.00     0.125 C 
BRANCH  32  33
HETATM   33  C   UNK N   1      35.220  12.770   9.576  0.00  0.00     0.015 C 
HETATM   34  C   UNK N   1      35.753  11.954  10.740  0.00  0.00     0.006 C 
ENDBRANCH  32  33
ENDBRANCH  30  32
BRANCH  30  35
HETATM   35  C   UNK N   1      35.300  15.666   9.561  0.00  0.00     0.125 C 
BRANCH  35  36
HETATM   36  C   UNK N   1      35.302  16.452  10.851  0.00  0.00     0.015 C 
HETATM   37  C   UNK N   1      36.083  15.677  11.888  0.00  0.00     0.006 C 
ENDBRANCH  35  36
ENDBRANCH  30  35
ENDBRANCH   1  29
TORSDOF 8
ENDMDL
MODEL 2
REMARK VINA RESULT:      -7.8      5.139     10.024
REMARK  8 active torsions:
REMARK  status: ('A' for Active; 'I' for Inactive)
REMARK    1  A    between atoms: C_2  and  C_3 
REMARK    2  A    between atoms: C_3  and  N_4 
REMARK    3  A    between atoms: N_4  and  C_5 
REMARK       I    between atoms: N_4  and  C_8 
REMARK    4  A    between atoms: C_5  and  C_6 
REMARK    5  A    between atoms: C_8  and  C_10 
REMARK    6  A    between atoms: C_15  and  C_23 
REMARK    7  A    between atoms: C_20  and  N_22 
REMARK    8  A    between atoms: C_26  and  C_29 
REMARK       I    between atoms: C_29  and  N_31 
ROOT
HETATM    1  C   UNK N   1      35.462  12.187  15.665  0.00  0.00     0.018 C 
HETATM    2  C   UNK N   1      34.848  11.936  14.535  0.00  0.00     0.027 C 
HETATM    3  C   UNK N   1      35.335  12.441  13.273  0.00  0.00    -0.009 C 
HETATM    4  C   UNK N   1      34.775  11.825  12.145  0.00  0.00     0.014 C 
HETATM    5  C   UNK N   1      35.108  12.257  10.870  0.00  0.00     0.013 C 
HETATM    6  C   UNK N   1      36.065  13.257  10.725  0.00  0.00    -0.024 C 
HETATM    7  C   UNK N   1      36.748  13.723  11.837  0.00  0.00     0.042 C 
HETATM    8  C   UNK N   1      36.399  13.377  13.106  0.00  0.00     0.044 C 
HETATM    9  N   UNK N   1      37.033  14.176  14.096  0.00  0.00    -0.345 N 
ATOM     10  HN  UNK N   1      37.832  14.711  13.755  1.00  0.00     0.167 HD
HETATM   11  C   UNK N   1      36.778  14.346  15.339  0.00  0.00     0.079 C 
HETATM   12  C   UNK N   1      35.713  13.614  16.064  0.00  0.00     0.120 C 
ENDROOT
BRANCH   6  13
HETATM   13  C   UNK N   1      35.862  14.276   9.694  0.00  0.00    -0.026 A 
HETATM   14  C   UNK N   1      36.040  13.977   8.335  0.00  0.00     0.013 A 
HETATM   15  C   UNK N   1      35.415  14.769   7.365  0.00  0.00     0.018 A 
HETATM   16  C   UNK N   1      34.566  15.823   7.747  0.00  0.00     0.032 A 
HETATM   17  C   UNK N   1      34.430  16.117   9.099  0.00  0.00     0.018 A 
HETATM   18  C   UNK N   1      35.059  15.367  10.048  0.00  0.00     0.013 A 
BRANCH  16  19
HETATM   19  C   UNK N   1      33.880  16.671   6.745  0.00  0.00     0.253 C 
HETATM   20  O   UNK N   1      34.457  17.690   6.362  0.00  0.00    -0.267 OA
HETATM   21  N   UNK N   1      32.625  16.401   6.264  0.00  0.00    -0.348 N 
HETATM   22  C   UNK N   1      31.914  17.327   5.443  0.00  0.00     0.126 C 
HETATM   23  C   UNK N   1      31.868  15.209   6.581  0.00  0.00     0.126 C 
HETATM   24  C   UNK N   1      30.477  16.837   5.469  0.00  0.00     0.021 C 
HETATM   25  C   UNK N   1      30.542  15.373   5.874  0.00  0.00     0.021 C 
ENDBRANCH  16  19
ENDBRANCH   6  13
BRANCH  11  26
HETATM   26  N   UNK N   1      37.482  15.354  16.033  0.00  0.00    -0.389 N 
HETATM   27  H   UNK N   1      37.775  16.173  15.571  0.00  0.00     0.157 HD
HETATM   28  H   UNK N   1      37.682  15.237  16.991  0.00  0.00     0.157 HD
ENDBRANCH  11  26
BRANCH   1  29
HETATM   29  C   UNK N   1      36.296  11.015  16.070  0.00  0.00     0.250 C 
HETATM   30  N   UNK N   1      36.054  10.239  17.170  0.00  0.00    -0.348 N 
HETATM   31  O   UNK N   1      37.313  10.802  15.416  0.00  0.00    -0.268 OA
BRANCH  30  32
HETATM   32  C   UNK N   1      36.989   9.187  17.497  0.00  0.00     0.125 C 
BRANCH  32  33
HETATM   33  C   UNK N   1      36.273   7.851  17.561  0.00  0.00     0.015 C 
HETATM   34  C   UNK N   1      35.799   7.425  16.183  0.00  0.00     0.006 C 
ENDBRANCH  32  33
ENDBRANCH  30  32
BRANCH  30  35
HETATM   35  C   UNK N   1      35.021  10.545  18.125  0.00  0.00     0.125 C 
BRANCH  35  36
HETATM   36  C   UNK N   1      35.600  11.034  19.432  0.00  0.00     0.015 C 
HETATM   37  C   UNK N   1      35.339  12.519  19.550  0.00  0.00     0.006 C 
ENDBRANCH  35  36
ENDBRANCH  30  35
ENDBRANCH   1  29
TORSDOF 8
ENDMDL
MODEL 3
REMARK VINA RESULT:      -7.5      2.405     11.228
REMARK  8 active torsions:
REMARK  status: ('A' for Active; 'I' for Inactive)
REMARK    1  A    between atoms: C_2  and  C_3 
REMARK    2  A    between atoms: C_3  and  N_4 
REMARK    3  A    between atoms: N_4  and  C_5 
REMARK       I    between atoms: N_4  and  C_8 
REMARK    4  A    between atoms: C_5  and  C_6 
REMARK    5  A    between atoms: C_8  and  C_10 
REMARK    6  A    between atoms: C_15  and  C_23 
REMARK    7  A    between atoms: C_20  and  N_22 
REMARK    8  A    between atoms: C_26  and  C_29 
REMARK       I    between atoms: C_29  and  N_31 
ROOT
HETATM    1  C   UNK N   1      28.075  18.541   5.500  0.00  0.00     0.018 C 
HETATM    2  C   UNK N   1      29.240  18.328   4.939  0.00  0.00     0.027 C 
HETATM    3  C   UNK N   1      30.229  17.464   5.539  0.00  0.00    -0.009 C 
HETATM    4  C   UNK N   1      31.265  17.079   4.677  0.00  0.00     0.014 C 
HETATM    5  C   UNK N   1      32.315  16.302   5.142  0.00  0.00     0.013 C 
HETATM    6  C   UNK N   1      32.284  15.844   6.456  0.00  0.00    -0.024 C 
HETATM    7  C   UNK N   1      31.164  16.072   7.238  0.00  0.00     0.042 C 
HETATM    8  C   UNK N   1      30.151  16.889   6.843  0.00  0.00     0.044 C 
HETATM    9  N   UNK N   1      29.250  17.209   7.894  0.00  0.00    -0.345 N 
ATOM     10  HN  UNK N   1      29.326  16.604   8.712  1.00  0.00     0.167 HD
HETATM   11  C   UNK N   1      28.360  18.123   7.999  0.00  0.00     0.079 C 
HETATM   12  C   UNK N   1      28.023  19.067   6.907  0.00  0.00     0.120 C 
ENDROOT
BRANCH   6  13
HETATM   13  C   UNK N   1      33.534  15.817   7.217  0.00  0.00    -0.026 A 
HETATM   14  C   UNK N   1      33.654  16.500   8.438  0.00  0.00     0.013 A 
HETATM   15  C   UNK N   1      34.632  16.106   9.358  0.00  0.00     0.018 A 
HETATM   16  C   UNK N   1      35.453  14.995   9.090  0.00  0.00     0.032 A 
HETATM   17  C   UNK N   1      35.335  14.355   7.862  0.00  0.00     0.018 A 
HETATM   18  C   UNK N   1      34.403  14.752   6.950  0.00  0.00     0.013 A 
BRANCH  16  19
HETATM   19  C   UNK N   1      36.489  14.546  10.049  0.00  0.00     0.253 C 
HETATM   20  O   UNK N   1      37.633  14.981   9.906  0.00  0.00    -0.267 OA
HETATM   21  N   UNK N   1      36.245  13.640  11.048  0.00  0.00    -0.348 N 
HETATM   22  C   UNK N   1      37.296  13.085  11.839  0.00  0.00     0.126 C 
HETATM   23  C   UNK N   1      34.940  13.103  11.364  0.00  0.00     0.126 C 
HETATM   24  C   UNK N   1      36.670  11.881  12.519  0.00  0.00     0.021 C 
HETATM   25  C   UNK N   1      35.168  12.118  12.487  0.00  0.00     0.021 C 
ENDBRANCH  16  19
ENDBRANCH   6  13
BRANCH  11  26
HETATM   26  N   UNK N   1      27.736  18.308   9.252  0.00  0.00    -0.389 N 
HETATM   27  H   UNK N   1      27.954  19.086   9.814  0.00  0.00     0.157 HD
HETATM   28  H   UNK N   1      27.075  17.649   9.568  0.00  0.00     0.157 HD
ENDBRANCH  11  26
BRANCH   1  29
HETATM   29  C   UNK N   1      27.027  17.697   4.852  0.00  0.00     0.250 C 
HETATM   30  N   UNK N   1      25.866  18.182   4.318  0.00  0.00    -0.348 N 
HETATM   31  O   UNK N   1      27.190  16.480   4.890  0.00  0.00    -0.268 OA
BRANCH  30  32
HETATM   32  C   UNK N   1      24.896  17.247   3.797  0.00  0.00     0.125 C 
BRANCH  32  33
HETATM   33  C   UNK N   1      23.656  17.234   4.673  0.00  0.00     0.015 C 
HETATM   34  C   UNK N   1      22.398  17.364   3.832  0.00  0.00     0.006 C 
ENDBRANCH  32  33
ENDBRANCH  30  32
BRANCH  30  35
HETATM   35  C   UNK N   1      25.479  19.565   4.427  0.00  0.00     0.125 C 
BRANCH  35  36
HETATM   36  C   UNK N   1      25.394  20.226   3.071  0.00  0.00     0.015 C 
HETATM   37  C   UNK N   1      23.965  20.662   2.834  0.00  0.00     0.006 C 
ENDBRANCH  35  36
ENDBRANCH  30  35
ENDBRANCH   1  29
TORSDOF 8
ENDMDL
MODEL 4
REMARK VINA RESULT:      -7.5      2.639     11.003
REMARK  8 active torsions:
REMARK  status: ('A' for Active; 'I' for Inactive)
REMARK    1  A    between atoms: C_2  and  C_3 
REMARK    2  A    between atoms: C_3  and  N_4 
REMARK    3  A    between atoms: N_4  and  C_5 
REMARK       I    between atoms: N_4  and  C_8 
REMARK    4  A    between atoms: C_5  and  C_6 
REMARK    5  A    between atoms: C_8  and  C_10 
REMARK    6  A    between atoms: C_15  and  C_23 
REMARK    7  A    between atoms: C_20  and  N_22 
REMARK    8  A    between atoms: C_26  and  C_29 
REMARK       I    between atoms: C_29  and  N_31 
ROOT
HETATM    1  C   UNK N   1      28.794  16.782   5.615  0.00  0.00     0.018 C 
HETATM    2  C   UNK N   1      29.247  17.044   6.817  0.00  0.00     0.027 C 
HETATM    3  C   UNK N   1      30.658  17.186   7.086  0.00  0.00    -0.009 C 
HETATM    4  C   UNK N   1      30.957  17.783   8.318  0.00  0.00     0.014 C 
HETATM    5  C   UNK N   1      32.274  17.924   8.731  0.00  0.00     0.013 C 
HETATM    6  C   UNK N   1      33.295  17.535   7.869  0.00  0.00    -0.024 C 
HETATM    7  C   UNK N   1      32.990  17.125   6.581  0.00  0.00     0.042 C 
HETATM    8  C   UNK N   1      31.713  16.906   6.167  0.00  0.00     0.044 C 
HETATM    9  N   UNK N   1      31.639  16.226   4.922  0.00  0.00    -0.345 N 
ATOM     10  HN  UNK N   1      32.513  16.219   4.394  1.00  0.00     0.167 HD
HETATM   11  C   UNK N   1      30.672  15.617   4.345  0.00  0.00     0.079 C 
HETATM   12  C   UNK N   1      29.296  15.564   4.890  0.00  0.00     0.120 C 
ENDROOT
BRANCH   6  13
HETATM   13  C   UNK N   1      34.472  16.870   8.431  0.00  0.00    -0.026 A 
HETATM   14  C   UNK N   1      34.937  17.188   9.717  0.00  0.00     0.013 A 
HETATM   15  C   UNK N   1      35.727  16.265  10.413  0.00  0.00     0.018 A 
HETATM   16  C   UNK N   1      36.005  15.003   9.855  0.00  0.00     0.032 A 
HETATM   17  C   UNK N   1      35.557  14.726   8.570  0.00  0.00     0.018 A 
HETATM   18  C   UNK N   1      34.811  15.631   7.874  0.00  0.00     0.013 A 
BRANCH  16  19
HETATM   19  C   UNK N   1      36.826  14.001  10.573  0.00  0.00     0.253 C 
HETATM   20  O   UNK N   1      37.982  13.822  10.186  0.00  0.00    -0.267 OA
HETATM   21  N   UNK N   1      36.348  13.237  11.606  0.00  0.00    -0.348 N 
HETATM   22  C   UNK N   1      37.097  12.154  12.156  0.00  0.00     0.126 C 
HETATM   23  C   UNK N   1      35.036  13.391  12.197  0.00  0.00     0.126 C 
HETATM   24  C   UNK N   1      36.086  11.358  12.961  0.00  0.00     0.021 C 
HETATM   25  C   UNK N   1      34.937  12.313  13.250  0.00  0.00     0.021 C 
ENDBRANCH  16  19
ENDBRANCH   6  13
BRANCH  11  26
HETATM   26  N   UNK N   1      30.953  14.872   3.178  0.00  0.00    -0.389 N 
HETATM   27  H   UNK N   1      31.090  15.323   2.313  0.00  0.00     0.157 HD
HETATM   28  H   UNK N   1      31.012  13.890   3.230  0.00  0.00     0.157 HD
ENDBRANCH  11  26
BRANCH   1  29
HETATM   29  C   UNK N   1      28.298  18.032   4.966  0.00  0.00     0.250 C 
HETATM   30  N   UNK N   1      26.982  18.297   4.706  0.00  0.00    -0.348 N 
HETATM   31  O   UNK N   1      29.145  18.825   4.562  0.00  0.00    -0.268 OA
BRANCH  30  32
HETATM   32  C   UNK N   1      26.644  19.509   3.994  0.00  0.00     0.125 C 
BRANCH  32  33
HETATM   33  C   UNK N   1      25.942  20.483   4.922  0.00  0.00     0.015 C 
HETATM   34  C   UNK N   1      26.950  21.298   5.713  0.00  0.00     0.006 C 
ENDBRANCH  32  33
ENDBRANCH  30  32
BRANCH  30  35
HETATM   35  C   UNK N   1      25.936  17.335   4.934  0.00  0.00     0.125 C 
BRANCH  35  36
HETATM   36  C   UNK N   1      25.216  16.983   3.653  0.00  0.00     0.015 C 
HETATM   37  C   UNK N   1      26.070  16.012   2.870  0.00  0.00     0.006 C 
ENDBRANCH  35  36
ENDBRANCH  30  35
ENDBRANCH   1  29
TORSDOF 8
ENDMDL
MODEL 5
REMARK VINA RESULT:      -7.4      1.996     11.176
REMARK  8 active torsions:
REMARK  status: ('A' for Active; 'I' for Inactive)
REMARK    1  A    between atoms: C_2  and  C_3 
REMARK    2  A    between atoms: C_3  and  N_4 
REMARK    3  A    between atoms: N_4  and  C_5 
REMARK       I    between atoms: N_4  and  C_8 
REMARK    4  A    between atoms: C_5  and  C_6 
REMARK    5  A    between atoms: C_8  and  C_10 
REMARK    6  A    between atoms: C_15  and  C_23 
REMARK    7  A    between atoms: C_20  and  N_22 
REMARK    8  A    between atoms: C_26  and  C_29 
REMARK       I    between atoms: C_29  and  N_31 
ROOT
HETATM    1  C   UNK N   1      25.182  19.351   3.955  0.00  0.00     0.018 C 
HETATM    2  C   UNK N   1      25.905  18.447   3.340  0.00  0.00     0.027 C 
HETATM    3  C   UNK N   1      26.960  17.727   4.013  0.00  0.00    -0.009 C 
HETATM    4  C   UNK N   1      27.408  16.586   3.335  0.00  0.00     0.014 C 
HETATM    5  C   UNK N   1      28.461  15.836   3.838  0.00  0.00     0.013 C 
HETATM    6  C   UNK N   1      29.013  16.190   5.066  0.00  0.00    -0.024 C 
HETATM    7  C   UNK N   1      28.436  17.203   5.814  0.00  0.00     0.042 C 
HETATM    8  C   UNK N   1      27.453  18.005   5.323  0.00  0.00     0.044 C 
HETATM    9  N   UNK N   1      27.205  19.144   6.134  0.00  0.00    -0.345 N 
ATOM     10  HN  UNK N   1      27.597  19.084   7.074  1.00  0.00     0.167 HD
HETATM   11  C   UNK N   1      26.579  20.236   5.895  0.00  0.00     0.079 C 
HETATM   12  C   UNK N   1      25.866  20.509   4.625  0.00  0.00     0.120 C 
ENDROOT
BRANCH   6  13
HETATM   13  C   UNK N   1      30.464  16.091   5.237  0.00  0.00    -0.026 A 
HETATM   14  C   UNK N   1      31.243  17.231   5.486  0.00  0.00     0.013 A 
HETATM   15  C   UNK N   1      32.496  17.092   6.096  0.00  0.00     0.018 A 
HETATM   16  C   UNK N   1      32.948  15.825   6.511  0.00  0.00     0.032 A 
HETATM   17  C   UNK N   1      32.170  14.709   6.224  0.00  0.00     0.018 A 
HETATM   18  C   UNK N   1      30.962  14.835   5.605  0.00  0.00     0.013 A 
BRANCH  16  19
HETATM   19  C   UNK N   1      34.262  15.647   7.169  0.00  0.00     0.253 C 
HETATM   20  O   UNK N   1      35.272  15.718   6.467  0.00  0.00    -0.267 OA
HETATM   21  N   UNK N   1      34.402  15.362   8.503  0.00  0.00    -0.348 N 
HETATM   22  C   UNK N   1      35.664  15.014   9.074  0.00  0.00     0.126 C 
HETATM   23  C   UNK N   1      33.308  15.314   9.448  0.00  0.00     0.126 C 
HETATM   24  C   UNK N   1      35.320  14.407  10.422  0.00  0.00     0.021 C 
HETATM   25  C   UNK N   1      33.928  14.917  10.766  0.00  0.00     0.021 C 
ENDBRANCH  16  19
ENDBRANCH   6  13
BRANCH  11  26
HETATM   26  N   UNK N   1      26.655  21.272   6.850  0.00  0.00    -0.389 N 
HETATM   27  H   UNK N   1      27.164  21.153   7.685  0.00  0.00     0.157 HD
HETATM   28  H   UNK N   1      26.192  22.125   6.681  0.00  0.00     0.157 HD
ENDBRANCH  11  26
BRANCH   1  29
HETATM   29  C   UNK N   1      23.866  18.770   4.361  0.00  0.00     0.250 C 
HETATM   30  N   UNK N   1      22.665  19.121   3.811  0.00  0.00    -0.348 N 
HETATM   31  O   UNK N   1      23.869  17.996   5.314  0.00  0.00    -0.268 OA
BRANCH  30  32
HETATM   32  C   UNK N   1      21.456  18.545   4.355  0.00  0.00     0.125 C 
BRANCH  32  33
HETATM   33  C   UNK N   1      21.137  17.238   3.654  0.00  0.00     0.015 C 
HETATM   34  C   UNK N   1      19.756  17.286   3.023  0.00  0.00     0.006 C 
ENDBRANCH  32  33
ENDBRANCH  30  32
BRANCH  30  35
HETATM   35  C   UNK N   1      22.532  20.182   2.847  0.00  0.00     0.125 C 
BRANCH  35  36
HETATM   36  C   UNK N   1      21.113  20.696   2.779  0.00  0.00     0.015 C 
HETATM   37  C   UNK N   1      20.658  20.668   1.336  0.00  0.00     0.006 C 
ENDBRANCH  35  36
ENDBRANCH  30  35
ENDBRANCH   1  29
TORSDOF 8
ENDMDL
MODEL 6
REMARK VINA RESULT:      -7.4      3.537      5.217
REMARK  8 active torsions:
REMARK  status: ('A' for Active; 'I' for Inactive)
REMARK    1  A    between atoms: C_2  and  C_3 
REMARK    2  A    between atoms: C_3  and  N_4 
REMARK    3  A    between atoms: N_4  and  C_5 
REMARK       I    between atoms: N_4  and  C_8 
REMARK    4  A    between atoms: C_5  and  C_6 
REMARK    5  A    between atoms: C_8  and  C_10 
REMARK    6  A    between atoms: C_15  and  C_23 
REMARK    7  A    between atoms: C_20  and  N_22 
REMARK    8  A    between atoms: C_26  and  C_29 
REMARK       I    between atoms: C_29  and  N_31 
ROOT
HETATM    1  C   UNK N   1      35.324  13.634   9.932  0.00  0.00     0.018 C 
HETATM    2  C   UNK N   1      35.347  14.816   9.366  0.00  0.00     0.027 C 
HETATM    3  C   UNK N   1      34.136  15.510   9.001  0.00  0.00    -0.009 C 
HETATM    4  C   UNK N   1      34.308  16.873   8.721  0.00  0.00     0.014 C 
HETATM    5  C   UNK N   1      33.238  17.645   8.295  0.00  0.00     0.013 C 
HETATM    6  C   UNK N   1      31.974  17.065   8.227  0.00  0.00    -0.024 C 
HETATM    7  C   UNK N   1      31.783  15.773   8.687  0.00  0.00     0.042 C 
HETATM    8  C   UNK N   1      32.818  14.963   9.042  0.00  0.00     0.044 C 
HETATM    9  N   UNK N   1      32.432  13.606   9.209  0.00  0.00    -0.345 N 
ATOM     10  HN  UNK N   1      31.426  13.463   9.294  1.00  0.00     0.167 HD
HETATM   11  C   UNK N   1      33.123  12.530   9.271  0.00  0.00     0.079 C 
HETATM   12  C   UNK N   1      34.604  12.505   9.247  0.00  0.00     0.120 C 
ENDROOT
BRANCH   6  13
HETATM   13  C   UNK N   1      31.100  17.422   7.108  0.00  0.00    -0.026 A 
HETATM   14  C   UNK N   1      31.536  17.300   5.780  0.00  0.00     0.013 A 
HETATM   15  C   UNK N   1      30.595  17.186   4.751  0.00  0.00     0.018 A 
HETATM   16  C   UNK N   1      29.220  17.136   5.047  0.00  0.00     0.032 A 
HETATM   17  C   UNK N   1      28.813  17.290   6.367  0.00  0.00     0.018 A 
HETATM   18  C   UNK N   1      29.725  17.429   7.371  0.00  0.00     0.013 A 
BRANCH  16  19
HETATM   19  C   UNK N   1      28.200  17.004   3.981  0.00  0.00     0.253 C 
HETATM   20  O   UNK N   1      27.510  17.991   3.719  0.00  0.00    -0.267 OA
HETATM   21  N   UNK N   1      27.958  15.831   3.314  0.00  0.00    -0.348 N 
HETATM   22  C   UNK N   1      26.851  15.681   2.426  0.00  0.00     0.126 C 
HETATM   23  C   UNK N   1      28.735  14.622   3.479  0.00  0.00     0.126 C 
HETATM   24  C   UNK N   1      26.721  14.181   2.225  0.00  0.00     0.021 C 
HETATM   25  C   UNK N   1      28.075  13.593   2.591  0.00  0.00     0.021 C 
ENDBRANCH  16  19
ENDBRANCH   6  13
BRANCH  11  26
HETATM   26  N   UNK N   1      32.439  11.295   9.260  0.00  0.00    -0.389 N 
HETATM   27  H   UNK N   1      32.795  10.526   8.759  0.00  0.00     0.157 HD
HETATM   28  H   UNK N   1      31.594  11.203   9.759  0.00  0.00     0.157 HD
ENDBRANCH  11  26
BRANCH   1  29
HETATM   29  C   UNK N   1      35.528  13.762  11.406  0.00  0.00     0.250 C 
HETATM   30  N   UNK N   1      36.595  13.245  12.086  0.00  0.00    -0.348 N 
HETATM   31  O   UNK N   1      34.624  14.291  12.049  0.00  0.00    -0.268 OA
BRANCH  30  32
HETATM   32  C   UNK N   1      36.627  13.366  13.526  0.00  0.00     0.125 C 
BRANCH  32  33
HETATM   33  C   UNK N   1      36.487  12.000  14.171  0.00  0.00     0.015 C 
HETATM   34  C   UNK N   1      36.059  12.128  15.622  0.00  0.00     0.006 C 
ENDBRANCH  32  33
ENDBRANCH  30  32
BRANCH  30  35
HETATM   35  C   UNK N   1      37.589  12.415  11.457  0.00  0.00     0.125 C 
BRANCH  35  36
HETATM   36  C   UNK N   1      38.553  13.234  10.630  0.00  0.00     0.015 C 
HETATM   37  C   UNK N   1      38.877  12.467   9.367  0.00  0.00     0.006 C 
ENDBRANCH  35  36
ENDBRANCH  30  35
ENDBRANCH   1  29
TORSDOF 8
ENDMDL
MODEL 7
REMARK VINA RESULT:      -7.4      5.080      8.379
REMARK  8 active torsions:
REMARK  status: ('A' for Active; 'I' for Inactive)
REMARK    1  A    between atoms: C_2  and  C_3 
REMARK    2  A    between atoms: C_3  and  N_4 
REMARK    3  A    between atoms: N_4  and  C_5 
REMARK       I    between atoms: N_4  and  C_8 
REMARK    4  A    between atoms: C_5  and  C_6 
REMARK    5  A    between atoms: C_8  and  C_10 
REMARK    6  A    between atoms: C_15  and  C_23 
REMARK    7  A    between atoms: C_20  and  N_22 
REMARK    8  A    between atoms: C_26  and  C_29 
REMARK       I    between atoms: C_29  and  N_31 
ROOT
HETATM    1  C   UNK N   1      36.095  11.976  13.181  0.00  0.00     0.018 C 
HETATM    2  C   UNK N   1      36.441  13.211  12.914  0.00  0.00     0.027 C 
HETATM    3  C   UNK N   1      35.696  14.029  11.987  0.00  0.00    -0.009 C 
HETATM    4  C   UNK N   1      35.983  15.399  12.058  0.00  0.00     0.014 C 
HETATM    5  C   UNK N   1      35.385  16.291  11.181  0.00  0.00     0.013 C 
HETATM    6  C   UNK N   1      34.436  15.815  10.280  0.00  0.00    -0.024 C 
HETATM    7  C   UNK N   1      34.023  14.494  10.348  0.00  0.00     0.042 C 
HETATM    8  C   UNK N   1      34.637  13.577  11.143  0.00  0.00     0.044 C 
HETATM    9  N   UNK N   1      34.250  12.241  10.855  0.00  0.00    -0.345 N 
ATOM     10  HN  UNK N   1      33.404  12.161  10.289  1.00  0.00     0.167 HD
HETATM   11  C   UNK N   1      34.775  11.118  11.176  0.00  0.00     0.079 C 
HETATM   12  C   UNK N   1      35.962  10.990  12.054  0.00  0.00     0.120 C 
ENDROOT
BRANCH   6  13
HETATM   13  C   UNK N   1      34.423  16.362   8.922  0.00  0.00    -0.026 A 
HETATM   14  C   UNK N   1      34.964  15.642   7.846  0.00  0.00     0.013 A 
HETATM   15  C   UNK N   1      34.547  15.931   6.542  0.00  0.00     0.018 A 
HETATM   16  C   UNK N   1      33.548  16.895   6.312  0.00  0.00     0.032 A 
HETATM   17  C   UNK N   1      33.051  17.615   7.392  0.00  0.00     0.018 A 
HETATM   18  C   UNK N   1      33.474  17.358   8.662  0.00  0.00     0.013 A 
BRANCH  16  19
HETATM   19  C   UNK N   1      33.076  17.214   4.945  0.00  0.00     0.253 C 
HETATM   20  O   UNK N   1      33.579  18.183   4.374  0.00  0.00    -0.267 OA
HETATM   21  N   UNK N   1      32.080  16.516   4.311  0.00  0.00    -0.348 N 
HETATM   22  C   UNK N   1      31.518  16.954   3.075  0.00  0.00     0.126 C 
HETATM   23  C   UNK N   1      31.454  15.324   4.841  0.00  0.00     0.126 C 
HETATM   24  C   UNK N   1      30.232  16.159   2.935  0.00  0.00     0.021 C 
HETATM   25  C   UNK N   1      30.395  14.942   3.834  0.00  0.00     0.021 C 
ENDBRANCH  16  19
ENDBRANCH   6  13
BRANCH  11  26
HETATM   26  N   UNK N   1      34.259   9.945  10.583  0.00  0.00    -0.389 N 
HETATM   27  H   UNK N   1      34.813   9.400   9.979  0.00  0.00     0.157 HD
HETATM   28  H   UNK N   1      33.333   9.670  10.775  0.00  0.00     0.157 HD
ENDBRANCH  11  26
BRANCH   1  29
HETATM   29  C   UNK N   1      35.352  11.916  14.476  0.00  0.00     0.250 C 
HETATM   30  N   UNK N   1      35.795  11.260  15.591  0.00  0.00    -0.348 N 
HETATM   31  O   UNK N   1      34.230  12.415  14.498  0.00  0.00    -0.268 OA
BRANCH  30  32
HETATM   32  C   UNK N   1      34.938  11.208  16.753  0.00  0.00     0.125 C 
BRANCH  32  33
HETATM   33  C   UNK N   1      35.538  12.022  17.884  0.00  0.00     0.015 C 
HETATM   34  C   UNK N   1      35.070  13.465  17.818  0.00  0.00     0.006 C 
ENDBRANCH  32  33
ENDBRANCH  30  32
BRANCH  30  35
HETATM   35  C   UNK N   1      36.989  10.456  15.596  0.00  0.00     0.125 C 
BRANCH  35  36
HETATM   36  C   UNK N   1      36.690   9.020  15.956  0.00  0.00     0.015 C 
HETATM   37  C   UNK N   1      36.206   8.302  14.715  0.00  0.00     0.006 C 
ENDBRANCH  35  36
ENDBRANCH  30  35
ENDBRANCH   1  29
TORSDOF 8
ENDMDL
MODEL 8
REMARK VINA RESULT:      -7.2      2.267      3.895
REMARK  8 active torsions:
REMARK  status: ('A' for Active; 'I' for Inactive)
REMARK    1  A    between atoms: C_2  and  C_3 
REMARK    2  A    between atoms: C_3  and  N_4 
REMARK    3  A    between atoms: N_4  and  C_5 
REMARK       I    between atoms: N_4  and  C_8 
REMARK    4  A    between atoms: C_5  and  C_6 
REMARK    5  A    between atoms: C_8  and  C_10 
REMARK    6  A    between atoms: C_15  and  C_23 
REMARK    7  A    between atoms: C_20  and  N_22 
REMARK    8  A    between atoms: C_26  and  C_29 
REMARK       I    between atoms: C_29  and  N_31 
ROOT
HETATM    1  C   UNK N   1      35.040  14.699   9.369  0.00  0.00     0.018 C 
HETATM    2  C   UNK N   1      34.731  15.873   8.875  0.00  0.00     0.027 C 
HETATM    3  C   UNK N   1      33.364  16.327   8.785  0.00  0.00    -0.009 C 
HETATM    4  C   UNK N   1      33.222  17.702   8.551  0.00  0.00     0.014 C 
HETATM    5  C   UNK N   1      31.964  18.260   8.380  0.00  0.00     0.013 C 
HETATM    6  C   UNK N   1      30.842  17.449   8.521  0.00  0.00    -0.024 C 
HETATM    7  C   UNK N   1      30.989  16.137   8.939  0.00  0.00     0.042 C 
HETATM    8  C   UNK N   1      32.205  15.536   9.046  0.00  0.00     0.044 C 
HETATM    9  N   UNK N   1      32.119  14.128   9.210  0.00  0.00    -0.345 N 
ATOM     10  HN  UNK N   1      31.193  13.791   9.476  1.00  0.00     0.167 HD
HETATM   11  C   UNK N   1      32.996  13.204   9.080  0.00  0.00     0.079 C 
HETATM   12  C   UNK N   1      34.421  13.465   8.774  0.00  0.00     0.120 C 
ENDROOT
BRANCH   6  13
HETATM   13  C   UNK N   1      29.713  17.650   7.611  0.00  0.00    -0.026 A 
HETATM   14  C   UNK N   1      28.676  18.540   7.929  0.00  0.00     0.013 A 
HETATM   15  C   UNK N   1      27.882  19.071   6.905  0.00  0.00     0.018 A 
HETATM   16  C   UNK N   1      28.157  18.763   5.560  0.00  0.00     0.032 A 
HETATM   17  C   UNK N   1      29.171  17.856   5.274  0.00  0.00     0.018 A 
HETATM   18  C   UNK N   1      29.930  17.313   6.269  0.00  0.00     0.013 A 
BRANCH  16  19
HETATM   19  C   UNK N   1      27.344  19.318   4.454  0.00  0.00     0.253 C 
HETATM   20  O   UNK N   1      27.863  20.170   3.730  0.00  0.00    -0.267 OA
HETATM   21  N   UNK N   1      26.037  18.968   4.232  0.00  0.00    -0.348 N 
HETATM   22  C   UNK N   1      25.222  19.650   3.279  0.00  0.00     0.126 C 
HETATM   23  C   UNK N   1      25.332  17.939   4.964  0.00  0.00     0.126 C 
HETATM   24  C   UNK N   1      23.803  19.237   3.623  0.00  0.00     0.021 C 
HETATM   25  C   UNK N   1      23.925  17.942   4.413  0.00  0.00     0.021 C 
ENDBRANCH  16  19
ENDBRANCH   6  13
BRANCH  11  26
HETATM   26  N   UNK N   1      32.564  11.860   9.133  0.00  0.00    -0.389 N 
HETATM   27  H   UNK N   1      31.647  11.615   8.871  0.00  0.00     0.157 HD
HETATM   28  H   UNK N   1      33.186  11.160   9.437  0.00  0.00     0.157 HD
ENDBRANCH  11  26
BRANCH   1  29
HETATM   29  C   UNK N   1      35.502  14.840  10.783  0.00  0.00     0.250 C 
HETATM   30  N   UNK N   1      36.294  13.932  11.430  0.00  0.00    -0.348 N 
HETATM   31  O   UNK N   1      35.061  15.791  11.422  0.00  0.00    -0.268 OA
BRANCH  30  32
HETATM   32  C   UNK N   1      36.599  14.146  12.826  0.00  0.00     0.125 C 
BRANCH  32  33
HETATM   33  C   UNK N   1      35.978  13.050  13.673  0.00  0.00     0.015 C 
HETATM   34  C   UNK N   1      35.994  13.428  15.143  0.00  0.00     0.006 C 
ENDBRANCH  32  33
ENDBRANCH  30  32
BRANCH  30  35
HETATM   35  C   UNK N   1      36.676  12.675  10.841  0.00  0.00     0.125 C 
BRANCH  35  36
HETATM   36  C   UNK N   1      38.168  12.597  10.619  0.00  0.00     0.015 C 
HETATM   37  C   UNK N   1      38.472  13.055   9.210  0.00  0.00     0.006 C 
ENDBRANCH  35  36
ENDBRANCH  30  35
ENDBRANCH   1  29
TORSDOF 8
ENDMDL
MODEL 9
REMARK VINA RESULT:      -7.2      2.815     11.211
REMARK  8 active torsions:
REMARK  status: ('A' for Active; 'I' for Inactive)
REMARK    1  A    between atoms: C_2  and  C_3 
REMARK    2  A    between atoms: C_3  and  N_4 
REMARK    3  A    between atoms: N_4  and  C_5 
REMARK       I    between atoms: N_4  and  C_8 
REMARK    4  A    between atoms: C_5  and  C_6 
REMARK    5  A    between atoms: C_8  and  C_10 
REMARK    6  A    between atoms: C_15  and  C_23 
REMARK    7  A    between atoms: C_20  and  N_22 
REMARK    8  A    between atoms: C_26  and  C_29 
REMARK       I    between atoms: C_29  and  N_31 
ROOT
HETATM    1  C   UNK N   1      22.691  17.148   4.652  0.00  0.00     0.018 C 
HETATM    2  C   UNK N   1      23.586  18.066   4.379  0.00  0.00     0.027 C 
HETATM    3  C   UNK N   1      25.001  17.815   4.513  0.00  0.00    -0.009 C 
HETATM    4  C   UNK N   1      25.821  18.759   3.879  0.00  0.00     0.014 C 
HETATM    5  C   UNK N   1      27.202  18.674   3.980  0.00  0.00     0.013 C 
HETATM    6  C   UNK N   1      27.762  17.593   4.655  0.00  0.00    -0.024 C 
HETATM    7  C   UNK N   1      26.948  16.569   5.112  0.00  0.00     0.042 C 
HETATM    8  C   UNK N   1      25.590  16.652   5.095  0.00  0.00     0.044 C 
HETATM    9  N   UNK N   1      24.959  15.634   5.858  0.00  0.00    -0.345 N 
ATOM     10  HN  UNK N   1      25.567  14.851   6.099  1.00  0.00     0.167 HD
HETATM   11  C   UNK N   1      23.763  15.526   6.302  0.00  0.00     0.079 C 
HETATM   12  C   UNK N   1      22.689  16.505   6.011  0.00  0.00     0.120 C 
ENDROOT
BRANCH   6  13
HETATM   13  C   UNK N   1      28.936  17.825   5.497  0.00  0.00    -0.026 A 
HETATM   14  C   UNK N   1      28.827  17.874   6.896  0.00  0.00     0.013 A 
HETATM   15  C   UNK N   1      29.955  17.628   7.686  0.00  0.00     0.018 A 
HETATM   16  C   UNK N   1      31.179  17.276   7.088  0.00  0.00     0.032 A 
HETATM   17  C   UNK N   1      31.268  17.264   5.702  0.00  0.00     0.018 A 
HETATM   18  C   UNK N   1      30.180  17.531   4.925  0.00  0.00     0.013 A 
BRANCH  16  19
HETATM   19  C   UNK N   1      32.387  16.998   7.899  0.00  0.00     0.253 C 
HETATM   20  O   UNK N   1      32.980  17.956   8.396  0.00  0.00    -0.267 OA
HETATM   21  N   UNK N   1      32.899  15.738   8.077  0.00  0.00    -0.348 N 
HETATM   22  C   UNK N   1      34.162  15.517   8.705  0.00  0.00     0.126 C 
HETATM   23  C   UNK N   1      32.269  14.526   7.604  0.00  0.00     0.126 C 
HETATM   24  C   UNK N   1      34.520  14.085   8.351  0.00  0.00     0.021 C 
HETATM   25  C   UNK N   1      33.209  13.406   7.983  0.00  0.00     0.021 C 
ENDBRANCH  16  19
ENDBRANCH   6  13
BRANCH  11  26
HETATM   26  N   UNK N   1      23.475  14.471   7.196  0.00  0.00    -0.389 N 
HETATM   27  H   UNK N   1      23.761  13.550   6.997  0.00  0.00     0.157 HD
HETATM   28  H   UNK N   1      22.981  14.659   8.027  0.00  0.00     0.157 HD
ENDBRANCH  11  26
BRANCH   1  29
HETATM   29  C   UNK N   1      22.205  16.510   3.392  0.00  0.00     0.250 C 
HETATM   30  N   UNK N   1      20.978  16.740   2.834  0.00  0.00    -0.348 N 
HETATM   31  O   UNK N   1      22.927  15.655   2.885  0.00  0.00    -0.268 OA
BRANCH  30  32
HETATM   32  C   UNK N   1      20.598  15.992   1.658  0.00  0.00     0.125 C 
BRANCH  32  33
HETATM   33  C   UNK N   1      19.750  14.796   2.049  0.00  0.00     0.015 C 
HETATM   34  C   UNK N   1      20.185  13.553   1.293  0.00  0.00     0.006 C 
ENDBRANCH  32  33
ENDBRANCH  30  32
BRANCH  30  35
HETATM   35  C   UNK N   1      19.973  17.549   3.473  0.00  0.00     0.125 C 
BRANCH  35  36
HETATM   36  C   UNK N   1      19.713  18.822   2.703  0.00  0.00     0.015 C 
HETATM   37  C   UNK N   1      20.465  19.953   3.370  0.00  0.00     0.006 C 
ENDBRANCH  35  36
ENDBRANCH  30  35
ENDBRANCH   1  29
TORSDOF 8
ENDMDL
