MODEL 1
REMARK VINA RESULT:      -7.8      0.000      0.000
REMARK  20 active torsions:
REMARK  status: ('A' for Active; 'I' for Inactive)
REMARK    1  A    between atoms: C_2  and  C_3 
REMARK    2  A    between atoms: C_2  and  O_66 
REMARK    3  A    between atoms: C_3  and  C_4 
REMARK    4  A    between atoms: C_3  and  N_7 
REMARK       I    between atoms: C_4  and  N_6 
REMARK       I    between atoms: N_7  and  C_8 
REMARK    5  A    between atoms: C_10  and  C_8 
REMARK    6  A    between atoms: C_15  and  N_54 
REMARK    7  A    between atoms: C_19  and  C_46 
REMARK    8  A    between atoms: C_23  and  C_36 
REMARK    9  A    between atoms: C_27  and  C_31 
REMARK   10  A    between atoms: C_31  and  C_32 
REMARK   11  A    between atoms: C_32  and  C_33 
REMARK   12  A    between atoms: C_33  and  C_34 
REMARK   13  A    between atoms: C_34  and  N_35 
REMARK   14  A    between atoms: C_36  and  C_37 
REMARK   15  A    between atoms: C_46  and  C_47 
REMARK   16  A    between atoms: C_50  and  O_53 
REMARK       I    between atoms: N_54  and  C_55 
REMARK   17  A    between atoms: C_55  and  C_57 
REMARK   18  A    between atoms: C_57  and  C_58 
REMARK   19  A    between atoms: C_57  and  N_65 
REMARK   20  A    between atoms: C_58  and  C_59 
ROOT
HETATM    1  C   UNK N   1      23.358  16.605   5.727  0.00  0.00     0.186 C 
HETATM    2  C   UNK N   1      24.246  16.714   4.484  0.00  0.00     0.120 C 
HETATM    3  S   UNK N   1      23.599  15.812   3.034  0.00  0.00    -0.095 SA
HETATM    4  S   UNK N   1      25.505  15.505   2.166  0.00  0.00    -0.095 SA
HETATM    5  C   UNK N   1      25.971  14.384   3.509  0.00  0.00     0.120 C 
HETATM    6  C   UNK N   1      27.471  14.246   3.731  0.00  0.00     0.186 C 
HETATM    7  C   UNK N   1      28.245  13.717   2.552  0.00  0.00     0.242 C 
HETATM    8  O   UNK N   1      28.520  14.448   1.615  0.00  0.00    -0.271 OA
HETATM    9  N   UNK N   1      28.665  12.431   2.537  0.00  0.00    -0.346 N 
HETATM   10  C   UNK N   1      28.302  11.524   3.600  0.00  0.00     0.180 C 
HETATM   11  C   UNK N   1      27.874  10.222   3.015  0.00  0.00     0.241 C 
HETATM   12  O   UNK N   1      28.713   9.524   2.468  0.00  0.00    -0.271 OA
HETATM   13  N   UNK N   1      26.595   9.770   3.076  0.00  0.00    -0.346 N 
HETATM   14  C   UNK N   1      25.381  10.407   3.575  0.00  0.00     0.181 C 
HETATM   15  C   UNK N   1      25.413  11.356   4.748  0.00  0.00     0.241 C 
HETATM   16  O   UNK N   1      26.378  11.426   5.493  0.00  0.00    -0.271 OA
HETATM   17  N   UNK N   1      24.312  12.113   4.983  0.00  0.00    -0.346 N 
HETATM   18  C   UNK N   1      24.198  13.008   6.115  0.00  0.00     0.176 C 
HETATM   19  C   UNK N   1      23.204  14.107   5.910  0.00  0.00     0.241 C 
HETATM   20  O   UNK N   1      22.289  13.972   5.109  0.00  0.00    -0.271 OA
HETATM   21  N   UNK N   1      23.562  15.325   6.383  0.00  0.00    -0.345 N 
HETATM   22  H   UNK N   1      29.225  12.110   1.793  0.00  0.00     0.163 HD
HETATM   23  H   UNK N   1      26.465   8.860   2.724  0.00  0.00     0.163 HD
HETATM   24  H   UNK N   1      23.556  12.049   4.355  0.00  0.00     0.163 HD
HETATM   25  H   UNK N   1      24.004  15.346   7.262  0.00  0.00     0.163 HD
ENDROOT
BRANCH   6  26
HETATM   26  N   UNK N   1      28.139  15.343   4.413  0.00  0.00    -0.345 N 
HETATM   27  C   UNK N   1      27.813  15.838   5.635  0.00  0.00     0.240 C 
HETATM   28  O   UNK N   1      26.949  15.312   6.316  0.00  0.00    -0.271 OA
HETATM   29  H   UNK N   1      28.898  15.765   3.948  0.00  0.00     0.163 HD
BRANCH  27  30
HETATM   30  C   UNK N   1      28.440  17.123   6.095  0.00  0.00     0.171 C 
BRANCH  30  31
HETATM   31  C   UNK N   1      29.745  17.054   6.902  0.00  0.00     0.072 C 
BRANCH  31  32
HETATM   32  C   UNK N   1      31.030  17.192   6.153  0.00  0.00    -0.056 A 
HETATM   33  C   UNK N   1      30.986  17.455   4.781  0.00  0.00     0.007 A 
HETATM   34  C   UNK N   1      32.170  17.626   4.060  0.00  0.00     0.001 A 
HETATM   35  C   UNK N   1      33.404  17.531   4.710  0.00  0.00     0.000 A 
HETATM   36  C   UNK N   1      33.451  17.278   6.085  0.00  0.00     0.001 A 
HETATM   37  C   UNK N   1      32.266  17.118   6.809  0.00  0.00     0.007 A 
ENDBRANCH  31  32
ENDBRANCH  30  31
BRANCH  30  38
HETATM   38  N   UNK N   1      27.457  17.920   6.808  0.00  0.00    -0.418 N 
HETATM   39  H   UNK N   1      27.421  18.939   6.827  0.00  0.00     0.150 HD
HETATM   40  H   UNK N   1      26.743  17.418   7.335  0.00  0.00     0.150 HD
ENDBRANCH  30  38
ENDBRANCH  27  30
ENDBRANCH   6  26
BRANCH  10  41
HETATM   41  C   UNK N   1      29.433  11.299   4.630  0.00  0.00     0.073 C 
BRANCH  41  42
HETATM   42  C   UNK N   1      30.668  12.066   4.295  0.00  0.00    -0.056 A 
HETATM   43  C   UNK N   1      31.614  11.542   3.408  0.00  0.00     0.010 A 
HETATM   44  C   UNK N   1      32.831  12.205   3.220  0.00  0.00     0.037 A 
HETATM   45  C   UNK N   1      33.102  13.383   3.924  0.00  0.00     0.065 A 
HETATM   46  C   UNK N   1      32.147  13.914   4.794  0.00  0.00     0.037 A 
HETATM   47  C   UNK N   1      30.934  13.253   4.984  0.00  0.00     0.010 A 
BRANCH  45  48
HETATM   48  O   UNK N   1      34.282  14.003   3.769  0.00  0.00    -0.361 OA
HETATM   49  H   UNK N   1      35.070  13.600   4.078  0.00  0.00     0.217 HD
ENDBRANCH  45  48
ENDBRANCH  41  42
ENDBRANCH  10  41
BRANCH   1  50
HETATM   50  C   UNK N   1      21.957  17.075   5.490  0.00  0.00     0.242 C 
HETATM   51  N   UNK N   1      21.707  17.949   4.482  0.00  0.00    -0.344 N 
HETATM   52  H   UNK N   1      22.503  18.225   3.971  0.00  0.00     0.163 HD
HETATM   53  O   UNK N   1      21.085  16.722   6.263  0.00  0.00    -0.271 OA
BRANCH  51  54
HETATM   54  C   UNK N   1      20.462  18.546   4.029  0.00  0.00     0.204 C 
BRANCH  54  55
HETATM   55  C   UNK N   1      19.590  17.735   3.056  0.00  0.00     0.146 C 
HETATM   56  C   UNK N   1      20.407  16.805   2.174  0.00  0.00     0.042 C 
BRANCH  55  57
HETATM   57  O   UNK N   1      18.744  18.545   2.294  0.00  0.00    -0.393 OA
HETATM   58  H   UNK N   1      17.991  19.013   1.903  0.00  0.00     0.210 HD
ENDBRANCH  55  57
ENDBRANCH  54  55
BRANCH  54  59
HETATM   59  C   UNK N   1      20.798  19.891   3.476  0.00  0.00     0.240 C 
HETATM   60  O   UNK N   1      20.196  20.875   3.871  0.00  0.00    -0.271 OA
HETATM   61  N   UNK N   1      21.815  20.032   2.601  0.00  0.00    -0.368 N 
HETATM   62  H   UNK N   1      22.190  19.882   1.704  0.00  0.00     0.159 HD
HETATM   63  H   UNK N   1      22.515  20.516   3.095  0.00  0.00     0.159 HD
ENDBRANCH  54  59
ENDBRANCH  51  54
ENDBRANCH   1  50
BRANCH  14  64
HETATM   64  C   UNK N   1      24.339   9.318   3.846  0.00  0.00     0.075 C 
BRANCH  64  65
HETATM   65  C   UNK N   1      24.402   8.656   5.209  0.00  0.00    -0.028 A 
HETATM   66  C   UNK N   1      23.416   8.830   6.177  0.00  0.00     0.096 A 
HETATM   67  N   UNK N   1      23.681   8.058   7.255  0.00  0.00    -0.365 N 
HETATM   68  C   UNK N   1      24.826   7.397   6.980  0.00  0.00     0.042 A 
HETATM   69  H   UNK N   1      23.144   7.991   8.078  0.00  0.00     0.165 HD
HETATM   70  C   UNK N   1      25.300   7.747   5.749  0.00  0.00    -0.002 A 
HETATM   71  C   UNK N   1      25.458   6.463   7.790  0.00  0.00     0.030 A 
HETATM   72  C   UNK N   1      26.483   7.180   5.260  0.00  0.00     0.014 A 
HETATM   73  C   UNK N   1      27.154   6.234   6.048  0.00  0.00     0.001 A 
HETATM   74  C   UNK N   1      26.641   5.869   7.309  0.00  0.00     0.002 A 
ENDBRANCH  64  65
ENDBRANCH  14  64
BRANCH  18  75
HETATM   75  C   UNK N   1      24.169  12.325   7.475  0.00  0.00     0.035 C 
BRANCH  75  76
HETATM   76  C   UNK N   1      24.845  13.152   8.552  0.00  0.00     0.004 C 
BRANCH  76  77
HETATM   77  C   UNK N   1      24.588  12.573   9.929  0.00  0.00     0.019 C 
BRANCH  77  78
HETATM   78  C   UNK N   1      23.106  12.631  10.228  0.00  0.00     0.111 C 
BRANCH  78  79
HETATM   79  N   UNK N   1      22.713  11.463  10.996  0.00  0.00    -0.430 N 
HETATM   80  H   UNK N   1      22.102  11.162  11.756  0.00  0.00     0.149 HD
HETATM   81  H   UNK N   1      23.232  10.655  10.653  0.00  0.00     0.149 HD
ENDBRANCH  78  79
ENDBRANCH  77  78
ENDBRANCH  76  77
ENDBRANCH  75  76
ENDBRANCH  18  75
TORSDOF 20
ENDMDL
MODEL 2
REMARK VINA RESULT:      -7.8      1.483      2.238
REMARK  20 active torsions:
REMARK  status: ('A' for Active; 'I' for Inactive)
REMARK    1  A    between atoms: C_2  and  C_3 
REMARK    2  A    between atoms: C_2  and  O_66 
REMARK    3  A    between atoms: C_3  and  C_4 
REMARK    4  A    between atoms: C_3  and  N_7 
REMARK       I    between atoms: C_4  and  N_6 
REMARK       I    between atoms: N_7  and  C_8 
REMARK    5  A    between atoms: C_10  and  C_8 
REMARK    6  A    between atoms: C_15  and  N_54 
REMARK    7  A    between atoms: C_19  and  C_46 
REMARK    8  A    between atoms: C_23  and  C_36 
REMARK    9  A    between atoms: C_27  and  C_31 
REMARK   10  A    between atoms: C_31  and  C_32 
REMARK   11  A    between atoms: C_32  and  C_33 
REMARK   12  A    between atoms: C_33  and  C_34 
REMARK   13  A    between atoms: C_34  and  N_35 
REMARK   14  A    between atoms: C_36  and  C_37 
REMARK   15  A    between atoms: C_46  and  C_47 
REMARK   16  A    between atoms: C_50  and  O_53 
REMARK       I    between atoms: N_54  and  C_55 
REMARK   17  A    between atoms: C_55  and  C_57 
REMARK   18  A    between atoms: C_57  and  C_58 
REMARK   19  A    between atoms: C_57  and  N_65 
REMARK   20  A    between atoms: C_58  and  C_59 
ROOT
HETATM    1  C   UNK N   1      23.363  16.519   6.079  0.00  0.00     0.186 C 
HETATM    2  C   UNK N   1      24.143  16.700   4.773  0.00  0.00     0.120 C 
HETATM    3  S   UNK N   1      23.381  15.869   3.336  0.00  0.00    -0.095 SA
HETATM    4  S   UNK N   1      25.209  15.623   2.298  0.00  0.00    -0.095 SA
HETATM    5  C   UNK N   1      25.790  14.437   3.537  0.00  0.00     0.120 C 
HETATM    6  C   UNK N   1      27.304  14.301   3.626  0.00  0.00     0.186 C 
HETATM    7  C   UNK N   1      27.979  13.840   2.360  0.00  0.00     0.242 C 
HETATM    8  O   UNK N   1      28.172  14.620   1.444  0.00  0.00    -0.271 OA
HETATM    9  N   UNK N   1      28.401  12.560   2.243  0.00  0.00    -0.346 N 
HETATM   10  C   UNK N   1      28.132  11.596   3.284  0.00  0.00     0.180 C 
HETATM   11  C   UNK N   1      27.661  10.323   2.669  0.00  0.00     0.241 C 
HETATM   12  O   UNK N   1      28.454   9.661   2.019  0.00  0.00    -0.271 OA
HETATM   13  N   UNK N   1      26.394   9.858   2.812  0.00  0.00    -0.346 N 
HETATM   14  C   UNK N   1      25.224  10.458   3.444  0.00  0.00     0.181 C 
HETATM   15  C   UNK N   1      25.350  11.345   4.658  0.00  0.00     0.241 C 
HETATM   16  O   UNK N   1      26.373  11.385   5.322  0.00  0.00    -0.271 OA
HETATM   17  N   UNK N   1      24.269  12.079   5.023  0.00  0.00    -0.346 N 
HETATM   18  C   UNK N   1      24.247  12.914   6.206  0.00  0.00     0.176 C 
HETATM   19  C   UNK N   1      23.235  14.014   6.142  0.00  0.00     0.241 C 
HETATM   20  O   UNK N   1      22.256  13.913   5.414  0.00  0.00    -0.271 OA
HETATM   21  N   UNK N   1      23.626  15.209   6.647  0.00  0.00    -0.345 N 
HETATM   22  H   UNK N   1      28.898  12.283   1.439  0.00  0.00     0.163 HD
HETATM   23  H   UNK N   1      26.238   8.967   2.426  0.00  0.00     0.163 HD
HETATM   24  H   UNK N   1      23.463  12.043   4.458  0.00  0.00     0.163 HD
HETATM   25  H   UNK N   1      24.140  15.187   7.486  0.00  0.00     0.163 HD
ENDROOT
BRANCH   6  26
HETATM   26  N   UNK N   1      28.023  15.367   4.307  0.00  0.00    -0.345 N 
HETATM   27  C   UNK N   1      27.777  15.815   5.564  0.00  0.00     0.240 C 
HETATM   28  O   UNK N   1      26.953  15.269   6.278  0.00  0.00    -0.271 OA
HETATM   29  H   UNK N   1      28.754  15.801   3.811  0.00  0.00     0.163 HD
BRANCH  27  30
HETATM   30  C   UNK N   1      28.442  17.078   6.033  0.00  0.00     0.171 C 
BRANCH  30  31
HETATM   31  C   UNK N   1      29.765  16.966   6.805  0.00  0.00     0.072 C 
BRANCH  31  32
HETATM   32  C   UNK N   1      31.032  17.189   6.044  0.00  0.00    -0.056 A 
HETATM   33  C   UNK N   1      32.253  17.022   6.704  0.00  0.00     0.007 A 
HETATM   34  C   UNK N   1      33.454  17.187   6.010  0.00  0.00     0.001 A 
HETATM   35  C   UNK N   1      33.437  17.523   4.653  0.00  0.00     0.000 A 
HETATM   36  C   UNK N   1      32.217  17.680   3.988  0.00  0.00     0.001 A 
HETATM   37  C   UNK N   1      31.015  17.504   4.679  0.00  0.00     0.007 A 
ENDBRANCH  31  32
ENDBRANCH  30  31
BRANCH  30  38
HETATM   38  N   UNK N   1      27.495  17.881   6.786  0.00  0.00    -0.418 N 
HETATM   39  H   UNK N   1      26.679  18.354   6.399  0.00  0.00     0.150 HD
HETATM   40  H   UNK N   1      27.660  17.980   7.787  0.00  0.00     0.150 HD
ENDBRANCH  30  38
ENDBRANCH  27  30
ENDBRANCH   6  26
BRANCH  10  41
HETATM   41  C   UNK N   1      29.346  11.327   4.202  0.00  0.00     0.073 C 
BRANCH  41  42
HETATM   42  C   UNK N   1      30.543  12.125   3.810  0.00  0.00    -0.056 A 
HETATM   43  C   UNK N   1      30.906  13.267   4.531  0.00  0.00     0.010 A 
HETATM   44  C   UNK N   1      31.940  14.085   4.064  0.00  0.00     0.037 A 
HETATM   45  C   UNK N   1      32.603  13.762   2.876  0.00  0.00     0.065 A 
HETATM   46  C   UNK N   1      32.253  12.610   2.169  0.00  0.00     0.037 A 
HETATM   47  C   UNK N   1      31.220  11.796   2.633  0.00  0.00     0.010 A 
BRANCH  45  48
HETATM   48  O   UNK N   1      33.575  14.562   2.409  0.00  0.00    -0.361 OA
HETATM   49  H   UNK N   1      34.201  14.935   2.999  0.00  0.00     0.217 HD
ENDBRANCH  45  48
ENDBRANCH  41  42
ENDBRANCH  10  41
BRANCH   1  50
HETATM   50  C   UNK N   1      21.946  16.990   5.983  0.00  0.00     0.242 C 
HETATM   51  N   UNK N   1      20.988  16.385   6.731  0.00  0.00    -0.344 N 
HETATM   52  H   UNK N   1      21.314  15.645   7.294  0.00  0.00     0.163 HD
HETATM   53  O   UNK N   1      21.673  17.856   5.172  0.00  0.00    -0.271 OA
BRANCH  51  54
HETATM   54  C   UNK N   1      19.563  16.645   6.842  0.00  0.00     0.204 C 
BRANCH  54  55
HETATM   55  C   UNK N   1      18.943  16.653   8.249  0.00  0.00     0.146 C 
HETATM   56  C   UNK N   1      19.354  17.870   9.062  0.00  0.00     0.042 C 
BRANCH  55  57
HETATM   57  O   UNK N   1      19.188  15.469   8.949  0.00  0.00    -0.393 OA
HETATM   58  H   UNK N   1      19.580  14.724   9.430  0.00  0.00     0.210 HD
ENDBRANCH  55  57
ENDBRANCH  54  55
BRANCH  54  59
HETATM   59  C   UNK N   1      18.870  15.678   5.942  0.00  0.00     0.240 C 
HETATM   60  O   UNK N   1      17.687  15.828   5.688  0.00  0.00    -0.271 OA
HETATM   61  N   UNK N   1      19.564  14.684   5.349  0.00  0.00    -0.368 N 
HETATM   62  H   UNK N   1      20.057  13.835   5.415  0.00  0.00     0.159 HD
HETATM   63  H   UNK N   1      19.588  14.922   4.394  0.00  0.00     0.159 HD
ENDBRANCH  54  59
ENDBRANCH  51  54
ENDBRANCH   1  50
BRANCH  14  64
HETATM   64  C   UNK N   1      24.212   9.348   3.743  0.00  0.00     0.075 C 
BRANCH  64  65
HETATM   65  C   UNK N   1      24.326   8.688   5.105  0.00  0.00    -0.028 A 
HETATM   66  C   UNK N   1      23.366   8.848   6.101  0.00  0.00     0.096 A 
HETATM   67  N   UNK N   1      23.675   8.082   7.171  0.00  0.00    -0.365 N 
HETATM   68  C   UNK N   1      24.821   7.437   6.863  0.00  0.00     0.042 A 
HETATM   69  H   UNK N   1      23.165   8.007   8.010  0.00  0.00     0.165 HD
HETATM   70  C   UNK N   1      25.253   7.794   5.618  0.00  0.00    -0.002 A 
HETATM   71  C   UNK N   1      25.492   6.515   7.653  0.00  0.00     0.030 A 
HETATM   72  C   UNK N   1      26.430   7.244   5.094  0.00  0.00     0.014 A 
HETATM   73  C   UNK N   1      27.139   6.309   5.862  0.00  0.00     0.001 A 
HETATM   74  C   UNK N   1      26.669   5.938   7.138  0.00  0.00     0.002 A 
ENDBRANCH  64  65
ENDBRANCH  14  64
BRANCH  18  75
HETATM   75  C   UNK N   1      24.334  12.161   7.526  0.00  0.00     0.035 C 
BRANCH  75  76
HETATM   76  C   UNK N   1      22.989  12.056   8.221  0.00  0.00     0.004 C 
BRANCH  76  77
HETATM   77  C   UNK N   1      23.068  12.569   9.646  0.00  0.00     0.019 C 
BRANCH  77  78
HETATM   78  C   UNK N   1      24.512  12.851   9.998  0.00  0.00     0.111 C 
BRANCH  78  79
HETATM   79  N   UNK N   1      24.812  12.313  11.313  0.00  0.00    -0.430 N 
HETATM   80  H   UNK N   1      25.467  12.396  12.090  0.00  0.00     0.149 HD
HETATM   81  H   UNK N   1      24.124  11.595  11.538  0.00  0.00     0.149 HD
ENDBRANCH  78  79
ENDBRANCH  77  78
ENDBRANCH  76  77
ENDBRANCH  75  76
ENDBRANCH  18  75
TORSDOF 20
ENDMDL
MODEL 3
REMARK VINA RESULT:      -7.8      3.175      9.646
REMARK  20 active torsions:
REMARK  status: ('A' for Active; 'I' for Inactive)
REMARK    1  A    between atoms: C_2  and  C_3 
REMARK    2  A    between atoms: C_2  and  O_66 
REMARK    3  A    between atoms: C_3  and  C_4 
REMARK    4  A    between atoms: C_3  and  N_7 
REMARK       I    between atoms: C_4  and  N_6 
REMARK       I    between atoms: N_7  and  C_8 
REMARK    5  A    between atoms: C_10  and  C_8 
REMARK    6  A    between atoms: C_15  and  N_54 
REMARK    7  A    between atoms: C_19  and  C_46 
REMARK    8  A    between atoms: C_23  and  C_36 
REMARK    9  A    between atoms: C_27  and  C_31 
REMARK   10  A    between atoms: C_31  and  C_32 
REMARK   11  A    between atoms: C_32  and  C_33 
REMARK   12  A    between atoms: C_33  and  C_34 
REMARK   13  A    between atoms: C_34  and  N_35 
REMARK   14  A    between atoms: C_36  and  C_37 
REMARK   15  A    between atoms: C_46  and  C_47 
REMARK   16  A    between atoms: C_50  and  O_53 
REMARK       I    between atoms: N_54  and  C_55 
REMARK   17  A    between atoms: C_55  and  C_57 
REMARK   18  A    between atoms: C_57  and  C_58 
REMARK   19  A    between atoms: C_57  and  N_65 
REMARK   20  A    between atoms: C_58  and  C_59 
ROOT
HETATM    1  C   UNK N   1      26.796  14.460   5.745  0.00  0.00     0.186 C 
HETATM    2  C   UNK N   1      26.638  13.979   4.300  0.00  0.00     0.120 C 
HETATM    3  S   UNK N   1      26.187  15.303   3.125  0.00  0.00    -0.095 SA
HETATM    4  S   UNK N   1      25.213  14.000   1.772  0.00  0.00    -0.095 SA
HETATM    5  C   UNK N   1      23.897  13.684   2.975  0.00  0.00     0.120 C 
HETATM    6  C   UNK N   1      23.154  12.370   2.774  0.00  0.00     0.186 C 
HETATM    7  C   UNK N   1      22.453  12.229   1.447  0.00  0.00     0.242 C 
HETATM    8  O   UNK N   1      23.084  11.947   0.443  0.00  0.00    -0.271 OA
HETATM    9  N   UNK N   1      21.112  12.389   1.366  0.00  0.00    -0.346 N 
HETATM   10  C   UNK N   1      20.346  12.785   2.524  0.00  0.00     0.180 C 
HETATM   11  C   UNK N   1      19.374  13.846   2.135  0.00  0.00     0.241 C 
HETATM   12  O   UNK N   1      18.444  13.546   1.403  0.00  0.00    -0.271 OA
HETATM   13  N   UNK N   1      19.469  15.129   2.569  0.00  0.00    -0.346 N 
HETATM   14  C   UNK N   1      20.497  15.794   3.362  0.00  0.00     0.181 C 
HETATM   15  C   UNK N   1      21.258  15.063   4.440  0.00  0.00     0.241 C 
HETATM   16  O   UNK N   1      20.878  13.990   4.882  0.00  0.00    -0.271 OA
HETATM   17  N   UNK N   1      22.371  15.653   4.943  0.00  0.00    -0.346 N 
HETATM   18  C   UNK N   1      23.145  15.081   6.025  0.00  0.00     0.176 C 
HETATM   19  C   UNK N   1      24.563  15.559   6.063  0.00  0.00     0.241 C 
HETATM   20  O   UNK N   1      24.869  16.630   5.556  0.00  0.00    -0.271 OA
HETATM   21  N   UNK N   1      25.495  14.624   6.368  0.00  0.00    -0.345 N 
HETATM   22  H   UNK N   1      20.654  12.233   0.509  0.00  0.00     0.163 HD
HETATM   23  H   UNK N   1      18.718  15.707   2.304  0.00  0.00     0.163 HD
HETATM   24  H   UNK N   1      22.666  16.509   4.555  0.00  0.00     0.163 HD
HETATM   25  H   UNK N   1      25.267  13.991   7.086  0.00  0.00     0.163 HD
ENDROOT
BRANCH   6  26
HETATM   26  N   UNK N   1      23.834  11.156   3.197  0.00  0.00    -0.345 N 
HETATM   27  C   UNK N   1      24.338  10.917   4.435  0.00  0.00     0.240 C 
HETATM   28  O   UNK N   1      24.169  11.708   5.347  0.00  0.00    -0.271 OA
HETATM   29  H   UNK N   1      23.938  10.443   2.526  0.00  0.00     0.163 HD
BRANCH  27  30
HETATM   30  C   UNK N   1      25.221   9.721   4.646  0.00  0.00     0.171 C 
BRANCH  30  31
HETATM   31  C   UNK N   1      24.863   8.734   5.767  0.00  0.00     0.072 C 
BRANCH  31  32
HETATM   32  C   UNK N   1      23.720   7.802   5.530  0.00  0.00    -0.056 A 
HETATM   33  C   UNK N   1      22.479   8.097   6.104  0.00  0.00     0.007 A 
HETATM   34  C   UNK N   1      21.382   7.264   5.870  0.00  0.00     0.001 A 
HETATM   35  C   UNK N   1      21.523   6.132   5.063  0.00  0.00     0.000 A 
HETATM   36  C   UNK N   1      22.760   5.840   4.479  0.00  0.00     0.001 A 
HETATM   37  C   UNK N   1      23.856   6.678   4.704  0.00  0.00     0.007 A 
ENDBRANCH  31  32
ENDBRANCH  30  31
BRANCH  30  38
HETATM   38  N   UNK N   1      26.602  10.149   4.784  0.00  0.00    -0.418 N 
HETATM   39  H   UNK N   1      27.251   9.834   5.505  0.00  0.00     0.150 HD
HETATM   40  H   UNK N   1      26.952  10.823   4.104  0.00  0.00     0.150 HD
ENDBRANCH  30  38
ENDBRANCH  27  30
ENDBRANCH   6  26
BRANCH  10  41
HETATM   41  C   UNK N   1      19.606  11.610   3.204  0.00  0.00     0.073 C 
BRANCH  41  42
HETATM   42  C   UNK N   1      19.716  10.343   2.427  0.00  0.00    -0.056 A 
HETATM   43  C   UNK N   1      18.812  10.056   1.399  0.00  0.00     0.010 A 
HETATM   44  C   UNK N   1      18.838   8.802   0.780  0.00  0.00     0.037 A 
HETATM   45  C   UNK N   1      19.761   7.837   1.195  0.00  0.00     0.065 A 
HETATM   46  C   UNK N   1      20.675   8.132   2.208  0.00  0.00     0.037 A 
HETATM   47  C   UNK N   1      20.650   9.382   2.827  0.00  0.00     0.010 A 
BRANCH  45  48
HETATM   48  O   UNK N   1      19.766   6.622   0.624  0.00  0.00    -0.361 OA
HETATM   49  H   UNK N   1      19.981   6.530  -0.284  0.00  0.00     0.217 HD
ENDBRANCH  45  48
ENDBRANCH  41  42
ENDBRANCH  10  41
BRANCH   1  50
HETATM   50  C   UNK N   1      27.805  15.556   5.890  0.00  0.00     0.242 C 
HETATM   51  N   UNK N   1      27.543  16.602   6.713  0.00  0.00    -0.344 N 
HETATM   52  H   UNK N   1      26.667  16.561   7.162  0.00  0.00     0.163 HD
HETATM   53  O   UNK N   1      28.807  15.520   5.198  0.00  0.00    -0.271 OA
BRANCH  51  54
HETATM   54  C   UNK N   1      28.336  17.773   7.046  0.00  0.00     0.204 C 
BRANCH  54  55
HETATM   55  C   UNK N   1      28.558  18.090   8.534  0.00  0.00     0.146 C 
HETATM   56  C   UNK N   1      29.714  17.308   9.134  0.00  0.00     0.042 C 
BRANCH  55  57
HETATM   57  O   UNK N   1      27.394  17.938   9.292  0.00  0.00    -0.393 OA
HETATM   58  H   UNK N   1      26.583  18.068   9.806  0.00  0.00     0.210 HD
ENDBRANCH  55  57
ENDBRANCH  54  55
BRANCH  54  59
HETATM   59  C   UNK N   1      27.735  18.930   6.320  0.00  0.00     0.240 C 
HETATM   60  O   UNK N   1      27.837  19.003   5.107  0.00  0.00    -0.271 OA
HETATM   61  N   UNK N   1      27.015  19.853   6.991  0.00  0.00    -0.368 N 
HETATM   62  H   UNK N   1      26.976  20.598   7.633  0.00  0.00     0.159 HD
HETATM   63  H   UNK N   1      26.085  19.716   6.698  0.00  0.00     0.159 HD
ENDBRANCH  54  59
ENDBRANCH  51  54
ENDBRANCH   1  50
BRANCH  14  64
HETATM   64  C   UNK N   1      19.899  17.072   3.957  0.00  0.00     0.075 C 
BRANCH  64  65
HETATM   65  C   UNK N   1      20.378  18.380   3.354  0.00  0.00    -0.028 A 
HETATM   66  C   UNK N   1      19.514  19.293   2.755  0.00  0.00     0.096 A 
HETATM   67  N   UNK N   1      20.193  20.402   2.386  0.00  0.00    -0.365 N 
HETATM   68  C   UNK N   1      21.480  20.200   2.746  0.00  0.00     0.042 A 
HETATM   69  H   UNK N   1      19.823  21.200   1.944  0.00  0.00     0.165 HD
HETATM   70  C   UNK N   1      21.630  18.973   3.325  0.00  0.00    -0.002 A 
HETATM   71  C   UNK N   1      22.532  21.092   2.593  0.00  0.00     0.030 A 
HETATM   72  C   UNK N   1      22.888  18.554   3.774  0.00  0.00     0.014 A 
HETATM   73  C   UNK N   1      23.979  19.424   3.636  0.00  0.00     0.001 A 
HETATM   74  C   UNK N   1      23.803  20.696   3.053  0.00  0.00     0.002 A 
ENDBRANCH  64  65
ENDBRANCH  14  64
BRANCH  18  75
HETATM   75  C   UNK N   1      22.426  15.016   7.365  0.00  0.00     0.035 C 
BRANCH  75  76
HETATM   76  C   UNK N   1      22.522  13.643   8.005  0.00  0.00     0.004 C 
BRANCH  76  77
HETATM   77  C   UNK N   1      21.433  13.445   9.042  0.00  0.00     0.019 C 
BRANCH  77  78
HETATM   78  C   UNK N   1      21.931  12.506  10.119  0.00  0.00     0.111 C 
BRANCH  78  79
HETATM   79  N   UNK N   1      23.257  12.911  10.550  0.00  0.00    -0.430 N 
HETATM   80  H   UNK N   1      24.137  13.296  10.206  0.00  0.00     0.149 HD
HETATM   81  H   UNK N   1      23.337  12.755  11.554  0.00  0.00     0.149 HD
ENDBRANCH  78  79
ENDBRANCH  77  78
ENDBRANCH  76  77
ENDBRANCH  75  76
ENDBRANCH  18  75
TORSDOF 20
ENDMDL
MODEL 4
REMARK VINA RESULT:      -7.7      2.982      8.888
REMARK  20 active torsions:
REMARK  status: ('A' for Active; 'I' for Inactive)
REMARK    1  A    between atoms: C_2  and  C_3 
REMARK    2  A    between atoms: C_2  and  O_66 
REMARK    3  A    between atoms: C_3  and  C_4 
REMARK    4  A    between atoms: C_3  and  N_7 
REMARK       I    between atoms: C_4  and  N_6 
REMARK       I    between atoms: N_7  and  C_8 
REMARK    5  A    between atoms: C_10  and  C_8 
REMARK    6  A    between atoms: C_15  and  N_54 
REMARK    7  A    between atoms: C_19  and  C_46 
REMARK    8  A    between atoms: C_23  and  C_36 
REMARK    9  A    between atoms: C_27  and  C_31 
REMARK   10  A    between atoms: C_31  and  C_32 
REMARK   11  A    between atoms: C_32  and  C_33 
REMARK   12  A    between atoms: C_33  and  C_34 
REMARK   13  A    between atoms: C_34  and  N_35 
REMARK   14  A    between atoms: C_36  and  C_37 
REMARK   15  A    between atoms: C_46  and  C_47 
REMARK   16  A    between atoms: C_50  and  O_53 
REMARK       I    between atoms: N_54  and  C_55 
REMARK   17  A    between atoms: C_55  and  C_57 
REMARK   18  A    between atoms: C_57  and  C_58 
REMARK   19  A    between atoms: C_57  and  N_65 
REMARK   20  A    between atoms: C_58  and  C_59 
ROOT
HETATM    1  C   UNK N   1      26.650  14.530   5.965  0.00  0.00     0.186 C 
HETATM    2  C   UNK N   1      26.496  13.927   4.565  0.00  0.00     0.120 C 
HETATM    3  S   UNK N   1      25.980  15.133   3.294  0.00  0.00    -0.095 SA
HETATM    4  S   UNK N   1      25.045  13.687   2.065  0.00  0.00    -0.095 SA
HETATM    5  C   UNK N   1      23.755  13.418   3.306  0.00  0.00     0.120 C 
HETATM    6  C   UNK N   1      23.064  12.064   3.223  0.00  0.00     0.186 C 
HETATM    7  C   UNK N   1      22.355  11.788   1.921  0.00  0.00     0.242 C 
HETATM    8  O   UNK N   1      22.987  11.450   0.934  0.00  0.00    -0.271 OA
HETATM    9  N   UNK N   1      21.009  11.887   1.846  0.00  0.00    -0.346 N 
HETATM   10  C   UNK N   1      20.239  12.346   2.979  0.00  0.00     0.180 C 
HETATM   11  C   UNK N   1      19.221  13.332   2.519  0.00  0.00     0.241 C 
HETATM   12  O   UNK N   1      18.297  12.937   1.827  0.00  0.00    -0.271 OA
HETATM   13  N   UNK N   1      19.269  14.649   2.846  0.00  0.00    -0.346 N 
HETATM   14  C   UNK N   1      20.277  15.417   3.568  0.00  0.00     0.181 C 
HETATM   15  C   UNK N   1      21.078  14.806   4.692  0.00  0.00     0.241 C 
HETATM   16  O   UNK N   1      20.746  13.759   5.224  0.00  0.00    -0.271 OA
HETATM   17  N   UNK N   1      22.172  15.479   5.130  0.00  0.00    -0.346 N 
HETATM   18  C   UNK N   1      22.980  15.028   6.244  0.00  0.00     0.176 C 
HETATM   19  C   UNK N   1      24.377  15.562   6.223  0.00  0.00     0.241 C 
HETATM   20  O   UNK N   1      24.634  16.599   5.628  0.00  0.00    -0.271 OA
HETATM   21  N   UNK N   1      25.349  14.693   6.590  0.00  0.00    -0.345 N 
HETATM   22  H   UNK N   1      20.548  11.644   1.011  0.00  0.00     0.163 HD
HETATM   23  H   UNK N   1      18.492  15.174   2.546  0.00  0.00     0.163 HD
HETATM   24  H   UNK N   1      22.427  16.311   4.671  0.00  0.00     0.163 HD
HETATM   25  H   UNK N   1      25.155  14.112   7.360  0.00  0.00     0.163 HD
ENDROOT
BRANCH   6  26
HETATM   26  N   UNK N   1      23.797  10.916   3.733  0.00  0.00    -0.345 N 
HETATM   27  C   UNK N   1      24.339  10.806   4.973  0.00  0.00     0.240 C 
HETATM   28  O   UNK N   1      24.164  11.669   5.816  0.00  0.00    -0.271 OA
HETATM   29  H   UNK N   1      23.910  10.149   3.126  0.00  0.00     0.163 HD
BRANCH  27  30
HETATM   30  C   UNK N   1      25.269   9.663   5.265  0.00  0.00     0.171 C 
BRANCH  30  31
HETATM   31  C   UNK N   1      26.239   9.207   4.164  0.00  0.00     0.072 C 
BRANCH  31  32
HETATM   32  C   UNK N   1      27.325  10.152   3.765  0.00  0.00    -0.056 A 
HETATM   33  C   UNK N   1      27.326  10.669   2.465  0.00  0.00     0.007 A 
HETATM   34  C   UNK N   1      28.307  11.583   2.074  0.00  0.00     0.001 A 
HETATM   35  C   UNK N   1      29.294  11.981   2.980  0.00  0.00     0.000 A 
HETATM   36  C   UNK N   1      29.290  11.474   4.284  0.00  0.00     0.001 A 
HETATM   37  C   UNK N   1      28.302  10.567   4.680  0.00  0.00     0.007 A 
ENDBRANCH  31  32
ENDBRANCH  30  31
BRANCH  30  38
HETATM   38  N   UNK N   1      24.510   8.527   5.757  0.00  0.00    -0.418 N 
HETATM   39  H   UNK N   1      24.586   7.569   5.416  0.00  0.00     0.150 HD
HETATM   40  H   UNK N   1      23.842   8.702   6.508  0.00  0.00     0.150 HD
ENDBRANCH  30  38
ENDBRANCH  27  30
ENDBRANCH   6  26
BRANCH  10  41
HETATM   41  C   UNK N   1      19.555  11.202   3.762  0.00  0.00     0.073 C 
BRANCH  41  42
HETATM   42  C   UNK N   1      19.714   9.879   3.091  0.00  0.00    -0.056 A 
HETATM   43  C   UNK N   1      18.827   9.479   2.086  0.00  0.00     0.010 A 
HETATM   44  C   UNK N   1      18.900   8.180   1.573  0.00  0.00     0.037 A 
HETATM   45  C   UNK N   1      19.853   7.284   2.069  0.00  0.00     0.065 A 
HETATM   46  C   UNK N   1      20.750   7.693   3.058  0.00  0.00     0.037 A 
HETATM   47  C   UNK N   1      20.677   8.987   3.572  0.00  0.00     0.010 A 
BRANCH  45  48
HETATM   48  O   UNK N   1      19.904   6.028   1.600  0.00  0.00    -0.361 OA
HETATM   49  H   UNK N   1      19.346   5.767   0.893  0.00  0.00     0.217 HD
ENDBRANCH  45  48
ENDBRANCH  41  42
ENDBRANCH  10  41
BRANCH   1  50
HETATM   50  C   UNK N   1      27.615  15.673   6.007  0.00  0.00     0.242 C 
HETATM   51  N   UNK N   1      27.319  16.772   6.746  0.00  0.00    -0.344 N 
HETATM   52  H   UNK N   1      26.449  16.733   7.208  0.00  0.00     0.163 HD
HETATM   53  O   UNK N   1      28.611  15.621   5.308  0.00  0.00    -0.271 OA
BRANCH  51  54
HETATM   54  C   UNK N   1      28.068  17.997   6.971  0.00  0.00     0.204 C 
BRANCH  54  55
HETATM   55  C   UNK N   1      28.428  18.360   8.422  0.00  0.00     0.146 C 
HETATM   56  C   UNK N   1      29.743  17.744   8.869  0.00  0.00     0.042 C 
BRANCH  55  57
HETATM   57  O   UNK N   1      27.398  18.066   9.319  0.00  0.00    -0.393 OA
HETATM   58  H   UNK N   1      26.547  17.937   9.765  0.00  0.00     0.210 HD
ENDBRANCH  55  57
ENDBRANCH  54  55
BRANCH  54  59
HETATM   59  C   UNK N   1      27.319  19.098   6.299  0.00  0.00     0.240 C 
HETATM   60  O   UNK N   1      27.047  19.009   5.114  0.00  0.00    -0.271 OA
HETATM   61  N   UNK N   1      26.876  20.154   7.012  0.00  0.00    -0.368 N 
HETATM   62  H   UNK N   1      27.065  20.974   7.522  0.00  0.00     0.159 HD
HETATM   63  H   UNK N   1      25.896  20.057   7.034  0.00  0.00     0.159 HD
ENDBRANCH  54  59
ENDBRANCH  51  54
ENDBRANCH   1  50
BRANCH  14  64
HETATM   64  C   UNK N   1      19.634  16.714   4.067  0.00  0.00     0.075 C 
BRANCH  64  65
HETATM   65  C   UNK N   1      20.030  17.982   3.334  0.00  0.00    -0.028 A 
HETATM   66  C   UNK N   1      19.126  18.733   2.586  0.00  0.00     0.096 A 
HETATM   67  N   UNK N   1      19.725  19.851   2.120  0.00  0.00    -0.365 N 
HETATM   68  C   UNK N   1      21.000  19.817   2.564  0.00  0.00     0.042 A 
HETATM   69  H   UNK N   1      19.313  20.553   1.565  0.00  0.00     0.165 HD
HETATM   70  C   UNK N   1      21.224  18.686   3.295  0.00  0.00    -0.002 A 
HETATM   71  C   UNK N   1      21.976  20.781   2.357  0.00  0.00     0.030 A 
HETATM   72  C   UNK N   1      22.485  18.444   3.853  0.00  0.00     0.014 A 
HETATM   73  C   UNK N   1      23.500  19.393   3.665  0.00  0.00     0.001 A 
HETATM   74  C   UNK N   1      23.247  20.565   2.924  0.00  0.00     0.002 A 
ENDBRANCH  64  65
ENDBRANCH  14  64
BRANCH  18  75
HETATM   75  C   UNK N   1      22.278  15.043   7.595  0.00  0.00     0.035 C 
BRANCH  75  76
HETATM   76  C   UNK N   1      22.371  13.707   8.309  0.00  0.00     0.004 C 
BRANCH  76  77
HETATM   77  C   UNK N   1      21.441  13.660   9.505  0.00  0.00     0.019 C 
BRANCH  77  78
HETATM   78  C   UNK N   1      22.049  12.783  10.578  0.00  0.00     0.111 C 
BRANCH  78  79
HETATM   79  N   UNK N   1      23.495  12.911  10.557  0.00  0.00    -0.430 N 
HETATM   80  H   UNK N   1      24.304  12.841   9.940  0.00  0.00     0.149 HD
HETATM   81  H   UNK N   1      23.816  13.159  11.493  0.00  0.00     0.149 HD
ENDBRANCH  78  79
ENDBRANCH  77  78
ENDBRANCH  76  77
ENDBRANCH  75  76
ENDBRANCH  18  75
TORSDOF 20
ENDMDL
MODEL 5
REMARK VINA RESULT:      -7.5      2.947      7.995
REMARK  20 active torsions:
REMARK  status: ('A' for Active; 'I' for Inactive)
REMARK    1  A    between atoms: C_2  and  C_3 
REMARK    2  A    between atoms: C_2  and  O_66 
REMARK    3  A    between atoms: C_3  and  C_4 
REMARK    4  A    between atoms: C_3  and  N_7 
REMARK       I    between atoms: C_4  and  N_6 
REMARK       I    between atoms: N_7  and  C_8 
REMARK    5  A    between atoms: C_10  and  C_8 
REMARK    6  A    between atoms: C_15  and  N_54 
REMARK    7  A    between atoms: C_19  and  C_46 
REMARK    8  A    between atoms: C_23  and  C_36 
REMARK    9  A    between atoms: C_27  and  C_31 
REMARK   10  A    between atoms: C_31  and  C_32 
REMARK   11  A    between atoms: C_32  and  C_33 
REMARK   12  A    between atoms: C_33  and  C_34 
REMARK   13  A    between atoms: C_34  and  N_35 
REMARK   14  A    between atoms: C_36  and  C_37 
REMARK   15  A    between atoms: C_46  and  C_47 
REMARK   16  A    between atoms: C_50  and  O_53 
REMARK       I    between atoms: N_54  and  C_55 
REMARK   17  A    between atoms: C_55  and  C_57 
REMARK   18  A    between atoms: C_57  and  C_58 
REMARK   19  A    between atoms: C_57  and  N_65 
REMARK   20  A    between atoms: C_58  and  C_59 
ROOT
HETATM    1  C   UNK N   1      27.779  14.978   5.447  0.00  0.00     0.186 C 
HETATM    2  C   UNK N   1      27.556  14.657   3.966  0.00  0.00     0.120 C 
HETATM    3  S   UNK N   1      26.523  15.883   3.091  0.00  0.00    -0.095 SA
HETATM    4  S   UNK N   1      25.817  14.506   1.649  0.00  0.00    -0.095 SA
HETATM    5  C   UNK N   1      24.880  13.612   2.914  0.00  0.00     0.120 C 
HETATM    6  C   UNK N   1      24.576  12.160   2.573  0.00  0.00     0.186 C 
HETATM    7  C   UNK N   1      23.756  11.955   1.325  0.00  0.00     0.242 C 
HETATM    8  O   UNK N   1      24.276  12.033   0.225  0.00  0.00    -0.271 OA
HETATM    9  N   UNK N   1      22.440  11.656   1.418  0.00  0.00    -0.346 N 
HETATM   10  C   UNK N   1      21.782  11.619   2.703  0.00  0.00     0.180 C 
HETATM   11  C   UNK N   1      20.472  12.324   2.608  0.00  0.00     0.241 C 
HETATM   12  O   UNK N   1      19.584  11.818   1.941  0.00  0.00    -0.271 OA
HETATM   13  N   UNK N   1      20.218  13.497   3.242  0.00  0.00    -0.346 N 
HETATM   14  C   UNK N   1      21.090  14.368   4.022  0.00  0.00     0.181 C 
HETATM   15  C   UNK N   1      22.207  13.812   4.871  0.00  0.00     0.241 C 
HETATM   16  O   UNK N   1      22.267  12.628   5.160  0.00  0.00    -0.271 OA
HETATM   17  N   UNK N   1      23.137  14.679   5.344  0.00  0.00    -0.346 N 
HETATM   18  C   UNK N   1      24.215  14.275   6.222  0.00  0.00     0.176 C 
HETATM   19  C   UNK N   1      25.392  15.199   6.187  0.00  0.00     0.241 C 
HETATM   20  O   UNK N   1      25.253  16.365   5.841  0.00  0.00    -0.271 OA
HETATM   21  N   UNK N   1      26.610  14.609   6.225  0.00  0.00    -0.345 N 
HETATM   22  H   UNK N   1      21.926  11.461   0.602  0.00  0.00     0.163 HD
HETATM   23  H   UNK N   1      19.289  13.812   3.164  0.00  0.00     0.163 HD
HETATM   24  H   UNK N   1      23.076  15.625   5.079  0.00  0.00     0.163 HD
HETATM   25  H   UNK N   1      26.715  13.851   6.845  0.00  0.00     0.163 HD
ENDROOT
BRANCH   6  26
HETATM   26  N   UNK N   1      25.668  11.208   2.706  0.00  0.00    -0.345 N 
HETATM   27  C   UNK N   1      26.523  11.120   3.757  0.00  0.00     0.240 C 
HETATM   28  O   UNK N   1      26.371  11.810   4.751  0.00  0.00    -0.271 OA
HETATM   29  H   UNK N   1      25.799  10.569   1.968  0.00  0.00     0.163 HD
BRANCH  27  30
HETATM   30  C   UNK N   1      27.741  10.250   3.637  0.00  0.00     0.171 C 
BRANCH  30  31
HETATM   31  C   UNK N   1      27.840   9.287   2.445  0.00  0.00     0.072 C 
BRANCH  31  32
HETATM   32  C   UNK N   1      28.517   9.783   1.209  0.00  0.00    -0.056 A 
HETATM   33  C   UNK N   1      28.954  11.111   1.166  0.00  0.00     0.007 A 
HETATM   34  C   UNK N   1      29.624  11.593   0.039  0.00  0.00     0.001 A 
HETATM   35  C   UNK N   1      29.856  10.750  -1.051  0.00  0.00     0.000 A 
HETATM   36  C   UNK N   1      29.429   9.418  -1.007  0.00  0.00     0.001 A 
HETATM   37  C   UNK N   1      28.768   8.932   0.125  0.00  0.00     0.007 A 
ENDBRANCH  31  32
ENDBRANCH  30  31
BRANCH  30  38
HETATM   38  N   UNK N   1      27.949   9.525   4.879  0.00  0.00    -0.418 N 
HETATM   39  H   UNK N   1      28.714   8.876   5.066  0.00  0.00     0.150 HD
HETATM   40  H   UNK N   1      27.273   9.676   5.627  0.00  0.00     0.150 HD
ENDBRANCH  30  38
ENDBRANCH  27  30
ENDBRANCH   6  26
BRANCH  10  41
HETATM   41  C   UNK N   1      21.576  10.187   3.248  0.00  0.00     0.073 C 
BRANCH  41  42
HETATM   42  C   UNK N   1      22.784   9.668   3.953  0.00  0.00    -0.056 A 
HETATM   43  C   UNK N   1      23.574   8.670   3.374  0.00  0.00     0.010 A 
HETATM   44  C   UNK N   1      24.613   8.091   4.110  0.00  0.00     0.037 A 
HETATM   45  C   UNK N   1      24.855   8.507   5.424  0.00  0.00     0.065 A 
HETATM   46  C   UNK N   1      24.078   9.518   5.992  0.00  0.00     0.037 A 
HETATM   47  C   UNK N   1      23.040  10.093   5.260  0.00  0.00     0.010 A 
BRANCH  45  48
HETATM   48  O   UNK N   1      25.831   7.932   6.142  0.00  0.00    -0.361 OA
HETATM   49  H   UNK N   1      26.091   8.301   6.963  0.00  0.00     0.217 HD
ENDBRANCH  45  48
ENDBRANCH  41  42
ENDBRANCH  10  41
BRANCH   1  50
HETATM   50  C   UNK N   1      28.392  16.325   5.668  0.00  0.00     0.242 C 
HETATM   51  N   UNK N   1      27.855  17.162   6.591  0.00  0.00    -0.344 N 
HETATM   52  H   UNK N   1      27.063  16.805   7.056  0.00  0.00     0.163 HD
HETATM   53  O   UNK N   1      29.315  16.670   4.950  0.00  0.00    -0.271 OA
BRANCH  51  54
HETATM   54  C   UNK N   1      28.251  18.495   7.011  0.00  0.00     0.204 C 
BRANCH  54  55
HETATM   55  C   UNK N   1      28.559  18.716   8.501  0.00  0.00     0.146 C 
HETATM   56  C   UNK N   1      29.844  18.034   8.940  0.00  0.00     0.042 C 
BRANCH  55  57
HETATM   57  O   UNK N   1      27.488  18.364   9.327  0.00  0.00    -0.393 OA
HETATM   58  H   UNK N   1      26.630  18.276   9.768  0.00  0.00     0.210 HD
ENDBRANCH  55  57
ENDBRANCH  54  55
BRANCH  54  59
HETATM   59  C   UNK N   1      27.203  19.438   6.520  0.00  0.00     0.240 C 
HETATM   60  O   UNK N   1      27.170  20.580   6.945  0.00  0.00    -0.271 OA
HETATM   61  N   UNK N   1      26.343  19.055   5.554  0.00  0.00    -0.368 N 
HETATM   62  H   UNK N   1      25.581  18.503   5.265  0.00  0.00     0.159 HD
HETATM   63  H   UNK N   1      26.599  19.576   4.760  0.00  0.00     0.159 HD
ENDBRANCH  54  59
ENDBRANCH  51  54
ENDBRANCH   1  50
BRANCH  14  64
HETATM   64  C   UNK N   1      20.216  15.280   4.888  0.00  0.00     0.075 C 
BRANCH  64  65
HETATM   65  C   UNK N   1      20.531  16.763   4.829  0.00  0.00    -0.028 A 
HETATM   66  C   UNK N   1      20.999  17.477   5.929  0.00  0.00     0.096 A 
HETATM   67  N   UNK N   1      21.278  18.751   5.572  0.00  0.00    -0.365 N 
HETATM   68  C   UNK N   1      20.992  18.851   4.256  0.00  0.00     0.042 A 
HETATM   69  H   UNK N   1      21.623  19.465   6.156  0.00  0.00     0.165 HD
HETATM   70  C   UNK N   1      20.521  17.663   3.774  0.00  0.00    -0.002 A 
HETATM   71  C   UNK N   1      21.158  19.971   3.454  0.00  0.00     0.030 A 
HETATM   72  C   UNK N   1      20.159  17.540   2.427  0.00  0.00     0.014 A 
HETATM   73  C   UNK N   1      20.310  18.651   1.584  0.00  0.00     0.001 A 
HETATM   74  C   UNK N   1      20.815  19.864   2.093  0.00  0.00     0.002 A 
ENDBRANCH  64  65
ENDBRANCH  14  64
BRANCH  18  75
HETATM   75  C   UNK N   1      23.778  13.801   7.601  0.00  0.00     0.035 C 
BRANCH  75  76
HETATM   76  C   UNK N   1      24.789  12.864   8.236  0.00  0.00     0.004 C 
BRANCH  76  77
HETATM   77  C   UNK N   1      24.123  11.935   9.233  0.00  0.00     0.019 C 
BRANCH  77  78
HETATM   78  C   UNK N   1      24.667  12.213  10.617  0.00  0.00     0.111 C 
BRANCH  78  79
HETATM   79  N   UNK N   1      25.550  13.366  10.577  0.00  0.00    -0.430 N 
HETATM   80  H   UNK N   1      26.285  13.802  10.021  0.00  0.00     0.149 HD
HETATM   81  H   UNK N   1      25.370  13.945  11.397  0.00  0.00     0.149 HD
ENDBRANCH  78  79
ENDBRANCH  77  78
ENDBRANCH  76  77
ENDBRANCH  75  76
ENDBRANCH  18  75
TORSDOF 20
ENDMDL
MODEL 6
REMARK VINA RESULT:      -7.4      1.622      2.544
REMARK  20 active torsions:
REMARK  status: ('A' for Active; 'I' for Inactive)
REMARK    1  A    between atoms: C_2  and  C_3 
REMARK    2  A    between atoms: C_2  and  O_66 
REMARK    3  A    between atoms: C_3  and  C_4 
REMARK    4  A    between atoms: C_3  and  N_7 
REMARK       I    between atoms: C_4  and  N_6 
REMARK       I    between atoms: N_7  and  C_8 
REMARK    5  A    between atoms: C_10  and  C_8 
REMARK    6  A    between atoms: C_15  and  N_54 
REMARK    7  A    between atoms: C_19  and  C_46 
REMARK    8  A    between atoms: C_23  and  C_36 
REMARK    9  A    between atoms: C_27  and  C_31 
REMARK   10  A    between atoms: C_31  and  C_32 
REMARK   11  A    between atoms: C_32  and  C_33 
REMARK   12  A    between atoms: C_33  and  C_34 
REMARK   13  A    between atoms: C_34  and  N_35 
REMARK   14  A    between atoms: C_36  and  C_37 
REMARK   15  A    between atoms: C_46  and  C_47 
REMARK   16  A    between atoms: C_50  and  O_53 
REMARK       I    between atoms: N_54  and  C_55 
REMARK   17  A    between atoms: C_55  and  C_57 
REMARK   18  A    between atoms: C_57  and  C_58 
REMARK   19  A    between atoms: C_57  and  N_65 
REMARK   20  A    between atoms: C_58  and  C_59 
ROOT
HETATM    1  C   UNK N   1      23.379  16.627   5.747  0.00  0.00     0.186 C 
HETATM    2  C   UNK N   1      24.261  16.751   4.501  0.00  0.00     0.120 C 
HETATM    3  S   UNK N   1      23.605  15.871   3.041  0.00  0.00    -0.095 SA
HETATM    4  S   UNK N   1      25.505  15.571   2.160  0.00  0.00    -0.095 SA
HETATM    5  C   UNK N   1      25.974  14.429   3.485  0.00  0.00     0.120 C 
HETATM    6  C   UNK N   1      27.474  14.283   3.698  0.00  0.00     0.186 C 
HETATM    7  C   UNK N   1      28.242  13.768   2.507  0.00  0.00     0.242 C 
HETATM    8  O   UNK N   1      28.515  14.511   1.580  0.00  0.00    -0.271 OA
HETATM    9  N   UNK N   1      28.657  12.481   2.472  0.00  0.00    -0.346 N 
HETATM   10  C   UNK N   1      28.296  11.561   3.525  0.00  0.00     0.180 C 
HETATM   11  C   UNK N   1      27.861  10.268   2.924  0.00  0.00     0.241 C 
HETATM   12  O   UNK N   1      28.695   9.575   2.363  0.00  0.00    -0.271 OA
HETATM   13  N   UNK N   1      26.581   9.820   2.984  0.00  0.00    -0.346 N 
HETATM   14  C   UNK N   1      25.371  10.454   3.497  0.00  0.00     0.181 C 
HETATM   15  C   UNK N   1      25.412  11.385   4.684  0.00  0.00     0.241 C 
HETATM   16  O   UNK N   1      26.380  11.442   5.425  0.00  0.00    -0.271 OA
HETATM   17  N   UNK N   1      24.314  12.143   4.934  0.00  0.00    -0.346 N 
HETATM   18  C   UNK N   1      24.209  13.022   6.080  0.00  0.00     0.176 C 
HETATM   19  C   UNK N   1      23.217  14.128   5.894  0.00  0.00     0.241 C 
HETATM   20  O   UNK N   1      22.298  14.007   5.096  0.00  0.00    -0.271 OA
HETATM   21  N   UNK N   1      23.581  15.338   6.383  0.00  0.00    -0.345 N 
HETATM   22  H   UNK N   1      29.212  12.169   1.722  0.00  0.00     0.163 HD
HETATM   23  H   UNK N   1      26.446   8.916   2.620  0.00  0.00     0.163 HD
HETATM   24  H   UNK N   1      23.555  12.091   4.309  0.00  0.00     0.163 HD
HETATM   25  H   UNK N   1      24.028  15.344   7.260  0.00  0.00     0.163 HD
ENDROOT
BRANCH   6  26
HETATM   26  N   UNK N   1      28.150  15.368   4.393  0.00  0.00    -0.345 N 
HETATM   27  C   UNK N   1      27.822  15.856   5.617  0.00  0.00     0.240 C 
HETATM   28  O   UNK N   1      26.950  15.332   6.289  0.00  0.00    -0.271 OA
HETATM   29  H   UNK N   1      28.915  15.787   3.934  0.00  0.00     0.163 HD
BRANCH  27  30
HETATM   30  C   UNK N   1      28.459  17.131   6.090  0.00  0.00     0.171 C 
BRANCH  30  31
HETATM   31  C   UNK N   1      29.768  17.044   6.889  0.00  0.00     0.072 C 
BRANCH  31  32
HETATM   32  C   UNK N   1      31.049  17.186   6.134  0.00  0.00    -0.056 A 
HETATM   33  C   UNK N   1      30.999  17.443   4.761  0.00  0.00     0.007 A 
HETATM   34  C   UNK N   1      32.179  17.617   4.035  0.00  0.00     0.001 A 
HETATM   35  C   UNK N   1      33.416  17.532   4.681  0.00  0.00     0.000 A 
HETATM   36  C   UNK N   1      33.470  17.286   6.057  0.00  0.00     0.001 A 
HETATM   37  C   UNK N   1      32.288  17.122   6.786  0.00  0.00     0.007 A 
ENDBRANCH  31  32
ENDBRANCH  30  31
BRANCH  30  38
HETATM   38  N   UNK N   1      27.484  17.924   6.819  0.00  0.00    -0.418 N 
HETATM   39  H   UNK N   1      26.733  18.472   6.401  0.00  0.00     0.150 HD
HETATM   40  H   UNK N   1      27.558  17.934   7.836  0.00  0.00     0.150 HD
ENDBRANCH  30  38
ENDBRANCH  27  30
ENDBRANCH   6  26
BRANCH  10  41
HETATM   41  C   UNK N   1      29.431  11.317   4.546  0.00  0.00     0.073 C 
BRANCH  41  42
HETATM   42  C   UNK N   1      30.664  12.091   4.221  0.00  0.00    -0.056 A 
HETATM   43  C   UNK N   1      31.595  11.596   3.303  0.00  0.00     0.010 A 
HETATM   44  C   UNK N   1      32.812  12.260   3.121  0.00  0.00     0.037 A 
HETATM   45  C   UNK N   1      33.098  13.412   3.862  0.00  0.00     0.065 A 
HETATM   46  C   UNK N   1      32.158  13.915   4.763  0.00  0.00     0.037 A 
HETATM   47  C   UNK N   1      30.945  13.252   4.947  0.00  0.00     0.010 A 
BRANCH  45  48
HETATM   48  O   UNK N   1      34.278  14.033   3.712  0.00  0.00    -0.361 OA
HETATM   49  H   UNK N   1      34.911  13.700   3.105  0.00  0.00     0.217 HD
ENDBRANCH  45  48
ENDBRANCH  41  42
ENDBRANCH  10  41
BRANCH   1  50
HETATM   50  C   UNK N   1      21.979  17.106   5.522  0.00  0.00     0.242 C 
HETATM   51  N   UNK N   1      21.719  17.958   4.499  0.00  0.00    -0.344 N 
HETATM   52  H   UNK N   1      22.509  18.214   3.968  0.00  0.00     0.163 HD
HETATM   53  O   UNK N   1      21.117  16.778   6.318  0.00  0.00    -0.271 OA
BRANCH  51  54
HETATM   54  C   UNK N   1      20.472  18.557   4.053  0.00  0.00     0.204 C 
BRANCH  54  55
HETATM   55  C   UNK N   1      19.580  17.735   3.108  0.00  0.00     0.146 C 
HETATM   56  C   UNK N   1      20.370  16.744   2.271  0.00  0.00     0.042 C 
BRANCH  55  57
HETATM   57  O   UNK N   1      18.764  18.540   2.309  0.00  0.00    -0.393 OA
HETATM   58  H   UNK N   1      18.401  19.144   1.644  0.00  0.00     0.210 HD
ENDBRANCH  55  57
ENDBRANCH  54  55
BRANCH  54  59
HETATM   59  C   UNK N   1      20.810  19.889   3.472  0.00  0.00     0.240 C 
HETATM   60  O   UNK N   1      20.227  20.885   3.863  0.00  0.00    -0.271 OA
HETATM   61  N   UNK N   1      21.808  20.004   2.572  0.00  0.00    -0.368 N 
HETATM   62  H   UNK N   1      22.163  19.835   1.669  0.00  0.00     0.159 HD
HETATM   63  H   UNK N   1      22.524  20.489   3.043  0.00  0.00     0.159 HD
ENDBRANCH  54  59
ENDBRANCH  51  54
ENDBRANCH   1  50
BRANCH  14  64
HETATM   64  C   UNK N   1      24.327   9.365   3.758  0.00  0.00     0.075 C 
BRANCH  64  65
HETATM   65  C   UNK N   1      22.947   9.608   3.176  0.00  0.00    -0.028 A 
HETATM   66  C   UNK N   1      22.671   9.485   1.817  0.00  0.00     0.096 A 
HETATM   67  N   UNK N   1      21.351   9.670   1.592  0.00  0.00    -0.365 N 
HETATM   68  C   UNK N   1      20.787   9.910   2.796  0.00  0.00     0.042 A 
HETATM   69  H   UNK N   1      20.891   9.636   0.722  0.00  0.00     0.165 HD
HETATM   70  C   UNK N   1      21.732   9.893   3.781  0.00  0.00    -0.002 A 
HETATM   71  C   UNK N   1      19.440  10.123   3.052  0.00  0.00     0.030 A 
HETATM   72  C   UNK N   1      21.367  10.121   5.113  0.00  0.00     0.014 A 
HETATM   73  C   UNK N   1      20.016  10.343   5.415  0.00  0.00     0.001 A 
HETATM   74  C   UNK N   1      19.050  10.338   4.388  0.00  0.00     0.002 A 
ENDBRANCH  64  65
ENDBRANCH  14  64
BRANCH  18  75
HETATM   75  C   UNK N   1      24.183  12.320   7.430  0.00  0.00     0.035 C 
BRANCH  75  76
HETATM   76  C   UNK N   1      22.773  11.999   7.887  0.00  0.00     0.004 C 
BRANCH  76  77
HETATM   77  C   UNK N   1      22.391  12.821   9.103  0.00  0.00     0.019 C 
BRANCH  77  78
HETATM   78  C   UNK N   1      21.056  13.489   8.857  0.00  0.00     0.111 C 
BRANCH  78  79
HETATM   79  N   UNK N   1      21.211  14.932   8.911  0.00  0.00    -0.430 N 
HETATM   80  H   UNK N   1      20.688  15.805   8.833  0.00  0.00     0.149 HD
HETATM   81  H   UNK N   1      22.190  15.151   9.088  0.00  0.00     0.149 HD
ENDBRANCH  78  79
ENDBRANCH  77  78
ENDBRANCH  76  77
ENDBRANCH  75  76
ENDBRANCH  18  75
TORSDOF 20
ENDMDL
MODEL 7
REMARK VINA RESULT:      -7.4      2.040      3.185
REMARK  20 active torsions:
REMARK  status: ('A' for Active; 'I' for Inactive)
REMARK    1  A    between atoms: C_2  and  C_3 
REMARK    2  A    between atoms: C_2  and  O_66 
REMARK    3  A    between atoms: C_3  and  C_4 
REMARK    4  A    between atoms: C_3  and  N_7 
REMARK       I    between atoms: C_4  and  N_6 
REMARK       I    between atoms: N_7  and  C_8 
REMARK    5  A    between atoms: C_10  and  C_8 
REMARK    6  A    between atoms: C_15  and  N_54 
REMARK    7  A    between atoms: C_19  and  C_46 
REMARK    8  A    between atoms: C_23  and  C_36 
REMARK    9  A    between atoms: C_27  and  C_31 
REMARK   10  A    between atoms: C_31  and  C_32 
REMARK   11  A    between atoms: C_32  and  C_33 
REMARK   12  A    between atoms: C_33  and  C_34 
REMARK   13  A    between atoms: C_34  and  N_35 
REMARK   14  A    between atoms: C_36  and  C_37 
REMARK   15  A    between atoms: C_46  and  C_47 
REMARK   16  A    between atoms: C_50  and  O_53 
REMARK       I    between atoms: N_54  and  C_55 
REMARK   17  A    between atoms: C_55  and  C_57 
REMARK   18  A    between atoms: C_57  and  C_58 
REMARK   19  A    between atoms: C_57  and  N_65 
REMARK   20  A    between atoms: C_58  and  C_59 
ROOT
HETATM    1  C   UNK N   1      23.355  16.584   6.012  0.00  0.00     0.186 C 
HETATM    2  C   UNK N   1      24.134  16.717   4.700  0.00  0.00     0.120 C 
HETATM    3  S   UNK N   1      23.372  15.833   3.296  0.00  0.00    -0.095 SA
HETATM    4  S   UNK N   1      25.199  15.551   2.266  0.00  0.00    -0.095 SA
HETATM    5  C   UNK N   1      25.782  14.412   3.547  0.00  0.00     0.120 C 
HETATM    6  C   UNK N   1      27.296  14.281   3.640  0.00  0.00     0.186 C 
HETATM    7  C   UNK N   1      27.971  13.774   2.391  0.00  0.00     0.242 C 
HETATM    8  O   UNK N   1      28.162  14.521   1.446  0.00  0.00    -0.271 OA
HETATM    9  N   UNK N   1      28.394  12.491   2.321  0.00  0.00    -0.346 N 
HETATM   10  C   UNK N   1      28.126  11.566   3.397  0.00  0.00     0.180 C 
HETATM   11  C   UNK N   1      27.657  10.270   2.830  0.00  0.00     0.241 C 
HETATM   12  O   UNK N   1      28.450   9.586   2.203  0.00  0.00    -0.271 OA
HETATM   13  N   UNK N   1      26.390   9.810   2.991  0.00  0.00    -0.346 N 
HETATM   14  C   UNK N   1      25.219  10.432   3.601  0.00  0.00     0.181 C 
HETATM   15  C   UNK N   1      25.346  11.363   4.782  0.00  0.00     0.241 C 
HETATM   16  O   UNK N   1      26.370  11.428   5.443  0.00  0.00    -0.271 OA
HETATM   17  N   UNK N   1      24.264  12.109   5.120  0.00  0.00    -0.346 N 
HETATM   18  C   UNK N   1      24.243  12.987   6.272  0.00  0.00     0.176 C 
HETATM   19  C   UNK N   1      23.229  14.083   6.168  0.00  0.00     0.241 C 
HETATM   20  O   UNK N   1      22.251  13.954   5.445  0.00  0.00    -0.271 OA
HETATM   21  N   UNK N   1      23.620  15.296   6.628  0.00  0.00    -0.345 N 
HETATM   22  H   UNK N   1      28.890  12.185   1.528  0.00  0.00     0.163 HD
HETATM   23  H   UNK N   1      26.235   8.905   2.638  0.00  0.00     0.163 HD
HETATM   24  H   UNK N   1      23.458  12.051   4.558  0.00  0.00     0.163 HD
HETATM   25  H   UNK N   1      24.135  15.306   7.467  0.00  0.00     0.163 HD
ENDROOT
BRANCH   6  26
HETATM   26  N   UNK N   1      28.015  15.372   4.280  0.00  0.00    -0.345 N 
HETATM   27  C   UNK N   1      27.771  15.864   5.522  0.00  0.00     0.240 C 
HETATM   28  O   UNK N   1      26.950  15.342   6.256  0.00  0.00    -0.271 OA
HETATM   29  H   UNK N   1      28.744  15.790   3.768  0.00  0.00     0.163 HD
BRANCH  27  30
HETATM   30  C   UNK N   1      28.435  17.144   5.943  0.00  0.00     0.171 C 
BRANCH  30  31
HETATM   31  C   UNK N   1      29.739  17.062   6.751  0.00  0.00     0.072 C 
BRANCH  31  32
HETATM   32  C   UNK N   1      31.023  17.259   6.013  0.00  0.00    -0.056 A 
HETATM   33  C   UNK N   1      32.228  17.131   6.710  0.00  0.00     0.007 A 
HETATM   34  C   UNK N   1      33.446  17.273   6.039  0.00  0.00     0.001 A 
HETATM   35  C   UNK N   1      33.461  17.547   4.669  0.00  0.00     0.000 A 
HETATM   36  C   UNK N   1      32.258  17.666   3.967  0.00  0.00     0.001 A 
HETATM   37  C   UNK N   1      31.039  17.514   4.635  0.00  0.00     0.007 A 
ENDBRANCH  31  32
ENDBRANCH  30  31
BRANCH  30  38
HETATM   38  N   UNK N   1      27.476  17.989   6.634  0.00  0.00    -0.418 N 
HETATM   39  H   UNK N   1      26.463  17.947   6.526  0.00  0.00     0.150 HD
HETATM   40  H   UNK N   1      27.848  18.683   7.282  0.00  0.00     0.150 HD
ENDBRANCH  30  38
ENDBRANCH  27  30
ENDBRANCH   6  26
BRANCH  10  41
HETATM   41  C   UNK N   1      29.341  11.332   4.324  0.00  0.00     0.073 C 
BRANCH  41  42
HETATM   42  C   UNK N   1      30.546  12.094   3.885  0.00  0.00    -0.056 A 
HETATM   43  C   UNK N   1      30.913  13.279   4.530  0.00  0.00     0.010 A 
HETATM   44  C   UNK N   1      31.956  14.057   4.015  0.00  0.00     0.037 A 
HETATM   45  C   UNK N   1      32.622  13.651   2.853  0.00  0.00     0.065 A 
HETATM   46  C   UNK N   1      32.266  12.457   2.223  0.00  0.00     0.037 A 
HETATM   47  C   UNK N   1      31.226  11.683   2.735  0.00  0.00     0.010 A 
BRANCH  45  48
HETATM   48  O   UNK N   1      33.601  14.412   2.340  0.00  0.00    -0.361 OA
HETATM   49  H   UNK N   1      33.873  14.292   1.450  0.00  0.00     0.217 HD
ENDBRANCH  45  48
ENDBRANCH  41  42
ENDBRANCH  10  41
BRANCH   1  50
HETATM   50  C   UNK N   1      21.937  17.049   5.901  0.00  0.00     0.242 C 
HETATM   51  N   UNK N   1      20.989  16.503   6.703  0.00  0.00    -0.344 N 
HETATM   52  H   UNK N   1      21.321  15.806   7.315  0.00  0.00     0.163 HD
HETATM   53  O   UNK N   1      21.655  17.854   5.031  0.00  0.00    -0.271 OA
BRANCH  51  54
HETATM   54  C   UNK N   1      19.566  16.774   6.813  0.00  0.00     0.204 C 
BRANCH  54  55
HETATM   55  C   UNK N   1      18.929  16.709   8.211  0.00  0.00     0.146 C 
HETATM   56  C   UNK N   1      19.407  17.826   9.124  0.00  0.00     0.042 C 
BRANCH  55  57
HETATM   57  O   UNK N   1      19.087  15.458   8.814  0.00  0.00    -0.393 OA
HETATM   58  H   UNK N   1      19.296  14.536   9.025  0.00  0.00     0.210 HD
ENDBRANCH  55  57
ENDBRANCH  54  55
BRANCH  54  59
HETATM   59  C   UNK N   1      18.872  15.868   5.851  0.00  0.00     0.240 C 
HETATM   60  O   UNK N   1      17.660  15.749   5.898  0.00  0.00    -0.271 OA
HETATM   61  N   UNK N   1      19.572  15.242   4.882  0.00  0.00    -0.368 N 
HETATM   62  H   UNK N   1      20.229  14.561   4.613  0.00  0.00     0.159 HD
HETATM   63  H   UNK N   1      19.290  15.673   4.042  0.00  0.00     0.159 HD
ENDBRANCH  54  59
ENDBRANCH  51  54
ENDBRANCH   1  50
BRANCH  14  64
HETATM   64  C   UNK N   1      24.209   9.333   3.942  0.00  0.00     0.075 C 
BRANCH  64  65
HETATM   65  C   UNK N   1      22.791   9.550   3.447  0.00  0.00    -0.028 A 
HETATM   66  C   UNK N   1      22.506  10.096   2.198  0.00  0.00     0.096 A 
HETATM   67  N   UNK N   1      21.171  10.092   1.984  0.00  0.00    -0.365 N 
HETATM   68  C   UNK N   1      20.608   9.549   3.085  0.00  0.00     0.042 A 
HETATM   69  H   UNK N   1      20.701  10.420   1.182  0.00  0.00     0.165 HD
HETATM   70  C   UNK N   1      21.564   9.221   4.002  0.00  0.00    -0.002 A 
HETATM   71  C   UNK N   1      19.256   9.314   3.294  0.00  0.00     0.030 A 
HETATM   72  C   UNK N   1      21.202   8.643   5.225  0.00  0.00     0.014 A 
HETATM   73  C   UNK N   1      19.845   8.391   5.477  0.00  0.00     0.001 A 
HETATM   74  C   UNK N   1      18.872   8.718   4.511  0.00  0.00     0.002 A 
ENDBRANCH  64  65
ENDBRANCH  14  64
BRANCH  18  75
HETATM   75  C   UNK N   1      24.331  12.283   7.619  0.00  0.00     0.035 C 
BRANCH  75  76
HETATM   76  C   UNK N   1      23.000  11.699   8.054  0.00  0.00     0.004 C 
BRANCH  76  77
HETATM   77  C   UNK N   1      22.916  11.596   9.564  0.00  0.00     0.019 C 
BRANCH  77  78
HETATM   78  C   UNK N   1      24.206  12.099  10.174  0.00  0.00     0.111 C 
BRANCH  78  79
HETATM   79  N   UNK N   1      23.990  12.442  11.568  0.00  0.00    -0.430 N 
HETATM   80  H   UNK N   1      23.892  12.030  12.496  0.00  0.00     0.149 HD
HETATM   81  H   UNK N   1      23.909  13.455  11.648  0.00  0.00     0.149 HD
ENDBRANCH  78  79
ENDBRANCH  77  78
ENDBRANCH  76  77
ENDBRANCH  75  76
ENDBRANCH  18  75
TORSDOF 20
ENDMDL
MODEL 8
REMARK VINA RESULT:      -7.3      1.835      2.739
REMARK  20 active torsions:
REMARK  status: ('A' for Active; 'I' for Inactive)
REMARK    1  A    between atoms: C_2  and  C_3 
REMARK    2  A    between atoms: C_2  and  O_66 
REMARK    3  A    between atoms: C_3  and  C_4 
REMARK    4  A    between atoms: C_3  and  N_7 
REMARK       I    between atoms: C_4  and  N_6 
REMARK       I    between atoms: N_7  and  C_8 
REMARK    5  A    between atoms: C_10  and  C_8 
REMARK    6  A    between atoms: C_15  and  N_54 
REMARK    7  A    between atoms: C_19  and  C_46 
REMARK    8  A    between atoms: C_23  and  C_36 
REMARK    9  A    between atoms: C_27  and  C_31 
REMARK   10  A    between atoms: C_31  and  C_32 
REMARK   11  A    between atoms: C_32  and  C_33 
REMARK   12  A    between atoms: C_33  and  C_34 
REMARK   13  A    between atoms: C_34  and  N_35 
REMARK   14  A    between atoms: C_36  and  C_37 
REMARK   15  A    between atoms: C_46  and  C_47 
REMARK   16  A    between atoms: C_50  and  O_53 
REMARK       I    between atoms: N_54  and  C_55 
REMARK   17  A    between atoms: C_55  and  C_57 
REMARK   18  A    between atoms: C_57  and  C_58 
REMARK   19  A    between atoms: C_57  and  N_65 
REMARK   20  A    between atoms: C_58  and  C_59 
ROOT
HETATM    1  C   UNK N   1      23.821  16.330   5.822  0.00  0.00     0.186 C 
HETATM    2  C   UNK N   1      24.627  16.432   4.523  0.00  0.00     0.120 C 
HETATM    3  S   UNK N   1      23.832  15.619   3.094  0.00  0.00    -0.095 SA
HETATM    4  S   UNK N   1      25.653  15.237   2.087  0.00  0.00    -0.095 SA
HETATM    5  C   UNK N   1      26.143  14.044   3.358  0.00  0.00     0.120 C 
HETATM    6  C   UNK N   1      27.644  13.816   3.470  0.00  0.00     0.186 C 
HETATM    7  C   UNK N   1      28.304  13.285   2.223  0.00  0.00     0.242 C 
HETATM    8  O   UNK N   1      28.557  14.032   1.293  0.00  0.00    -0.271 OA
HETATM    9  N   UNK N   1      28.647  11.980   2.139  0.00  0.00    -0.346 N 
HETATM   10  C   UNK N   1      28.305  11.058   3.197  0.00  0.00     0.180 C 
HETATM   11  C   UNK N   1      27.763   9.803   2.603  0.00  0.00     0.241 C 
HETATM   12  O   UNK N   1      28.520   9.078   1.977  0.00  0.00    -0.271 OA
HETATM   13  N   UNK N   1      26.467   9.422   2.739  0.00  0.00    -0.346 N 
HETATM   14  C   UNK N   1      25.329  10.107   3.341  0.00  0.00     0.181 C 
HETATM   15  C   UNK N   1      25.496  11.011   4.538  0.00  0.00     0.241 C 
HETATM   16  O   UNK N   1      26.512  11.002   5.215  0.00  0.00    -0.271 OA
HETATM   17  N   UNK N   1      24.459  11.820   4.873  0.00  0.00    -0.346 N 
HETATM   18  C   UNK N   1      24.476  12.680   6.038  0.00  0.00     0.176 C 
HETATM   19  C   UNK N   1      23.535  13.840   5.937  0.00  0.00     0.241 C 
HETATM   20  O   UNK N   1      22.561  13.784   5.198  0.00  0.00    -0.271 OA
HETATM   21  N   UNK N   1      23.994  15.019   6.421  0.00  0.00    -0.345 N 
HETATM   22  H   UNK N   1      29.135  11.654   1.349  0.00  0.00     0.163 HD
HETATM   23  H   UNK N   1      26.260   8.533   2.369  0.00  0.00     0.163 HD
HETATM   24  H   UNK N   1      23.660  11.821   4.298  0.00  0.00     0.163 HD
HETATM   25  H   UNK N   1      24.496  14.983   7.267  0.00  0.00     0.163 HD
ENDROOT
BRANCH   6  26
HETATM   26  N   UNK N   1      28.421  14.849   4.137  0.00  0.00    -0.345 N 
HETATM   27  C   UNK N   1      28.190  15.337   5.383  0.00  0.00     0.240 C 
HETATM   28  O   UNK N   1      27.328  14.857   6.098  0.00  0.00    -0.271 OA
HETATM   29  H   UNK N   1      29.182  15.228   3.641  0.00  0.00     0.163 HD
BRANCH  27  30
HETATM   30  C   UNK N   1      28.927  16.566   5.834  0.00  0.00     0.171 C 
BRANCH  30  31
HETATM   31  C   UNK N   1      28.988  17.773   4.886  0.00  0.00     0.072 C 
BRANCH  31  32
HETATM   32  C   UNK N   1      28.107  18.940   5.195  0.00  0.00    -0.056 A 
HETATM   33  C   UNK N   1      27.960  19.340   6.527  0.00  0.00     0.007 A 
HETATM   34  C   UNK N   1      27.173  20.450   6.844  0.00  0.00     0.001 A 
HETATM   35  C   UNK N   1      26.526  21.161   5.829  0.00  0.00     0.000 A 
HETATM   36  C   UNK N   1      26.678  20.769   4.495  0.00  0.00     0.001 A 
HETATM   37  C   UNK N   1      27.475  19.665   4.176  0.00  0.00     0.007 A 
ENDBRANCH  31  32
ENDBRANCH  30  31
BRANCH  30  38
HETATM   38  N   UNK N   1      30.268  16.204   6.261  0.00  0.00    -0.418 N 
HETATM   39  H   UNK N   1      31.072  16.831   6.286  0.00  0.00     0.150 HD
HETATM   40  H   UNK N   1      30.418  15.241   6.561  0.00  0.00     0.150 HD
ENDBRANCH  30  38
ENDBRANCH  27  30
ENDBRANCH   6  26
BRANCH  10  41
HETATM   41  C   UNK N   1      29.488  10.733   4.137  0.00  0.00     0.073 C 
BRANCH  41  42
HETATM   42  C   UNK N   1      30.715  11.509   3.795  0.00  0.00    -0.056 A 
HETATM   43  C   UNK N   1      31.585  11.062   2.795  0.00  0.00     0.010 A 
HETATM   44  C   UNK N   1      32.803  11.719   2.589  0.00  0.00     0.037 A 
HETATM   45  C   UNK N   1      33.150  12.815   3.387  0.00  0.00     0.065 A 
HETATM   46  C   UNK N   1      32.270  13.271   4.370  0.00  0.00     0.037 A 
HETATM   47  C   UNK N   1      31.057  12.615   4.578  0.00  0.00     0.010 A 
BRANCH  45  48
HETATM   48  O   UNK N   1      34.331  13.426   3.211  0.00  0.00    -0.361 OA
HETATM   49  H   UNK N   1      34.825  13.719   3.953  0.00  0.00     0.217 HD
ENDBRANCH  45  48
ENDBRANCH  41  42
ENDBRANCH  10  41
BRANCH   1  50
HETATM   50  C   UNK N   1      22.438  16.886   5.697  0.00  0.00     0.242 C 
HETATM   51  N   UNK N   1      21.426  16.326   6.407  0.00  0.00    -0.344 N 
HETATM   52  H   UNK N   1      21.691  15.558   6.964  0.00  0.00     0.163 HD
HETATM   53  O   UNK N   1      22.240  17.781   4.895  0.00  0.00    -0.271 OA
BRANCH  51  54
HETATM   54  C   UNK N   1      20.016  16.669   6.485  0.00  0.00     0.204 C 
BRANCH  54  55
HETATM   55  C   UNK N   1      19.301  16.462   7.830  0.00  0.00     0.146 C 
HETATM   56  C   UNK N   1      19.582  17.579   8.821  0.00  0.00     0.042 C 
BRANCH  55  57
HETATM   57  O   UNK N   1      19.564  15.209   8.389  0.00  0.00    -0.393 OA
HETATM   58  H   UNK N   1      19.515  14.311   8.751  0.00  0.00     0.210 HD
ENDBRANCH  55  57
ENDBRANCH  54  55
BRANCH  54  59
HETATM   59  C   UNK N   1      19.327  15.943   5.378  0.00  0.00     0.240 C 
HETATM   60  O   UNK N   1      18.795  14.868   5.599  0.00  0.00    -0.271 OA
HETATM   61  N   UNK N   1      19.225  16.505   4.156  0.00  0.00    -0.368 N 
HETATM   62  H   UNK N   1      19.650  16.801   3.319  0.00  0.00     0.159 HD
HETATM   63  H   UNK N   1      18.271  16.724   4.052  0.00  0.00     0.159 HD
ENDBRANCH  54  59
ENDBRANCH  51  54
ENDBRANCH   1  50
BRANCH  14  64
HETATM   64  C   UNK N   1      24.246   9.070   3.651  0.00  0.00     0.075 C 
BRANCH  64  65
HETATM   65  C   UNK N   1      24.261   8.484   5.051  0.00  0.00    -0.028 A 
HETATM   66  C   UNK N   1      23.215   8.666   5.953  0.00  0.00     0.096 A 
HETATM   67  N   UNK N   1      23.451   7.965   7.085  0.00  0.00    -0.365 N 
HETATM   68  C   UNK N   1      24.636   7.341   6.909  0.00  0.00     0.042 A 
HETATM   69  H   UNK N   1      22.873   7.918   7.880  0.00  0.00     0.165 HD
HETATM   70  C   UNK N   1      25.164   7.646   5.687  0.00  0.00    -0.002 A 
HETATM   71  C   UNK N   1      25.261   6.481   7.801  0.00  0.00     0.030 A 
HETATM   72  C   UNK N   1      26.395   7.107   5.294  0.00  0.00     0.014 A 
HETATM   73  C   UNK N   1      27.060   6.236   6.169  0.00  0.00     0.001 A 
HETATM   74  C   UNK N   1      26.492   5.916   7.419  0.00  0.00     0.002 A 
ENDBRANCH  64  65
ENDBRANCH  14  64
BRANCH  18  75
HETATM   75  C   UNK N   1      24.499  11.952   7.375  0.00  0.00     0.035 C 
BRANCH  75  76
HETATM   76  C   UNK N   1      23.117  11.826   7.988  0.00  0.00     0.004 C 
BRANCH  76  77
HETATM   77  C   UNK N   1      23.195  11.732   9.499  0.00  0.00     0.019 C 
BRANCH  77  78
HETATM   78  C   UNK N   1      23.973  12.914  10.035  0.00  0.00     0.111 C 
BRANCH  78  79
HETATM   79  N   UNK N   1      24.984  12.454  10.971  0.00  0.00    -0.430 N 
HETATM   80  H   UNK N   1      25.954  12.145  11.025  0.00  0.00     0.149 HD
HETATM   81  H   UNK N   1      24.579  12.432  11.906  0.00  0.00     0.149 HD
ENDBRANCH  78  79
ENDBRANCH  77  78
ENDBRANCH  76  77
ENDBRANCH  75  76
ENDBRANCH  18  75
TORSDOF 20
ENDMDL
MODEL 9
REMARK VINA RESULT:      -7.3      2.984      8.234
REMARK  20 active torsions:
REMARK  status: ('A' for Active; 'I' for Inactive)
REMARK    1  A    between atoms: C_2  and  C_3 
REMARK    2  A    between atoms: C_2  and  O_66 
REMARK    3  A    between atoms: C_3  and  C_4 
REMARK    4  A    between atoms: C_3  and  N_7 
REMARK       I    between atoms: C_4  and  N_6 
REMARK       I    between atoms: N_7  and  C_8 
REMARK    5  A    between atoms: C_10  and  C_8 
REMARK    6  A    between atoms: C_15  and  N_54 
REMARK    7  A    between atoms: C_19  and  C_46 
REMARK    8  A    between atoms: C_23  and  C_36 
REMARK    9  A    between atoms: C_27  and  C_31 
REMARK   10  A    between atoms: C_31  and  C_32 
REMARK   11  A    between atoms: C_32  and  C_33 
REMARK   12  A    between atoms: C_33  and  C_34 
REMARK   13  A    between atoms: C_34  and  N_35 
REMARK   14  A    between atoms: C_36  and  C_37 
REMARK   15  A    between atoms: C_46  and  C_47 
REMARK   16  A    between atoms: C_50  and  O_53 
REMARK       I    between atoms: N_54  and  C_55 
REMARK   17  A    between atoms: C_55  and  C_57 
REMARK   18  A    between atoms: C_57  and  C_58 
REMARK   19  A    between atoms: C_57  and  N_65 
REMARK   20  A    between atoms: C_58  and  C_59 
ROOT
HETATM    1  C   UNK N   1      21.534  16.074   4.074  0.00  0.00     0.186 C 
HETATM    2  C   UNK N   1      21.789  15.281   5.359  0.00  0.00     0.120 C 
HETATM    3  S   UNK N   1      23.364  15.698   6.184  0.00  0.00    -0.095 SA
HETATM    4  S   UNK N   1      23.577  13.803   7.102  0.00  0.00    -0.095 SA
HETATM    5  C   UNK N   1      23.843  13.018   5.492  0.00  0.00     0.120 C 
HETATM    6  C   UNK N   1      23.518  11.531   5.448  0.00  0.00     0.186 C 
HETATM    7  C   UNK N   1      24.323  10.673   6.390  0.00  0.00     0.242 C 
HETATM    8  O   UNK N   1      24.044  10.629   7.576  0.00  0.00    -0.271 OA
HETATM    9  N   UNK N   1      25.345   9.923   5.920  0.00  0.00    -0.346 N 
HETATM   10  C   UNK N   1      25.741  10.002   4.533  0.00  0.00     0.180 C 
HETATM   11  C   UNK N   1      27.226  10.078   4.446  0.00  0.00     0.241 C 
HETATM   12  O   UNK N   1      27.881   9.097   4.760  0.00  0.00    -0.271 OA
HETATM   13  N   UNK N   1      27.885  11.186   4.019  0.00  0.00    -0.346 N 
HETATM   14  C   UNK N   1      27.391  12.514   3.669  0.00  0.00     0.181 C 
HETATM   15  C   UNK N   1      26.040  12.708   3.024  0.00  0.00     0.241 C 
HETATM   16  O   UNK N   1      25.426  11.779   2.525  0.00  0.00    -0.271 OA
HETATM   17  N   UNK N   1      25.534  13.966   2.978  0.00  0.00    -0.346 N 
HETATM   18  C   UNK N   1      24.281  14.287   2.326  0.00  0.00     0.176 C 
HETATM   19  C   UNK N   1      23.650  15.545   2.833  0.00  0.00     0.241 C 
HETATM   20  O   UNK N   1      24.334  16.411   3.363  0.00  0.00    -0.271 OA
HETATM   21  N   UNK N   1      22.303  15.517   2.975  0.00  0.00    -0.345 N 
HETATM   22  H   UNK N   1      25.825   9.317   6.529  0.00  0.00     0.163 HD
HETATM   23  H   UNK N   1      28.858  11.076   3.931  0.00  0.00     0.163 HD
HETATM   24  H   UNK N   1      26.042  14.693   3.405  0.00  0.00     0.163 HD
HETATM   25  H   UNK N   1      21.793  15.074   2.260  0.00  0.00     0.163 HD
ENDROOT
BRANCH   6  26
HETATM   26  N   UNK N   1      22.111  11.165   5.396  0.00  0.00    -0.345 N 
HETATM   27  C   UNK N   1      21.466  10.635   4.325  0.00  0.00     0.240 C 
HETATM   28  O   UNK N   1      22.073  10.332   3.312  0.00  0.00    -0.271 OA
HETATM   29  H   UNK N   1      21.578  11.314   6.211  0.00  0.00     0.163 HD
BRANCH  27  30
HETATM   30  C   UNK N   1      19.968  10.538   4.349  0.00  0.00     0.171 C 
BRANCH  30  31
HETATM   31  C   UNK N   1      19.146  11.817   4.131  0.00  0.00     0.072 C 
BRANCH  31  32
HETATM   32  C   UNK N   1      19.092  12.377   2.747  0.00  0.00    -0.056 A 
HETATM   33  C   UNK N   1      19.240  13.756   2.571  0.00  0.00     0.007 A 
HETATM   34  C   UNK N   1      19.232  14.305   1.286  0.00  0.00     0.001 A 
HETATM   35  C   UNK N   1      19.071  13.475   0.173  0.00  0.00     0.000 A 
HETATM   36  C   UNK N   1      18.932  12.094   0.345  0.00  0.00     0.001 A 
HETATM   37  C   UNK N   1      18.952  11.543   1.630  0.00  0.00     0.007 A 
ENDBRANCH  31  32
ENDBRANCH  30  31
BRANCH  30  38
HETATM   38  N   UNK N   1      19.539   9.876   5.570  0.00  0.00    -0.418 N 
HETATM   39  H   UNK N   1      19.558  10.285   6.504  0.00  0.00     0.150 HD
HETATM   40  H   UNK N   1      19.191   8.921   5.486  0.00  0.00     0.150 HD
ENDBRANCH  30  38
ENDBRANCH  27  30
ENDBRANCH   6  26
BRANCH  10  41
HETATM   41  C   UNK N   1      25.218   8.826   3.677  0.00  0.00     0.073 C 
BRANCH  41  42
HETATM   42  C   UNK N   1      24.730   7.688   4.510  0.00  0.00    -0.056 A 
HETATM   43  C   UNK N   1      23.384   7.602   4.880  0.00  0.00     0.010 A 
HETATM   44  C   UNK N   1      22.973   6.614   5.780  0.00  0.00     0.037 A 
HETATM   45  C   UNK N   1      23.909   5.721   6.313  0.00  0.00     0.065 A 
HETATM   46  C   UNK N   1      25.248   5.797   5.927  0.00  0.00     0.037 A 
HETATM   47  C   UNK N   1      25.659   6.783   5.031  0.00  0.00     0.010 A 
BRANCH  45  48
HETATM   48  O   UNK N   1      23.523   4.792   7.202  0.00  0.00    -0.361 OA
HETATM   49  H   UNK N   1      23.931   4.748   8.044  0.00  0.00     0.217 HD
ENDBRANCH  45  48
ENDBRANCH  41  42
ENDBRANCH  10  41
BRANCH   1  50
HETATM   50  C   UNK N   1      21.555  17.555   4.286  0.00  0.00     0.242 C 
HETATM   51  N   UNK N   1      22.175  18.353   3.381  0.00  0.00    -0.344 N 
HETATM   52  H   UNK N   1      22.590  17.872   2.627  0.00  0.00     0.163 HD
HETATM   53  O   UNK N   1      21.081  18.003   5.316  0.00  0.00    -0.271 OA
BRANCH  51  54
HETATM   54  C   UNK N   1      22.331  19.796   3.334  0.00  0.00     0.204 C 
BRANCH  54  55
HETATM   55  C   UNK N   1      21.419  20.585   2.378  0.00  0.00     0.146 C 
HETATM   56  C   UNK N   1      19.951  20.231   2.544  0.00  0.00     0.042 C 
BRANCH  55  57
HETATM   57  O   UNK N   1      21.821  20.477   1.045  0.00  0.00    -0.393 OA
HETATM   58  H   UNK N   1      21.934  20.566   0.086  0.00  0.00     0.210 HD
ENDBRANCH  55  57
ENDBRANCH  54  55
BRANCH  54  59
HETATM   59  C   UNK N   1      23.773  20.073   3.071  0.00  0.00     0.240 C 
HETATM   60  O   UNK N   1      24.091  21.039   2.398  0.00  0.00    -0.271 OA
HETATM   61  N   UNK N   1      24.727  19.305   3.638  0.00  0.00    -0.368 N 
HETATM   62  H   UNK N   1      25.195  18.442   3.703  0.00  0.00     0.159 HD
HETATM   63  H   UNK N   1      25.161  19.885   4.304  0.00  0.00     0.159 HD
ENDBRANCH  54  59
ENDBRANCH  51  54
ENDBRANCH   1  50
BRANCH  14  64
HETATM   64  C   UNK N   1      28.452  13.217   2.819  0.00  0.00     0.075 C 
BRANCH  64  65
HETATM   65  C   UNK N   1      28.875  14.598   3.283  0.00  0.00    -0.028 A 
HETATM   66  C   UNK N   1      28.419  15.767   2.680  0.00  0.00     0.096 A 
HETATM   67  N   UNK N   1      28.884  16.847   3.348  0.00  0.00    -0.365 N 
HETATM   68  C   UNK N   1      29.630  16.373   4.369  0.00  0.00     0.042 A 
HETATM   69  H   UNK N   1      28.711  17.792   3.134  0.00  0.00     0.165 HD
HETATM   70  C   UNK N   1      29.659  15.008   4.351  0.00  0.00    -0.002 A 
HETATM   71  C   UNK N   1      30.277  17.124   5.341  0.00  0.00     0.030 A 
HETATM   72  C   UNK N   1      30.380  14.304   5.323  0.00  0.00     0.014 A 
HETATM   73  C   UNK N   1      31.049  15.025   6.322  0.00  0.00     0.001 A 
HETATM   74  C   UNK N   1      30.995  16.434   6.337  0.00  0.00     0.002 A 
ENDBRANCH  64  65
ENDBRANCH  14  64
BRANCH  18  75
HETATM   75  C   UNK N   1      24.274  14.097   0.816  0.00  0.00     0.035 C 
BRANCH  75  76
HETATM   76  C   UNK N   1      22.925  13.635   0.298  0.00  0.00     0.004 C 
BRANCH  76  77
HETATM   77  C   UNK N   1      22.707  12.161   0.576  0.00  0.00     0.019 C 
BRANCH  77  78
HETATM   78  C   UNK N   1      23.499  11.341  -0.420  0.00  0.00     0.111 C 
BRANCH  78  79
HETATM   79  N   UNK N   1      24.234  10.299   0.275  0.00  0.00    -0.430 N 
HETATM   80  H   UNK N   1      25.060  10.140   0.852  0.00  0.00     0.149 HD
HETATM   81  H   UNK N   1      23.753   9.411   0.137  0.00  0.00     0.149 HD
ENDBRANCH  78  79
ENDBRANCH  77  78
ENDBRANCH  76  77
ENDBRANCH  75  76
ENDBRANCH  18  75
TORSDOF 20
ENDMDL
