REMARK  8 active torsions:
REMARK  status: ('A' for Active; 'I' for Inactive)
REMARK    1  A    between atoms: C_3  and  N_13 
REMARK    2  A    between atoms: C_6  and  S_9 
REMARK    3  A    between atoms: N_13  and  C_14 
REMARK    4  A    between atoms: C_15  and  O_35 
REMARK    5  A    between atoms: C_16  and  O_22 
REMARK    6  A    between atoms: O_22  and  C_23 
REMARK       I    between atoms: N_26  and  C_29 
REMARK    7  A    between atoms: C_29  and  O_31 
REMARK    8  A    between atoms: O_31  and  C_32 
ROOT
HETATM    1  C   UNK N   1       5.440  -3.346   0.961  0.00  0.00     0.145 A 
HETATM    2  C   UNK N   1       6.417  -2.822   0.119  0.00  0.00     0.164 A 
HETATM    3  C   UNK N   1       7.519  -3.644  -0.192  0.00  0.00     0.181 A 
HETATM    4  N   UNK N   1       7.626  -4.865   0.396  0.00  0.00    -0.331 N 
ATOM      5  HN  UNK N   1       8.430  -5.453   0.175  1.00  0.00     0.168 HD
HETATM    6  C   UNK N   1       6.699  -5.321   1.266  0.00  0.00     0.184 A 
HETATM    7  N   UNK N   1       5.600  -4.579   1.517  0.00  0.00    -0.336 N 
ATOM      8  HN  UNK N   1       4.876  -4.948   2.133  1.00  0.00     0.168 HD
ENDROOT
BRANCH   1   9
HETATM    9  N   UNK N   1       4.176  -2.716   1.036  0.00  0.00    -0.338 N 
HETATM   10  H   UNK N   1       4.081  -1.793   1.363  0.00  0.00     0.167 HD
BRANCH   9  11
HETATM   11  C   UNK N   1       3.049  -3.478   0.619  0.00  0.00     0.056 A 
HETATM   12  C   UNK N   1       1.733  -3.044   0.827  0.00  0.00     0.033 A 
HETATM   13  C   UNK N   1       1.455  -1.735   1.481  0.00  0.00     0.070 C 
HETATM   14  N   UNK N   1       0.694  -3.850   0.457  0.00  0.00    -0.349 N 
HETATM   15  C   UNK N   1       0.905  -5.061  -0.138  0.00  0.00     0.128 A 
ATOM     16  HN  UNK N   1      -0.263  -3.540   0.629  1.00  0.00     0.166 HD
HETATM   17  C   UNK N   1       2.193  -5.498  -0.400  0.00  0.00     0.044 A 
HETATM   18  C   UNK N   1       3.253  -4.706  -0.029  0.00  0.00     0.034 A 
BRANCH  15  19
HETATM   19  S   UNK N   1      -0.442  -6.180  -0.454  0.00  0.00     0.187 S 
HETATM   20  O   UNK N   1      -0.625  -6.968   0.851  0.00  0.00    -0.222 OA
HETATM   21  O   UNK N   1       0.121  -7.322  -1.317  0.00  0.00    -0.222 OA
HETATM   22  C   UNK N   1      -2.094  -5.799  -1.085  0.00  0.00     0.168 C 
ENDBRANCH  15  19
ENDBRANCH   9  11
ENDBRANCH   1   9
BRANCH   2  23
HETATM   23  O   UNK N   1       6.225  -1.586  -0.416  0.00  0.00    -0.349 OA
HETATM   24  C   UNK N   1       7.177  -0.862  -1.098  0.00  0.00     0.210 C 
ENDBRANCH   2  23
BRANCH   3  25
HETATM   25  O   UNK N   1       8.422  -3.233  -1.112  0.00  0.00    -0.328 OA
BRANCH  25  26
HETATM   26  C   UNK N   1       9.442  -3.932  -1.741  0.00  0.00     0.133 C 
HETATM   27  C   UNK N   1      10.769  -3.318  -1.332  0.00  0.00     0.052 C 
HETATM   28  C   UNK N   1      11.094  -3.770   0.080  0.00  0.00     0.130 C 
HETATM   29  N   UNK N   1      11.187  -5.210   0.059  0.00  0.00    -0.328 N 
HETATM   30  C   UNK N   1      10.015  -5.978  -0.286  0.00  0.00     0.130 C 
HETATM   31  C   UNK N   1      12.395  -5.800   0.206  0.00  0.00     0.363 C 
HETATM   32  C   UNK N   1       9.449  -5.479  -1.625  0.00  0.00     0.052 C 
HETATM   33  O   UNK N   1      12.502  -7.018   0.115  0.00  0.00    -0.238 OA
BRANCH  31  34
HETATM   34  O   UNK N   1      13.490  -5.020   0.381  0.00  0.00    -0.299 OA
BRANCH  34  35
HETATM   35  C   UNK N   1      14.777  -5.420   0.108  0.00  0.00     0.125 C 
HETATM   36  C   UNK N   1      15.692  -4.223   0.246  0.00  0.00     0.040 C 
HETATM   37  C   UNK N   1      15.235  -6.520   1.045  0.00  0.00     0.040 C 
ENDBRANCH  34  35
ENDBRANCH  31  34
ENDBRANCH  25  26
ENDBRANCH   3  25
TORSDOF 8
