REMARK  9 active torsions:
REMARK  status: ('A' for Active; 'I' for Inactive)
REMARK    1  A    between atoms: C_4  and  N_2 
REMARK    2  A    between atoms: C_12  and  N_31 
REMARK    3  A    between atoms: C_13  and  O_30 
REMARK    4  A    between atoms: C_18  and  O_29 
REMARK    5  A    between atoms: C_19  and  O_28 
REMARK    6  A    between atoms: C_22  and  C_25 
REMARK    7  A    between atoms: C_23  and  O_24 
REMARK       I    between atoms: C_25  and  N_27 
REMARK       I    between atoms: N_31  and  C_32 
REMARK    8  A    between atoms: C_32  and  C_34 
REMARK    9  A    between atoms: C_34  and  N_35 
ROOT
HETATM    1  C   UNK N   1       1.434  -1.672   0.769  0.00  0.00     0.286 C 
HETATM    2  C   UNK N   1       2.645  -2.633   0.623  0.00  0.00     0.075 C 
HETATM    3  C   UNK N   1       4.025  -1.920   0.548  0.00  0.00     0.021 C 
HETATM    4  C   UNK N   1       4.768  -2.318  -0.721  0.00  0.00     0.030 C 
HETATM    5  C   UNK N   1       6.083  -1.553  -0.913  0.00  0.00     0.052 C 
HETATM    6  C   UNK N   1       7.320  -2.266  -0.450  0.00  0.00    -0.002 A 
HETATM    7  C   UNK N   1       8.490  -1.529  -0.176  0.00  0.00     0.126 A 
HETATM    8  C   UNK N   1       9.667  -2.187   0.211  0.00  0.00     0.075 A 
HETATM    9  C   UNK N   1       9.663  -3.580   0.341  0.00  0.00     0.072 A 
HETATM   10  C   UNK N   1       8.495  -4.298   0.100  0.00  0.00     0.107 A 
HETATM   11  C   UNK N   1       7.338  -3.671  -0.328  0.00  0.00     0.059 A 
HETATM   12  C   UNK N   1       6.145  -4.481  -0.642  0.00  0.00     0.194 C 
HETATM   13  O   UNK N   1       6.223  -5.703  -0.718  0.00  0.00    -0.287 OA
HETATM   14  C   UNK N   1       4.847  -3.823  -0.721  0.00  0.00     0.030 C 
HETATM   15  C   UNK N   1       3.693  -4.511  -0.606  0.00  0.00     0.096 C 
HETATM   16  C   UNK N   1       2.413  -3.710  -0.465  0.00  0.00     0.177 C 
HETATM   17  C   UNK N   1       1.207  -4.501  -0.035  0.00  0.00     0.208 C 
HETATM   18  O   UNK N   1       1.220  -5.724  -0.053  0.00  0.00    -0.288 OA
HETATM   19  C   UNK N   1      -0.002  -3.773   0.439  0.00  0.00     0.112 C 
HETATM   20  C   UNK N   1       0.101  -2.452   0.793  0.00  0.00     0.096 C 
HETATM   21  F   UNK N   1       8.495  -0.179  -0.320  0.00  0.00    -0.205 F 
ENDROOT
BRANCH   9  22
HETATM   22  N   UNK N   1      10.833  -4.325   0.607  0.00  0.00    -0.323 N 
HETATM   23  C   UNK N   1      11.237  -5.228  -0.334  0.00  0.00     0.250 C 
HETATM   24  O   UNK N   1      10.853  -5.119  -1.492  0.00  0.00    -0.271 OA
HETATM   25  H   UNK N   1      11.340  -4.198   1.441  0.00  0.00     0.169 HD
BRANCH  23  26
HETATM   26  C   UNK N   1      11.889  -6.507   0.076  0.00  0.00     0.374 C 
BRANCH  26  27
HETATM   27  N   UNK N   1      10.855  -7.440   0.542  0.00  0.00     0.097 N 
HETATM   28  C   UNK N   1      11.466  -8.700   0.924  0.00  0.00     0.273 C 
HETATM   29  C   UNK N   1      10.414  -9.780   0.712  0.00  0.00     0.032 C 
HETATM   30  C   UNK N   1       9.332  -9.129  -0.119  0.00  0.00     0.032 C 
HETATM   31  C   UNK N   1       9.956  -7.824  -0.542  0.00  0.00     0.273 C 
ENDBRANCH  26  27
ENDBRANCH  23  26
ENDBRANCH   9  22
BRANCH  10  32
HETATM   32  O   UNK N   1       8.501  -5.629   0.298  0.00  0.00    -0.357 OA
HETATM   33  H   UNK N   1       7.700  -6.096   0.436  0.00  0.00     0.217 HD
ENDBRANCH  10  32
BRANCH  15  34
HETATM   34  O   UNK N   1       3.696  -5.860  -0.503  0.00  0.00    -0.361 OA
HETATM   35  H   UNK N   1       2.889  -6.329  -0.432  0.00  0.00     0.217 HD
ENDBRANCH  15  34
BRANCH  16  36
HETATM   36  O   UNK N   1       2.132  -3.086  -1.686  0.00  0.00    -0.374 OA
HETATM   37  H   UNK N   1       2.410  -2.702  -2.532  0.00  0.00     0.211 HD
ENDBRANCH  16  36
BRANCH   1  38
HETATM   38  N   UNK N   1       1.443  -0.569  -0.227  0.00  0.00     0.091 N 
HETATM   39  C   UNK N   1       0.239   0.245  -0.137  0.00  0.00     0.310 C 
HETATM   40  C   UNK N   1       2.501   0.380   0.094  0.00  0.00     0.310 C 
ENDBRANCH   1  38
BRANCH  19  41
HETATM   41  C   UNK N   1      -1.311  -4.511   0.538  0.00  0.00     0.255 C 
HETATM   42  O   UNK N   1      -2.324  -3.939   0.905  0.00  0.00    -0.268 OA
HETATM   43  N   UNK N   1      -1.391  -5.815   0.201  0.00  0.00    -0.366 N 
HETATM   44  H   UNK N   1      -2.245  -6.240  -0.045  0.00  0.00     0.159 HD
HETATM   45  H   UNK N   1      -0.571  -6.359   0.201  0.00  0.00     0.159 HD
ENDBRANCH  19  41
BRANCH  20  46
HETATM   46  O   UNK N   1      -0.993  -1.793   1.224  0.00  0.00    -0.362 OA
HETATM   47  H   UNK N   1      -0.977  -0.905   1.523  0.00  0.00     0.217 HD
ENDBRANCH  20  46
TORSDOF 9
