MODEL 1
REMARK VINA RESULT:      -8.2      0.000      0.000
REMARK  5 active torsions:
REMARK  status: ('A' for Active; 'I' for Inactive)
REMARK    1  A    between atoms: C_2  and  O_4 
REMARK    2  A    between atoms: C_5  and  O_4 
REMARK    3  A    between atoms: C_7  and  C_28 
REMARK    4  A    between atoms: C_15  and  C_22 
REMARK    5  A    between atoms: C_28  and  O_30 
ROOT
HETATM    1  C   UNK N   1      20.323  16.936   7.998  0.00  0.00     0.202 C 
HETATM    2  C   UNK N   1      20.582  15.468   8.373  0.00  0.00     0.056 C 
HETATM    3  C   UNK N   1      21.734  14.810   7.595  0.00  0.00     0.097 C 
HETATM    4  C   UNK N   1      21.519  15.000   6.075  0.00  0.00    -0.020 C 
HETATM    5  C   UNK N   1      22.623  14.292   5.249  0.00  0.00     0.011 C 
HETATM    6  C   UNK N   1      22.656  14.650   3.744  0.00  0.00     0.016 C 
HETATM    7  C   UNK N   1      21.550  15.643   3.390  0.00  0.00     0.094 C 
HETATM    8  C   UNK N   1      21.209  15.891   1.949  0.00  0.00     0.264 C 
HETATM    9  O   UNK N   1      21.621  15.137   1.079  0.00  0.00    -0.265 OA
HETATM   10  O   UNK N   1      20.401  16.933   1.610  0.00  0.00    -0.311 OA
HETATM   11  C   UNK N   1      19.853  17.847   2.513  0.00  0.00     0.167 C 
HETATM   12  C   UNK N   1      20.064  17.462   3.995  0.00  0.00     0.048 C 
HETATM   13  C   UNK N   1      21.458  16.889   4.273  0.00  0.00    -0.018 C 
HETATM   14  C   UNK N   1      21.657  16.508   5.766  0.00  0.00     0.076 C 
HETATM   15  C   UNK N   1      21.040  17.459   6.775  0.00  0.00     0.161 C 
HETATM   16  O   UNK N   1      21.141  18.665   6.608  0.00  0.00    -0.295 OA
HETATM   17  C   UNK N   1      22.554  17.889   3.917  0.00  0.00     0.017 C 
HETATM   18  C   UNK N   1      20.141  14.453   5.675  0.00  0.00     0.017 C 
ENDROOT
BRANCH  11  19
HETATM   19  C   UNK N   1      20.373  19.231   2.253  0.00  0.00    -0.005 A 
HETATM   20  C   UNK N   1      20.430  20.276   3.150  0.00  0.00     0.036 A 
HETATM   21  C   UNK N   1      20.953  21.339   2.437  0.00  0.00     0.142 A 
HETATM   22  O   UNK N   1      21.190  20.954   1.200  0.00  0.00    -0.334 OA
HETATM   23  C   UNK N   1      20.855  19.693   1.049  0.00  0.00     0.151 A 
ENDBRANCH  11  19
BRANCH   3  24
HETATM   24  C   UNK N   1      21.887  13.389   8.081  0.00  0.00     0.263 C 
HETATM   25  O   UNK N   1      20.916  12.647   8.166  0.00  0.00    -0.265 OA
BRANCH  24  26
HETATM   26  O   UNK N   1      23.123  12.944   8.415  0.00  0.00    -0.326 OA
HETATM   27  C   UNK N   1      23.592  12.963   9.708  0.00  0.00     0.213 C 
ENDBRANCH  24  26
ENDBRANCH   3  24
BRANCH   1  28
HETATM   28  O   UNK N   1      20.389  17.790   9.086  0.00  0.00    -0.309 OA
BRANCH  28  29
HETATM   29  C   UNK N   1      19.321  18.394   9.669  0.00  0.00     0.255 C 
HETATM   30  C   UNK N   1      17.975  17.769   9.550  0.00  0.00     0.126 C 
HETATM   31  O   UNK N   1      19.451  19.430  10.305  0.00  0.00    -0.266 OA
ENDBRANCH  28  29
ENDBRANCH   1  28
TORSDOF 5
ENDMDL
MODEL 2
REMARK VINA RESULT:      -7.5     11.376     14.315
REMARK  5 active torsions:
REMARK  status: ('A' for Active; 'I' for Inactive)
REMARK    1  A    between atoms: C_2  and  O_4 
REMARK    2  A    between atoms: C_5  and  O_4 
REMARK    3  A    between atoms: C_7  and  C_28 
REMARK    4  A    between atoms: C_15  and  C_22 
REMARK    5  A    between atoms: C_28  and  O_30 
ROOT
HETATM    1  C   UNK N   1      34.665  11.766   8.933  0.00  0.00     0.202 C 
HETATM    2  C   UNK N   1      35.633  11.882  10.121  0.00  0.00     0.056 C 
HETATM    3  C   UNK N   1      35.367  13.088  11.038  0.00  0.00     0.097 C 
HETATM    4  C   UNK N   1      35.306  14.386  10.198  0.00  0.00    -0.020 C 
HETATM    5  C   UNK N   1      35.107  15.636  11.093  0.00  0.00     0.011 C 
HETATM    6  C   UNK N   1      34.759  16.941  10.337  0.00  0.00     0.016 C 
HETATM    7  C   UNK N   1      34.701  16.705   8.829  0.00  0.00     0.094 C 
HETATM    8  C   UNK N   1      34.680  17.880   7.894  0.00  0.00     0.264 C 
HETATM    9  O   UNK N   1      34.960  18.998   8.303  0.00  0.00    -0.265 OA
HETATM   10  O   UNK N   1      34.392  17.698   6.576  0.00  0.00    -0.311 OA
HETATM   11  C   UNK N   1      34.079  16.470   5.989  0.00  0.00     0.167 C 
HETATM   12  C   UNK N   1      34.289  15.259   6.926  0.00  0.00     0.048 C 
HETATM   13  C   UNK N   1      33.839  15.529   8.365  0.00  0.00    -0.018 C 
HETATM   14  C   UNK N   1      34.054  14.304   9.295  0.00  0.00     0.076 C 
HETATM   15  C   UNK N   1      33.761  12.949   8.677  0.00  0.00     0.161 C 
HETATM   16  O   UNK N   1      32.768  12.807   7.979  0.00  0.00    -0.295 OA
HETATM   17  C   UNK N   1      32.356  15.883   8.429  0.00  0.00     0.017 C 
HETATM   18  C   UNK N   1      36.598  14.533   9.380  0.00  0.00     0.017 C 
ENDROOT
BRANCH  11  19
HETATM   19  C   UNK N   1      32.677  16.478   5.451  0.00  0.00    -0.005 A 
HETATM   20  C   UNK N   1      31.826  17.559   5.374  0.00  0.00     0.036 A 
HETATM   21  C   UNK N   1      30.652  17.061   4.840  0.00  0.00     0.142 A 
HETATM   22  O   UNK N   1      30.794  15.771   4.617  0.00  0.00    -0.334 OA
HETATM   23  C   UNK N   1      31.997  15.382   4.970  0.00  0.00     0.151 A 
ENDBRANCH  11  19
BRANCH   3  24
HETATM   24  C   UNK N   1      36.370  13.061  12.165  0.00  0.00     0.263 C 
HETATM   25  O   UNK N   1      37.553  12.831  11.945  0.00  0.00    -0.265 OA
BRANCH  24  26
HETATM   26  O   UNK N   1      35.941  13.304  13.427  0.00  0.00    -0.326 OA
HETATM   27  C   UNK N   1      36.492  14.283  14.220  0.00  0.00     0.213 C 
ENDBRANCH  24  26
ENDBRANCH   3  24
BRANCH   1  28
HETATM   28  O   UNK N   1      34.008  10.547   8.890  0.00  0.00    -0.309 OA
BRANCH  28  29
HETATM   29  C   UNK N   1      33.036  10.156   9.754  0.00  0.00     0.255 C 
HETATM   30  C   UNK N   1      33.409   9.745  11.136  0.00  0.00     0.126 C 
HETATM   31  O   UNK N   1      31.859  10.155   9.422  0.00  0.00    -0.266 OA
ENDBRANCH  28  29
ENDBRANCH   1  28
TORSDOF 5
ENDMDL
MODEL 3
REMARK VINA RESULT:      -7.3      9.146     10.745
REMARK  5 active torsions:
REMARK  status: ('A' for Active; 'I' for Inactive)
REMARK    1  A    between atoms: C_2  and  O_4 
REMARK    2  A    between atoms: C_5  and  O_4 
REMARK    3  A    between atoms: C_7  and  C_28 
REMARK    4  A    between atoms: C_15  and  C_22 
REMARK    5  A    between atoms: C_28  and  O_30 
ROOT
HETATM    1  C   UNK N   1      30.600  17.044   8.390  0.00  0.00     0.202 C 
HETATM    2  C   UNK N   1      32.061  17.264   8.812  0.00  0.00     0.056 C 
HETATM    3  C   UNK N   1      32.986  17.728   7.673  0.00  0.00     0.097 C 
HETATM    4  C   UNK N   1      32.859  16.767   6.468  0.00  0.00    -0.020 C 
HETATM    5  C   UNK N   1      33.826  17.160   5.321  0.00  0.00     0.011 C 
HETATM    6  C   UNK N   1      33.584  16.437   3.974  0.00  0.00     0.016 C 
HETATM    7  C   UNK N   1      32.418  15.455   4.079  0.00  0.00     0.094 C 
HETATM    8  C   UNK N   1      32.204  14.438   2.995  0.00  0.00     0.264 C 
HETATM    9  O   UNK N   1      33.082  14.222   2.171  0.00  0.00    -0.265 OA
HETATM   10  O   UNK N   1      31.049  13.721   2.952  0.00  0.00    -0.311 OA
HETATM   11  C   UNK N   1      29.986  13.862   3.847  0.00  0.00     0.167 C 
HETATM   12  C   UNK N   1      30.304  14.774   5.054  0.00  0.00     0.048 C 
HETATM   13  C   UNK N   1      31.122  16.012   4.671  0.00  0.00    -0.018 C 
HETATM   14  C   UNK N   1      31.433  16.919   5.893  0.00  0.00     0.076 C 
HETATM   15  C   UNK N   1      30.313  17.065   6.907  0.00  0.00     0.161 C 
HETATM   16  O   UNK N   1      29.165  17.221   6.519  0.00  0.00    -0.295 OA
HETATM   17  C   UNK N   1      30.384  16.874   3.650  0.00  0.00     0.017 C 
HETATM   18  C   UNK N   1      33.148  15.328   6.920  0.00  0.00     0.017 C 
ENDROOT
BRANCH  11  19
HETATM   19  C   UNK N   1      28.752  14.344   3.139  0.00  0.00    -0.005 A 
HETATM   20  C   UNK N   1      27.565  14.736   3.718  0.00  0.00     0.036 A 
HETATM   21  C   UNK N   1      26.734  15.060   2.661  0.00  0.00     0.142 A 
HETATM   22  O   UNK N   1      27.383  14.874   1.531  0.00  0.00    -0.334 OA
HETATM   23  C   UNK N   1      28.599  14.444   1.774  0.00  0.00     0.151 A 
ENDBRANCH  11  19
BRANCH   3  24
HETATM   24  C   UNK N   1      34.372  17.925   8.236  0.00  0.00     0.263 C 
HETATM   25  O   UNK N   1      34.922  19.018   8.177  0.00  0.00    -0.265 OA
BRANCH  24  26
HETATM   26  O   UNK N   1      34.997  16.873   8.817  0.00  0.00    -0.326 OA
HETATM   27  C   UNK N   1      35.253  16.818  10.167  0.00  0.00     0.213 C 
ENDBRANCH  24  26
ENDBRANCH   3  24
BRANCH   1  28
HETATM   28  O   UNK N   1      29.705  17.790   9.138  0.00  0.00    -0.309 OA
BRANCH  28  29
HETATM   29  C   UNK N   1      28.674  17.276   9.858  0.00  0.00     0.255 C 
HETATM   30  C   UNK N   1      28.960  16.321  10.964  0.00  0.00     0.126 C 
HETATM   31  O   UNK N   1      27.519  17.601   9.627  0.00  0.00    -0.266 OA
ENDBRANCH  28  29
ENDBRANCH   1  28
TORSDOF 5
ENDMDL
MODEL 4
REMARK VINA RESULT:      -7.0     14.420     16.216
REMARK  5 active torsions:
REMARK  status: ('A' for Active; 'I' for Inactive)
REMARK    1  A    between atoms: C_2  and  O_4 
REMARK    2  A    between atoms: C_5  and  O_4 
REMARK    3  A    between atoms: C_7  and  C_28 
REMARK    4  A    between atoms: C_15  and  C_22 
REMARK    5  A    between atoms: C_28  and  O_30 
ROOT
HETATM    1  C   UNK N   1      28.074  22.017  -7.459  0.00  0.00     0.202 C 
HETATM    2  C   UNK N   1      29.338  21.151  -7.345  0.00  0.00     0.056 C 
HETATM    3  C   UNK N   1      29.936  21.089  -5.929  0.00  0.00     0.097 C 
HETATM    4  C   UNK N   1      30.152  22.521  -5.385  0.00  0.00    -0.020 C 
HETATM    5  C   UNK N   1      30.818  22.505  -3.985  0.00  0.00     0.011 C 
HETATM    6  C   UNK N   1      30.824  23.862  -3.240  0.00  0.00     0.016 C 
HETATM    7  C   UNK N   1      30.165  24.954  -4.081  0.00  0.00     0.094 C 
HETATM    8  C   UNK N   1      30.330  26.394  -3.689  0.00  0.00     0.264 C 
HETATM    9  O   UNK N   1      31.179  26.716  -2.868  0.00  0.00    -0.265 OA
HETATM   10  O   UNK N   1      29.566  27.353  -4.278  0.00  0.00    -0.311 OA
HETATM   11  C   UNK N   1      28.583  27.112  -5.241  0.00  0.00     0.167 C 
HETATM   12  C   UNK N   1      28.562  25.657  -5.760  0.00  0.00     0.048 C 
HETATM   13  C   UNK N   1      28.785  24.622  -4.653  0.00  0.00    -0.018 C 
HETATM   14  C   UNK N   1      28.761  23.164  -5.188  0.00  0.00     0.076 C 
HETATM   15  C   UNK N   1      27.730  22.875  -6.265  0.00  0.00     0.161 C 
HETATM   16  O   UNK N   1      26.600  23.326  -6.154  0.00  0.00    -0.295 OA
HETATM   17  C   UNK N   1      27.711  24.719  -3.573  0.00  0.00     0.017 C 
HETATM   18  C   UNK N   1      31.024  23.320  -6.365  0.00  0.00     0.017 C 
ENDROOT
BRANCH  11  19
HETATM   19  C   UNK N   1      27.227  27.504  -4.729  0.00  0.00    -0.005 A 
HETATM   20  C   UNK N   1      26.023  27.366  -5.385  0.00  0.00     0.036 A 
HETATM   21  C   UNK N   1      25.078  27.894  -4.524  0.00  0.00     0.142 A 
HETATM   22  O   UNK N   1      25.678  28.317  -3.432  0.00  0.00    -0.334 OA
HETATM   23  C   UNK N   1      26.971  28.101  -3.515  0.00  0.00     0.151 A 
ENDBRANCH  11  19
BRANCH   3  24
HETATM   24  C   UNK N   1      31.148  20.190  -5.962  0.00  0.00     0.263 C 
HETATM   25  O   UNK N   1      31.581  19.683  -4.935  0.00  0.00    -0.265 OA
BRANCH  24  26
HETATM   26  O   UNK N   1      31.746  19.946  -7.154  0.00  0.00    -0.326 OA
HETATM   27  C   UNK N   1      33.035  20.338  -7.429  0.00  0.00     0.213 C 
ENDBRANCH  24  26
ENDBRANCH   3  24
BRANCH   1  28
HETATM   28  O   UNK N   1      26.991  21.324  -7.974  0.00  0.00    -0.309 OA
BRANCH  28  29
HETATM   29  C   UNK N   1      26.362  21.618  -9.141  0.00  0.00     0.255 C 
HETATM   30  C   UNK N   1      27.070  21.384 -10.431  0.00  0.00     0.126 C 
HETATM   31  O   UNK N   1      25.219  22.050  -9.152  0.00  0.00    -0.266 OA
ENDBRANCH  28  29
ENDBRANCH   1  28
TORSDOF 5
ENDMDL
MODEL 5
REMARK VINA RESULT:      -7.0     10.822     14.062
REMARK  5 active torsions:
REMARK  status: ('A' for Active; 'I' for Inactive)
REMARK    1  A    between atoms: C_2  and  O_4 
REMARK    2  A    between atoms: C_5  and  O_4 
REMARK    3  A    between atoms: C_7  and  C_28 
REMARK    4  A    between atoms: C_15  and  C_22 
REMARK    5  A    between atoms: C_28  and  O_30 
ROOT
HETATM    1  C   UNK N   1      31.204  16.980   8.289  0.00  0.00     0.202 C 
HETATM    2  C   UNK N   1      31.167  17.359   6.800  0.00  0.00     0.056 C 
HETATM    3  C   UNK N   1      31.668  16.255   5.853  0.00  0.00     0.097 C 
HETATM    4  C   UNK N   1      33.066  15.770   6.302  0.00  0.00    -0.020 C 
HETATM    5  C   UNK N   1      33.637  14.703   5.334  0.00  0.00     0.011 C 
HETATM    6  C   UNK N   1      34.897  13.958   5.839  0.00  0.00     0.016 C 
HETATM    7  C   UNK N   1      35.319  14.463   7.218  0.00  0.00     0.094 C 
HETATM    8  C   UNK N   1      36.672  14.101   7.759  0.00  0.00     0.264 C 
HETATM    9  O   UNK N   1      37.524  13.627   7.021  0.00  0.00    -0.265 OA
HETATM   10  O   UNK N   1      36.970  14.340   9.065  0.00  0.00    -0.311 OA
HETATM   11  C   UNK N   1      36.090  14.895   9.997  0.00  0.00     0.167 C 
HETATM   12  C   UNK N   1      34.779  15.428   9.376  0.00  0.00     0.048 C 
HETATM   13  C   UNK N   1      34.220  14.515   8.281  0.00  0.00    -0.018 C 
HETATM   14  C   UNK N   1      32.902  15.062   7.667  0.00  0.00     0.076 C 
HETATM   15  C   UNK N   1      31.938  15.709   8.646  0.00  0.00     0.161 C 
HETATM   16  O   UNK N   1      31.738  15.183   9.731  0.00  0.00    -0.295 OA
HETATM   17  C   UNK N   1      33.916  13.119   8.818  0.00  0.00     0.017 C 
HETATM   18  C   UNK N   1      34.027  16.965   6.384  0.00  0.00     0.017 C 
ENDROOT
BRANCH  11  19
HETATM   19  C   UNK N   1      35.789  13.916  11.095  0.00  0.00    -0.005 A 
HETATM   20  C   UNK N   1      36.371  12.682  11.287  0.00  0.00     0.036 A 
HETATM   21  C   UNK N   1      35.744  12.153  12.401  0.00  0.00     0.142 A 
HETATM   22  O   UNK N   1      34.850  13.013  12.840  0.00  0.00    -0.334 OA
HETATM   23  C   UNK N   1      34.846  14.087  12.084  0.00  0.00     0.151 A 
ENDBRANCH  11  19
BRANCH   3  24
HETATM   24  C   UNK N   1      31.551  16.756   4.434  0.00  0.00     0.263 C 
HETATM   25  O   UNK N   1      31.945  17.875   4.130  0.00  0.00    -0.265 OA
BRANCH  24  26
HETATM   26  O   UNK N   1      31.011  15.940   3.497  0.00  0.00    -0.326 OA
HETATM   27  C   UNK N   1      29.815  16.215   2.877  0.00  0.00     0.213 C 
ENDBRANCH  24  26
ENDBRANCH   3  24
BRANCH   1  28
HETATM   28  O   UNK N   1      29.970  17.099   8.906  0.00  0.00    -0.309 OA
BRANCH  28  29
HETATM   29  C   UNK N   1      29.375  18.274   9.237  0.00  0.00     0.255 C 
HETATM   30  C   UNK N   1      28.228  18.766   8.424  0.00  0.00     0.126 C 
HETATM   31  O   UNK N   1      29.751  18.922  10.203  0.00  0.00    -0.266 OA
ENDBRANCH  28  29
ENDBRANCH   1  28
TORSDOF 5
ENDMDL
MODEL 6
REMARK VINA RESULT:      -7.0      8.497     10.711
REMARK  5 active torsions:
REMARK  status: ('A' for Active; 'I' for Inactive)
REMARK    1  A    between atoms: C_2  and  O_4 
REMARK    2  A    between atoms: C_5  and  O_4 
REMARK    3  A    between atoms: C_7  and  C_28 
REMARK    4  A    between atoms: C_15  and  C_22 
REMARK    5  A    between atoms: C_28  and  O_30 
ROOT
HETATM    1  C   UNK N   1      28.126  18.072   5.273  0.00  0.00     0.202 C 
HETATM    2  C   UNK N   1      27.399  17.294   4.165  0.00  0.00     0.056 C 
HETATM    3  C   UNK N   1      27.686  15.782   4.160  0.00  0.00     0.097 C 
HETATM    4  C   UNK N   1      29.213  15.536   4.148  0.00  0.00    -0.020 C 
HETATM    5  C   UNK N   1      29.546  14.024   4.074  0.00  0.00     0.011 C 
HETATM    6  C   UNK N   1      31.028  13.660   4.334  0.00  0.00     0.016 C 
HETATM    7  C   UNK N   1      31.863  14.911   4.600  0.00  0.00     0.094 C 
HETATM    8  C   UNK N   1      33.362  14.821   4.576  0.00  0.00     0.264 C 
HETATM    9  O   UNK N   1      33.913  13.836   4.105  0.00  0.00    -0.265 OA
HETATM   10  O   UNK N   1      34.114  15.857   5.038  0.00  0.00    -0.311 OA
HETATM   11  C   UNK N   1      33.602  17.039   5.578  0.00  0.00     0.167 C 
HETATM   12  C   UNK N   1      32.071  17.184   5.420  0.00  0.00     0.048 C 
HETATM   13  C   UNK N   1      31.317  15.872   5.658  0.00  0.00    -0.018 C 
HETATM   14  C   UNK N   1      29.780  16.032   5.497  0.00  0.00     0.076 C 
HETATM   15  C   UNK N   1      29.193  17.324   6.037  0.00  0.00     0.161 C 
HETATM   16  O   UNK N   1      29.574  17.755   7.115  0.00  0.00    -0.295 OA
HETATM   17  C   UNK N   1      31.565  15.332   7.063  0.00  0.00     0.017 C 
HETATM   18  C   UNK N   1      29.845  16.265   2.953  0.00  0.00     0.017 C 
ENDROOT
BRANCH  11  19
HETATM   19  C   UNK N   1      33.995  17.182   7.020  0.00  0.00    -0.005 A 
HETATM   20  C   UNK N   1      34.715  16.282   7.775  0.00  0.00     0.036 A 
HETATM   21  C   UNK N   1      34.791  16.844   9.036  0.00  0.00     0.142 A 
HETATM   22  O   UNK N   1      34.159  17.999   9.032  0.00  0.00    -0.334 OA
HETATM   23  C   UNK N   1      33.666  18.239   7.838  0.00  0.00     0.151 A 
ENDBRANCH  11  19
BRANCH   3  24
HETATM   24  C   UNK N   1      26.892  15.150   3.044  0.00  0.00     0.263 C 
HETATM   25  O   UNK N   1      26.769  15.715   1.964  0.00  0.00    -0.265 OA
BRANCH  24  26
HETATM   26  O   UNK N   1      26.322  13.939   3.253  0.00  0.00    -0.326 OA
HETATM   27  C   UNK N   1      26.303  12.954   2.293  0.00  0.00     0.213 C 
ENDBRANCH  24  26
ENDBRANCH   3  24
BRANCH   1  28
HETATM   28  O   UNK N   1      27.262  18.788   6.085  0.00  0.00    -0.309 OA
BRANCH  28  29
HETATM   29  C   UNK N   1      26.773  20.023   5.803  0.00  0.00     0.255 C 
HETATM   30  C   UNK N   1      27.556  21.226   6.196  0.00  0.00     0.126 C 
HETATM   31  O   UNK N   1      25.710  20.162   5.214  0.00  0.00    -0.266 OA
ENDBRANCH  28  29
ENDBRANCH   1  28
TORSDOF 5
ENDMDL
MODEL 7
REMARK VINA RESULT:      -7.0     14.412     16.255
REMARK  5 active torsions:
REMARK  status: ('A' for Active; 'I' for Inactive)
REMARK    1  A    between atoms: C_2  and  O_4 
REMARK    2  A    between atoms: C_5  and  O_4 
REMARK    3  A    between atoms: C_7  and  C_28 
REMARK    4  A    between atoms: C_15  and  C_22 
REMARK    5  A    between atoms: C_28  and  O_30 
ROOT
HETATM    1  C   UNK N   1      30.962  22.040  -5.175  0.00  0.00     0.202 C 
HETATM    2  C   UNK N   1      31.376  21.056  -6.280  0.00  0.00     0.056 C 
HETATM    3  C   UNK N   1      31.105  21.558  -7.709  0.00  0.00     0.097 C 
HETATM    4  C   UNK N   1      29.630  22.004  -7.839  0.00  0.00    -0.020 C 
HETATM    5  C   UNK N   1      29.296  22.455  -9.285  0.00  0.00     0.011 C 
HETATM    6  C   UNK N   1      27.936  23.175  -9.456  0.00  0.00     0.016 C 
HETATM    7  C   UNK N   1      27.195  23.274  -8.124  0.00  0.00     0.094 C 
HETATM    8  C   UNK N   1      25.743  23.656  -8.109  0.00  0.00     0.264 C 
HETATM    9  O   UNK N   1      25.091  23.644  -9.145  0.00  0.00    -0.265 OA
HETATM   10  O   UNK N   1      25.134  23.977  -6.935  0.00  0.00    -0.311 OA
HETATM   11  C   UNK N   1      25.765  24.006  -5.689  0.00  0.00     0.167 C 
HETATM   12  C   UNK N   1      27.199  23.430  -5.703  0.00  0.00     0.048 C 
HETATM   13  C   UNK N   1      27.996  23.836  -6.948  0.00  0.00    -0.018 C 
HETATM   14  C   UNK N   1      29.435  23.252  -6.948  0.00  0.00     0.076 C 
HETATM   15  C   UNK N   1      30.137  23.232  -5.603  0.00  0.00     0.161 C 
HETATM   16  O   UNK N   1      30.051  24.200  -4.863  0.00  0.00    -0.295 OA
HETATM   17  C   UNK N   1      28.129  25.353  -7.056  0.00  0.00     0.017 C 
HETATM   18  C   UNK N   1      28.702  20.852  -7.428  0.00  0.00     0.017 C 
ENDROOT
BRANCH  11  19
HETATM   19  C   UNK N   1      25.765  25.396  -5.123  0.00  0.00    -0.005 A 
HETATM   20  C   UNK N   1      25.126  26.501  -5.642  0.00  0.00     0.036 A 
HETATM   21  C   UNK N   1      25.447  27.542  -4.789  0.00  0.00     0.142 A 
HETATM   22  O   UNK N   1      26.224  27.087  -3.829  0.00  0.00    -0.334 OA
HETATM   23  C   UNK N   1      26.439  25.801  -3.993  0.00  0.00     0.151 A 
ENDBRANCH  11  19
BRANCH   3  24
HETATM   24  C   UNK N   1      31.580  20.507  -8.682  0.00  0.00     0.263 C 
HETATM   25  O   UNK N   1      32.093  20.825  -9.747  0.00  0.00    -0.265 OA
BRANCH  24  26
HETATM   26  O   UNK N   1      31.438  19.201  -8.351  0.00  0.00    -0.326 OA
HETATM   27  C   UNK N   1      30.759  18.306  -9.145  0.00  0.00     0.213 C 
ENDBRANCH  24  26
ENDBRANCH   3  24
BRANCH   1  28
HETATM   28  O   UNK N   1      32.006  22.366  -4.325  0.00  0.00    -0.309 OA
BRANCH  28  29
HETATM   29  C   UNK N   1      32.169  21.875  -3.069  0.00  0.00     0.255 C 
HETATM   30  C   UNK N   1      33.326  20.984  -2.778  0.00  0.00     0.126 C 
HETATM   31  O   UNK N   1      31.395  22.170  -2.170  0.00  0.00    -0.266 OA
ENDBRANCH  28  29
ENDBRANCH   1  28
TORSDOF 5
ENDMDL
MODEL 8
REMARK VINA RESULT:      -6.7     14.038     17.754
REMARK  5 active torsions:
REMARK  status: ('A' for Active; 'I' for Inactive)
REMARK    1  A    between atoms: C_2  and  O_4 
REMARK    2  A    between atoms: C_5  and  O_4 
REMARK    3  A    between atoms: C_7  and  C_28 
REMARK    4  A    between atoms: C_15  and  C_22 
REMARK    5  A    between atoms: C_28  and  O_30 
ROOT
HETATM    1  C   UNK N   1      35.356  14.596  10.092  0.00  0.00     0.202 C 
HETATM    2  C   UNK N   1      35.698  13.938   8.747  0.00  0.00     0.056 C 
HETATM    3  C   UNK N   1      35.383  12.434   8.680  0.00  0.00     0.097 C 
HETATM    4  C   UNK N   1      36.039  11.704   9.877  0.00  0.00    -0.020 C 
HETATM    5  C   UNK N   1      35.803  10.174   9.811  0.00  0.00     0.011 C 
HETATM    6  C   UNK N   1      36.177   9.391  11.093  0.00  0.00     0.016 C 
HETATM    7  C   UNK N   1      36.725  10.327  12.169  0.00  0.00     0.094 C 
HETATM    8  C   UNK N   1      37.425   9.752  13.366  0.00  0.00     0.264 C 
HETATM    9  O   UNK N   1      37.779   8.581  13.370  0.00  0.00    -0.265 OA
HETATM   10  O   UNK N   1      37.707  10.544  14.436  0.00  0.00    -0.311 OA
HETATM   11  C   UNK N   1      37.373  11.897  14.540  0.00  0.00     0.167 C 
HETATM   12  C   UNK N   1      36.827  12.506  13.229  0.00  0.00     0.048 C 
HETATM   13  C   UNK N   1      35.880  11.564  12.479  0.00  0.00    -0.018 C 
HETATM   14  C   UNK N   1      35.337  12.189  11.165  0.00  0.00     0.076 C 
HETATM   15  C   UNK N   1      35.000  13.668  11.230  0.00  0.00     0.161 C 
HETATM   16  O   UNK N   1      34.415  14.111  12.207  0.00  0.00    -0.295 OA
HETATM   17  C   UNK N   1      34.669  11.194  13.332  0.00  0.00     0.017 C 
HETATM   18  C   UNK N   1      37.547  11.997   9.897  0.00  0.00     0.017 C 
ENDROOT
BRANCH  11  19
HETATM   19  C   UNK N   1      36.405  12.123  15.666  0.00  0.00    -0.005 A 
HETATM   20  C   UNK N   1      35.764  13.301  15.982  0.00  0.00     0.036 A 
HETATM   21  C   UNK N   1      35.010  13.014  17.105  0.00  0.00     0.142 A 
HETATM   22  O   UNK N   1      35.190  11.752  17.434  0.00  0.00    -0.334 OA
HETATM   23  C   UNK N   1      36.022  11.181  16.594  0.00  0.00     0.151 A 
ENDBRANCH  11  19
BRANCH   3  24
HETATM   24  C   UNK N   1      35.745  11.931   7.304  0.00  0.00     0.263 C 
HETATM   25  O   UNK N   1      36.782  12.290   6.758  0.00  0.00    -0.265 OA
BRANCH  24  26
HETATM   26  O   UNK N   1      34.906  11.067   6.684  0.00  0.00    -0.326 OA
HETATM   27  C   UNK N   1      33.538  11.158   6.790  0.00  0.00     0.213 C 
ENDBRANCH  24  26
ENDBRANCH   3  24
BRANCH   1  28
HETATM   28  O   UNK N   1      34.491  15.670   9.962  0.00  0.00    -0.309 OA
BRANCH  28  29
HETATM   29  C   UNK N   1      34.862  16.934   9.634  0.00  0.00     0.255 C 
HETATM   30  C   UNK N   1      34.269  17.579   8.430  0.00  0.00     0.126 C 
HETATM   31  O   UNK N   1      35.657  17.558  10.321  0.00  0.00    -0.266 OA
ENDBRANCH  28  29
ENDBRANCH   1  28
TORSDOF 5
ENDMDL
MODEL 9
REMARK VINA RESULT:      -6.6      2.324      5.813
REMARK  5 active torsions:
REMARK  status: ('A' for Active; 'I' for Inactive)
REMARK    1  A    between atoms: C_2  and  O_4 
REMARK    2  A    between atoms: C_5  and  O_4 
REMARK    3  A    between atoms: C_7  and  C_28 
REMARK    4  A    between atoms: C_15  and  C_22 
REMARK    5  A    between atoms: C_28  and  O_30 
ROOT
HETATM    1  C   UNK N   1      21.139  13.901   8.703  0.00  0.00     0.202 C 
HETATM    2  C   UNK N   1      20.741  15.343   9.058  0.00  0.00     0.056 C 
HETATM    3  C   UNK N   1      19.764  15.992   8.063  0.00  0.00     0.097 C 
HETATM    4  C   UNK N   1      20.321  15.872   6.624  0.00  0.00    -0.020 C 
HETATM    5  C   UNK N   1      19.398  16.576   5.596  0.00  0.00     0.011 C 
HETATM    6  C   UNK N   1      19.717  16.278   4.110  0.00  0.00     0.016 C 
HETATM    7  C   UNK N   1      20.916  15.339   3.982  0.00  0.00     0.094 C 
HETATM    8  C   UNK N   1      21.580  15.162   2.647  0.00  0.00     0.264 C 
HETATM    9  O   UNK N   1      21.340  15.937   1.731  0.00  0.00    -0.265 OA
HETATM   10  O   UNK N   1      22.486  14.164   2.464  0.00  0.00    -0.311 OA
HETATM   11  C   UNK N   1      22.858  13.233   3.437  0.00  0.00     0.167 C 
HETATM   12  C   UNK N   1      22.306  13.549   4.845  0.00  0.00     0.048 C 
HETATM   13  C   UNK N   1      20.862  14.062   4.822  0.00  0.00    -0.018 C 
HETATM   14  C   UNK N   1      20.320  14.374   6.244  0.00  0.00     0.076 C 
HETATM   15  C   UNK N   1      20.736  13.404   7.335  0.00  0.00     0.161 C 
HETATM   16  O   UNK N   1      20.726  12.203   7.110  0.00  0.00    -0.295 OA
HETATM   17  C   UNK N   1      19.916  13.040   4.197  0.00  0.00     0.017 C 
HETATM   18  C   UNK N   1      21.729  16.482   6.561  0.00  0.00     0.017 C 
ENDROOT
BRANCH  11  19
HETATM   19  C   UNK N   1      22.468  11.843   3.022  0.00  0.00    -0.005 A 
HETATM   20  C   UNK N   1      22.534  10.701   3.790  0.00  0.00     0.036 A 
HETATM   21  C   UNK N   1      22.100   9.681   2.964  0.00  0.00     0.142 A 
HETATM   22  O   UNK N   1      21.797  10.182   1.785  0.00  0.00    -0.334 OA
HETATM   23  C   UNK N   1      22.004  11.479   1.778  0.00  0.00     0.151 A 
ENDBRANCH  11  19
BRANCH   3  24
HETATM   24  C   UNK N   1      19.446  17.386   8.548  0.00  0.00     0.263 C 
HETATM   25  O   UNK N   1      20.249  18.299   8.402  0.00  0.00    -0.265 OA
BRANCH  24  26
HETATM   26  O   UNK N   1      18.249  17.611   9.142  0.00  0.00    -0.326 OA
HETATM   27  C   UNK N   1      17.070  17.106   8.646  0.00  0.00     0.213 C 
ENDBRANCH  24  26
ENDBRANCH   3  24
BRANCH   1  28
HETATM   28  O   UNK N   1      20.868  13.002   9.721  0.00  0.00    -0.309 OA
BRANCH  28  29
HETATM   29  C   UNK N   1      21.784  12.525  10.603  0.00  0.00     0.255 C 
HETATM   30  C   UNK N   1      23.235  12.676  10.303  0.00  0.00     0.126 C 
HETATM   31  O   UNK N   1      21.438  11.993  11.648  0.00  0.00    -0.266 OA
ENDBRANCH  28  29
ENDBRANCH   1  28
TORSDOF 5
ENDMDL
