REMARK  9 active torsions:
REMARK  status: ('A' for Active; 'I' for Inactive)
REMARK    1  A    between atoms: C_2  and  C_3 
REMARK    2  A    between atoms: C_3  and  C_4 
REMARK    3  A    between atoms: C_4  and  C_5 
REMARK    4  A    between atoms: C_4  and  N_9 
REMARK       I    between atoms: N_9  and  C_10 
REMARK    5  A    between atoms: N_9  and  N_20 
REMARK    6  A    between atoms: C_10  and  C_12 
REMARK       I    between atoms: N_20  and  C_21 
REMARK    7  A    between atoms: C_21  and  C_23 
REMARK    8  A    between atoms: C_27  and  O_31 
REMARK    9  A    between atoms: C_28  and  C_29 
ROOT
HETATM    1  N   UNK N   1       2.835  -3.292  -0.116  0.00  0.00    -0.248 N 
HETATM    2  C   UNK N   1       3.843  -4.214  -0.303  0.00  0.00     0.272 C 
HETATM    3  O   UNK N   1       4.941  -3.860  -0.689  0.00  0.00    -0.266 OA
ENDROOT
BRANCH   1   4
HETATM    4  C   UNK N   1       3.039  -1.853  -0.491  0.00  0.00     0.119 C 
BRANCH   4   5
HETATM    5  C   UNK N   1       1.752  -1.030  -0.752  0.00  0.00     0.028 C 
BRANCH   5   6
HETATM    6  C   UNK N   1       1.039  -0.507   0.486  0.00  0.00    -0.002 C 
HETATM    7  C   UNK N   1       0.293   0.760   0.117  0.00  0.00     0.005 C 
ENDBRANCH   5   6
ENDBRANCH   4   5
BRANCH   4   8
HETATM    8  C   UNK N   1       4.106  -0.988   0.280  0.00  0.00    -0.029 C 
HETATM    9  C   UNK N   1       3.715  -0.752   1.726  0.00  0.00     0.016 C 
HETATM   10  C   UNK N   1       4.232   0.367  -0.409  0.00  0.00     0.016 C 
HETATM   11  C   UNK N   1       5.512  -1.539   0.287  0.00  0.00     0.016 C 
ENDBRANCH   4   8
ENDBRANCH   1   4
BRANCH   1  12
HETATM   12  N   UNK N   1       1.615  -3.769   0.339  0.00  0.00    -0.260 N 
HETATM   13  C   UNK N   1       0.476  -3.709  -0.397  0.00  0.00     0.270 C 
HETATM   14  O   UNK N   1       0.496  -3.193  -1.500  0.00  0.00    -0.266 OA
HETATM   15  H   UNK N   1       1.573  -4.170   1.237  0.00  0.00     0.190 HD
BRANCH  13  16
HETATM   16  C   UNK N   1      -0.744  -4.447   0.006  0.00  0.00     0.042 A 
HETATM   17  C   UNK N   1      -0.607  -5.756   0.480  0.00  0.00     0.018 A 
HETATM   18  C   UNK N   1      -1.725  -6.553   0.707  0.00  0.00     0.004 A 
HETATM   19  C   UNK N   1      -2.999  -6.047   0.471  0.00  0.00     0.037 A 
HETATM   20  C   UNK N   1      -3.185  -4.728   0.042  0.00  0.00     0.075 A 
HETATM   21  C   UNK N   1      -2.041  -3.906  -0.194  0.00  0.00    -0.009 A 
BRANCH  20  22
HETATM   22  O   UNK N   1      -4.472  -4.318  -0.128  0.00  0.00    -0.355 OA
HETATM   23  C   UNK N   1      -4.891  -3.092  -0.589  0.00  0.00     0.210 C 
ENDBRANCH  20  22
BRANCH  21  24
HETATM   24  C   UNK N   1      -2.183  -2.449  -0.557  0.00  0.00     0.038 C 
HETATM   25  C   UNK N   1      -1.994  -2.172  -2.033  0.00  0.00     0.010 C 
ENDBRANCH  21  24
ENDBRANCH  13  16
ENDBRANCH   1  12
BRANCH   2  26
HETATM   26  C   UNK N   1       3.629  -5.686  -0.118  0.00  0.00     0.034 A 
HETATM   27  C   UNK N   1       4.720  -6.507   0.207  0.00  0.00     0.024 A 
HETATM   28  C   UNK N   1       4.556  -7.890   0.329  0.00  0.00    -0.061 A 
HETATM   29  C   UNK N   1       3.316  -8.475   0.071  0.00  0.00     0.013 A 
HETATM   30  C   UNK N   1       5.706  -8.742   0.724  0.00  0.00     0.048 C 
HETATM   31  C   UNK N   1       2.231  -7.677  -0.287  0.00  0.00    -0.061 A 
HETATM   32  C   UNK N   1       2.384  -6.289  -0.368  0.00  0.00     0.024 A 
HETATM   33  C   UNK N   1       0.927  -8.309  -0.619  0.00  0.00     0.048 C 
ENDBRANCH   2  26
TORSDOF 9
