REMARK  5 active torsions:
REMARK  status: ('A' for Active; 'I' for Inactive)
REMARK    1  A    between atoms: C_2  and  O_4 
REMARK    2  A    between atoms: C_5  and  O_4 
REMARK    3  A    between atoms: C_7  and  C_28 
REMARK    4  A    between atoms: C_15  and  C_22 
REMARK    5  A    between atoms: C_28  and  O_30 
ROOT
HETATM    1  C   UNK N   1       1.540  -1.971   0.922  0.00  0.00     0.202 C 
HETATM    2  C   UNK N   1       0.907  -0.571   0.954  0.00  0.00     0.056 C 
HETATM    3  C   UNK N   1       1.454   0.395  -0.111  0.00  0.00     0.097 C 
HETATM    4  C   UNK N   1       2.998   0.445  -0.034  0.00  0.00    -0.020 C 
HETATM    5  C   UNK N   1       3.587   1.460  -1.047  0.00  0.00     0.011 C 
HETATM    6  C   UNK N   1       5.121   1.385  -1.242  0.00  0.00     0.016 C 
HETATM    7  C   UNK N   1       5.736   0.303  -0.356  0.00  0.00     0.094 C 
HETATM    8  C   UNK N   1       7.224   0.262  -0.160  0.00  0.00     0.264 C 
HETATM    9  O   UNK N   1       7.916   1.216  -0.488  0.00  0.00    -0.265 OA
HETATM   10  O   UNK N   1       7.805  -0.821   0.425  0.00  0.00    -0.311 OA
HETATM   11  C   UNK N   1       7.120  -1.958   0.860  0.00  0.00     0.167 C 
HETATM   12  C   UNK N   1       5.582  -1.813   0.819  0.00  0.00     0.048 C 
HETATM   13  C   UNK N   1       5.082  -1.078  -0.429  0.00  0.00    -0.018 C 
HETATM   14  C   UNK N   1       3.535  -0.941  -0.458  0.00  0.00     0.076 C 
HETATM   15  C   UNK N   1       2.758  -2.144   0.045  0.00  0.00     0.161 C 
HETATM   16  O   UNK N   1       3.110  -3.268  -0.280  0.00  0.00    -0.295 OA
HETATM   17  C   UNK N   1       5.490  -1.806  -1.707  0.00  0.00     0.017 C 
HETATM   18  C   UNK N   1       3.433   0.821   1.390  0.00  0.00     0.017 C 
ENDROOT
BRANCH  11  19
HETATM   19  C   UNK N   1       7.552  -3.170   0.086  0.00  0.00    -0.005 A 
HETATM   20  C   UNK N   1       8.454  -3.209  -0.955  0.00  0.00     0.036 A 
HETATM   21  C   UNK N   1       8.493  -4.533  -1.353  0.00  0.00     0.142 A 
HETATM   22  O   UNK N   1       7.670  -5.233  -0.601  0.00  0.00    -0.334 OA
HETATM   23  C   UNK N   1       7.085  -4.451   0.277  0.00  0.00     0.151 A 
ENDBRANCH  11  19
BRANCH   3  24
HETATM   24  C   UNK N   1       0.729   1.712   0.023  0.00  0.00     0.263 C 
HETATM   25  O   UNK N   1       1.344   2.745   0.258  0.00  0.00    -0.265 OA
BRANCH  24  26
HETATM   26  O   UNK N   1      -0.617   1.734  -0.131  0.00  0.00    -0.326 OA
HETATM   27  C   UNK N   1      -1.354   2.891  -0.034  0.00  0.00     0.213 C 
ENDBRANCH  24  26
ENDBRANCH   3  24
BRANCH   1  28
HETATM   28  O   UNK N   1       0.605  -2.982   0.777  0.00  0.00    -0.309 OA
BRANCH  28  29
HETATM   29  C   UNK N   1      -0.266  -3.095  -0.259  0.00  0.00     0.255 C 
HETATM   30  C   UNK N   1      -1.169  -4.277  -0.328  0.00  0.00     0.126 C 
HETATM   31  O   UNK N   1      -0.335  -2.233  -1.123  0.00  0.00    -0.266 OA
ENDBRANCH  28  29
ENDBRANCH   1  28
TORSDOF 5
