REMARK  15 active torsions:
REMARK  status: ('A' for Active; 'I' for Inactive)
REMARK    1  A    between atoms: C_2  and  C_1 
REMARK    2  A    between atoms: C_6  and  C_1 
REMARK    3  A    between atoms: C_7  and  C_2 
REMARK    4  A    between atoms: C_14  and  C_6 
REMARK    5  A    between atoms: C_15  and  C_7 
REMARK    6  A    between atoms: C_16  and  C_12 
REMARK    7  A    between atoms: C_19  and  C_12 
REMARK    8  A    between atoms: C_17  and  C_13 
REMARK    9  A    between atoms: C_20  and  C_13 
REMARK   10  A    between atoms: N_23  and  C_14 
REMARK   11  A    between atoms: N_24  and  C_15 
REMARK   12  A    between atoms: N_23  and  C_16 
REMARK   13  A    between atoms: N_24  and  C_17 
REMARK   14  A    between atoms: O_25  and  C_21 
REMARK   15  A    between atoms: O_26  and  C_22 
ROOT
HETATM    1  C   UNK N   1       1.799   3.424  -0.414  0.00  0.00     0.019 C 
ENDROOT
BRANCH   1   2
HETATM    2  C   UNK N   1       1.652   2.403   0.702  0.00  0.00     0.002 C 
BRANCH   2   3
HETATM    3  C   UNK N   1       2.961   1.677   0.924  0.00  0.00     0.002 C 
BRANCH   3   4
HETATM    4  C   UNK N   1       3.090   0.553  -0.088  0.00  0.00     0.019 C 
BRANCH   4   5
HETATM    5  C   UNK N   1       4.376   0.697  -0.878  0.00  0.00     0.113 C 
BRANCH   5   6
HETATM    6  N   UNK N   1       5.507   0.261  -0.078  0.00  0.00    -0.421 N 
HETATM    7  H   UNK N   1       5.699  -0.689   0.241  0.00  0.00     0.153 HD
BRANCH   6   8
HETATM    8  C   UNK N   1       6.308   1.442   0.180  0.00  0.00     0.118 C 
BRANCH   8   9
HETATM    9  C   UNK N   1       7.784   1.084   0.108  0.00  0.00     0.057 C 
BRANCH   9  10
HETATM   10  C   UNK N   1       8.686   2.283   0.061  0.00  0.00    -0.057 A 
HETATM   11  C   UNK N   1       8.179   3.594   0.072  0.00  0.00     0.007 A 
HETATM   12  C   UNK N   1       9.050   4.686   0.020  0.00  0.00     0.001 A 
HETATM   13  C   UNK N   1      10.429   4.477  -0.044  0.00  0.00     0.000 A 
HETATM   14  C   UNK N   1      10.939   3.175  -0.056  0.00  0.00     0.001 A 
HETATM   15  C   UNK N   1      10.068   2.082  -0.004  0.00  0.00     0.007 A 
ENDBRANCH   9  10
ENDBRANCH   8   9
ENDBRANCH   6   8
ENDBRANCH   5   6
ENDBRANCH   4   5
ENDBRANCH   3   4
ENDBRANCH   2   3
ENDBRANCH   1   2
BRANCH   1  16
HETATM   16  C   UNK N   1       0.438   3.917  -0.876  0.00  0.00     0.113 C 
BRANCH  16  17
HETATM   17  N   UNK N   1      -0.291   4.549   0.219  0.00  0.00    -0.421 N 
HETATM   18  H   UNK N   1      -0.096   5.467   0.620  0.00  0.00     0.153 HD
BRANCH  17  19
HETATM   19  C   UNK N   1      -1.347   3.635   0.639  0.00  0.00     0.118 C 
BRANCH  19  20
HETATM   20  C   UNK N   1      -2.465   3.626  -0.393  0.00  0.00     0.058 C 
BRANCH  20  21
HETATM   21  C   UNK N   1      -3.420   2.501  -0.179  0.00  0.00    -0.054 A 
HETATM   22  C   UNK N   1      -4.780   2.778  -0.018  0.00  0.00     0.010 A 
HETATM   23  C   UNK N   1      -5.697   1.732   0.121  0.00  0.00     0.040 A 
HETATM   24  C   UNK N   1      -5.257   0.406   0.097  0.00  0.00     0.098 A 
HETATM   25  C   UNK N   1      -3.893   0.123  -0.058  0.00  0.00     0.099 A 
HETATM   26  C   UNK N   1      -2.977   1.171  -0.202  0.00  0.00     0.046 A 
BRANCH  24  27
HETATM   27  O   UNK N   1      -6.148  -0.593   0.221  0.00  0.00    -0.358 OA
HETATM   28  H   UNK N   1      -7.062  -0.404   0.307  0.00  0.00     0.217 HD
ENDBRANCH  24  27
BRANCH  25  29
HETATM   29  O   UNK N   1      -3.460  -1.148  -0.078  0.00  0.00    -0.358 OA
HETATM   30  H   UNK N   1      -4.077  -1.853  -0.091  0.00  0.00     0.217 HD
ENDBRANCH  25  29
ENDBRANCH  20  21
ENDBRANCH  19  20
ENDBRANCH  17  19
ENDBRANCH  16  17
ENDBRANCH   1  16
TORSDOF 15
