MODEL 1
REMARK VINA RESULT:      -7.7      0.000      0.000
REMARK  13 active torsions:
REMARK  status: ('A' for Active; 'I' for Inactive)
REMARK    1  A    between atoms: C_2  and  O_4 
REMARK    2  A    between atoms: O_4  and  C_5 
REMARK    3  A    between atoms: C_5  and  C_7 
REMARK    4  A    between atoms: C_7  and  C_8 
REMARK    5  A    between atoms: C_8  and  C_9 
REMARK    6  A    between atoms: C_10  and  C_9 
REMARK    7  A    between atoms: C_16  and  O_32 
REMARK    8  A    between atoms: C_17  and  C_18 
REMARK    9  A    between atoms: C_19  and  C_20 
REMARK   10  A    between atoms: C_20  and  C_21 
REMARK   11  A    between atoms: C_20  and  O_31 
REMARK   12  A    between atoms: C_21  and  O_22 
REMARK   13  A    between atoms: O_22  and  C_23 
ROOT
HETATM    1  C   UNK N   1      35.436  13.649  10.171  0.00  0.00     0.009 C 
HETATM    2  C   UNK N   1      34.302  14.586  10.584  0.00  0.00     0.007 C 
HETATM    3  C   UNK N   1      34.187  15.861   9.775  0.00  0.00     0.008 C 
HETATM    4  C   UNK N   1      33.919  15.533   8.319  0.00  0.00     0.025 C 
HETATM    5  C   UNK N   1      35.223  15.417   7.573  0.00  0.00     0.128 C 
HETATM    6  C   UNK N   1      34.783  15.495   6.124  0.00  0.00     0.064 C 
HETATM    7  C   UNK N   1      33.609  16.475   6.100  0.00  0.00     0.128 C 
HETATM    8  C   UNK N   1      33.053  16.513   7.534  0.00  0.00     0.043 C 
HETATM    9  O   UNK N   1      35.825  14.173   7.839  0.00  0.00    -0.385 OA
HETATM   10  C   UNK N   1      36.402  14.240   9.122  0.00  0.00     0.172 C 
ENDROOT
BRANCH   8  11
HETATM   11  C   UNK N   1      32.870  17.899   8.122  0.00  0.00    -0.021 C 
HETATM   12  C   UNK N   1      31.690  18.335   8.601  0.00  0.00     0.003 C 
BRANCH  12  13
HETATM   13  C   UNK N   1      30.472  17.454   8.644  0.00  0.00     0.165 C 
BRANCH  13  14
HETATM   14  C   UNK N   1      29.177  18.213   8.453  0.00  0.00     0.211 C 
BRANCH  14  15
HETATM   15  O   UNK N   1      28.561  17.838   7.285  0.00  0.00    -0.345 OA
BRANCH  15  16
HETATM   16  C   UNK N   1      28.048  18.701   6.377  0.00  0.00     0.110 A 
HETATM   17  C   UNK N   1      27.643  19.958   6.831  0.00  0.00     0.082 A 
HETATM   18  C   UNK N   1      27.105  20.893   5.948  0.00  0.00     0.119 A 
HETATM   19  C   UNK N   1      26.976  20.583   4.594  0.00  0.00     0.045 A 
HETATM   20  F   UNK N   1      26.704  22.101   6.409  0.00  0.00    -0.206 F 
HETATM   21  C   UNK N   1      27.380  19.334   4.121  0.00  0.00     0.048 A 
HETATM   22  C   UNK N   1      27.911  18.386   5.000  0.00  0.00     0.149 A 
HETATM   23  F   UNK N   1      28.289  17.184   4.500  0.00  0.00    -0.203 F 
ENDBRANCH  15  16
ENDBRANCH  14  15
ENDBRANCH  13  14
BRANCH  13  24
HETATM   24  O   UNK N   1      30.454  16.691   9.813  0.00  0.00    -0.390 OA
HETATM   25  H   UNK N   1      30.203  15.756   9.896  0.00  0.00     0.210 HD
ENDBRANCH  13  24
ENDBRANCH  12  13
ENDBRANCH   8  11
BRANCH   7  26
HETATM   26  O   UNK N   1      34.049  17.729   5.669  0.00  0.00    -0.395 OA
HETATM   27  H   UNK N   1      33.825  18.669   5.591  0.00  0.00     0.210 HD
ENDBRANCH   7  26
BRANCH   1  28
HETATM   28  C   UNK N   1      36.134  13.243  11.458  0.00  0.00     0.007 C 
BRANCH  28  29
HETATM   29  C   UNK N   1      35.456  13.834  12.673  0.00  0.00     0.010 C 
BRANCH  29  30
HETATM   30  C   UNK N   1      36.241  13.452  13.909  0.00  0.00     0.111 C 
BRANCH  30  31
HETATM   31  C   UNK N   1      35.297  13.070  14.997  0.00  0.00     0.259 C 
HETATM   32  O   UNK N   1      34.234  12.546  14.727  0.00  0.00    -0.265 OA
BRANCH  31  33
HETATM   33  O   UNK N   1      35.651  13.324  16.284  0.00  0.00    -0.317 OA
BRANCH  33  34
HETATM   34  C   UNK N   1      34.978  12.795  17.365  0.00  0.00     0.123 C 
HETATM   35  C   UNK N   1      35.160  13.718  18.550  0.00  0.00     0.040 C 
HETATM   36  C   UNK N   1      35.526  11.423  17.721  0.00  0.00     0.040 C 
ENDBRANCH  33  34
ENDBRANCH  31  33
ENDBRANCH  30  31
ENDBRANCH  29  30
ENDBRANCH  28  29
ENDBRANCH   1  28
TORSDOF 13
ENDMDL
MODEL 2
REMARK VINA RESULT:      -7.4      4.217     11.407
REMARK  13 active torsions:
REMARK  status: ('A' for Active; 'I' for Inactive)
REMARK    1  A    between atoms: C_2  and  O_4 
REMARK    2  A    between atoms: O_4  and  C_5 
REMARK    3  A    between atoms: C_5  and  C_7 
REMARK    4  A    between atoms: C_7  and  C_8 
REMARK    5  A    between atoms: C_8  and  C_9 
REMARK    6  A    between atoms: C_10  and  C_9 
REMARK    7  A    between atoms: C_16  and  O_32 
REMARK    8  A    between atoms: C_17  and  C_18 
REMARK    9  A    between atoms: C_19  and  C_20 
REMARK   10  A    between atoms: C_20  and  C_21 
REMARK   11  A    between atoms: C_20  and  O_31 
REMARK   12  A    between atoms: C_21  and  O_22 
REMARK   13  A    between atoms: O_22  and  C_23 
ROOT
HETATM    1  C   UNK N   1      32.230  16.884   7.856  0.00  0.00     0.009 C 
HETATM    2  C   UNK N   1      32.053  15.422   8.266  0.00  0.00     0.007 C 
HETATM    3  C   UNK N   1      33.309  14.727   8.748  0.00  0.00     0.008 C 
HETATM    4  C   UNK N   1      33.848  15.421   9.983  0.00  0.00     0.025 C 
HETATM    5  C   UNK N   1      34.835  16.486   9.580  0.00  0.00     0.128 C 
HETATM    6  C   UNK N   1      35.552  16.782  10.883  0.00  0.00     0.064 C 
HETATM    7  C   UNK N   1      35.647  15.444  11.617  0.00  0.00     0.128 C 
HETATM    8  C   UNK N   1      34.547  14.549  11.022  0.00  0.00     0.043 C 
HETATM    9  O   UNK N   1      34.156  17.629   9.119  0.00  0.00    -0.385 OA
HETATM   10  C   UNK N   1      33.697  17.361   7.816  0.00  0.00     0.172 C 
ENDROOT
BRANCH   8  11
HETATM   11  C   UNK N   1      35.000  13.172  10.576  0.00  0.00    -0.021 C 
HETATM   12  C   UNK N   1      35.102  12.132  11.424  0.00  0.00     0.003 C 
BRANCH  12  13
HETATM   13  C   UNK N   1      34.715  12.242  12.872  0.00  0.00     0.165 C 
BRANCH  13  14
HETATM   14  C   UNK N   1      35.900  12.417  13.797  0.00  0.00     0.211 C 
BRANCH  14  15
HETATM   15  O   UNK N   1      35.857  11.503  14.821  0.00  0.00    -0.345 OA
BRANCH  15  16
HETATM   16  C   UNK N   1      35.640  11.815  16.120  0.00  0.00     0.110 A 
HETATM   17  C   UNK N   1      35.551  13.168  16.457  0.00  0.00     0.082 A 
HETATM   18  C   UNK N   1      35.329  13.557  17.777  0.00  0.00     0.119 A 
HETATM   19  C   UNK N   1      35.181  12.594  18.775  0.00  0.00     0.045 A 
HETATM   20  F   UNK N   1      35.262  14.873  18.088  0.00  0.00    -0.206 F 
HETATM   21  C   UNK N   1      35.260  11.239  18.456  0.00  0.00     0.048 A 
HETATM   22  C   UNK N   1      35.493  10.838  17.138  0.00  0.00     0.149 A 
HETATM   23  F   UNK N   1      35.567   9.511  16.871  0.00  0.00    -0.203 F 
ENDBRANCH  15  16
ENDBRANCH  14  15
ENDBRANCH  13  14
BRANCH  13  24
HETATM   24  O   UNK N   1      33.918  11.161  13.256  0.00  0.00    -0.390 OA
HETATM   25  H   UNK N   1      32.949  11.139  13.304  0.00  0.00     0.210 HD
ENDBRANCH  13  24
ENDBRANCH  12  13
ENDBRANCH   8  11
BRANCH   7  26
HETATM   26  O   UNK N   1      36.922  14.900  11.445  0.00  0.00    -0.395 OA
HETATM   27  H   UNK N   1      37.674  14.804  10.841  0.00  0.00     0.210 HD
ENDBRANCH   7  26
BRANCH   1  28
HETATM   28  C   UNK N   1      31.521  17.033   6.521  0.00  0.00     0.007 C 
BRANCH  28  29
HETATM   29  C   UNK N   1      30.055  16.679   6.621  0.00  0.00     0.010 C 
BRANCH  29  30
HETATM   30  C   UNK N   1      29.265  17.586   5.704  0.00  0.00     0.111 C 
BRANCH  30  31
HETATM   31  C   UNK N   1      28.308  18.396   6.511  0.00  0.00     0.259 C 
HETATM   32  O   UNK N   1      28.397  18.415   7.722  0.00  0.00    -0.265 OA
BRANCH  31  33
HETATM   33  O   UNK N   1      27.343  19.098   5.863  0.00  0.00    -0.317 OA
BRANCH  33  34
HETATM   34  C   UNK N   1      27.595  20.278   5.194  0.00  0.00     0.123 C 
HETATM   35  C   UNK N   1      27.156  21.434   6.065  0.00  0.00     0.040 C 
HETATM   36  C   UNK N   1      26.828  20.328   3.884  0.00  0.00     0.040 C 
ENDBRANCH  33  34
ENDBRANCH  31  33
ENDBRANCH  30  31
ENDBRANCH  29  30
ENDBRANCH  28  29
ENDBRANCH   1  28
TORSDOF 13
ENDMDL
MODEL 3
REMARK VINA RESULT:      -7.4      1.691      2.091
REMARK  13 active torsions:
REMARK  status: ('A' for Active; 'I' for Inactive)
REMARK    1  A    between atoms: C_2  and  O_4 
REMARK    2  A    between atoms: O_4  and  C_5 
REMARK    3  A    between atoms: C_5  and  C_7 
REMARK    4  A    between atoms: C_7  and  C_8 
REMARK    5  A    between atoms: C_8  and  C_9 
REMARK    6  A    between atoms: C_10  and  C_9 
REMARK    7  A    between atoms: C_16  and  O_32 
REMARK    8  A    between atoms: C_17  and  C_18 
REMARK    9  A    between atoms: C_19  and  C_20 
REMARK   10  A    between atoms: C_20  and  C_21 
REMARK   11  A    between atoms: C_20  and  O_31 
REMARK   12  A    between atoms: C_21  and  O_22 
REMARK   13  A    between atoms: O_22  and  C_23 
ROOT
HETATM    1  C   UNK N   1      35.375  14.056   9.999  0.00  0.00     0.009 C 
HETATM    2  C   UNK N   1      34.598  15.244  10.567  0.00  0.00     0.007 C 
HETATM    3  C   UNK N   1      33.990  16.173   9.536  0.00  0.00     0.008 C 
HETATM    4  C   UNK N   1      32.992  15.420   8.679  0.00  0.00     0.025 C 
HETATM    5  C   UNK N   1      33.684  14.857   7.465  0.00  0.00     0.128 C 
HETATM    6  C   UNK N   1      32.523  14.510   6.553  0.00  0.00     0.064 C 
HETATM    7  C   UNK N   1      31.473  15.596   6.790  0.00  0.00     0.128 C 
HETATM    8  C   UNK N   1      31.785  16.202   8.169  0.00  0.00     0.043 C 
HETATM    9  O   UNK N   1      34.403  13.698   7.810  0.00  0.00    -0.385 OA
HETATM   10  C   UNK N   1      35.580  14.101   8.469  0.00  0.00     0.172 C 
ENDROOT
BRANCH   8  11
HETATM   11  C   UNK N   1      31.874  17.715   8.209  0.00  0.00    -0.021 C 
HETATM   12  C   UNK N   1      30.908  18.486   8.740  0.00  0.00     0.003 C 
BRANCH  12  13
HETATM   13  C   UNK N   1      29.687  17.898   9.393  0.00  0.00     0.165 C 
BRANCH  13  14
HETATM   14  C   UNK N   1      28.424  18.090   8.581  0.00  0.00     0.211 C 
BRANCH  14  15
HETATM   15  O   UNK N   1      28.702  18.070   7.237  0.00  0.00    -0.345 OA
BRANCH  15  16
HETATM   16  C   UNK N   1      28.123  18.882   6.321  0.00  0.00     0.110 A 
HETATM   17  C   UNK N   1      27.590  20.092   6.771  0.00  0.00     0.082 A 
HETATM   18  C   UNK N   1      26.980  20.973   5.880  0.00  0.00     0.119 A 
HETATM   19  C   UNK N   1      26.906  20.657   4.523  0.00  0.00     0.045 A 
HETATM   20  F   UNK N   1      26.455  22.135   6.336  0.00  0.00    -0.206 F 
HETATM   21  C   UNK N   1      27.438  19.456   4.055  0.00  0.00     0.048 A 
HETATM   22  C   UNK N   1      28.043  18.561   4.941  0.00  0.00     0.149 A 
HETATM   23  F   UNK N   1      28.545  17.402   4.446  0.00  0.00    -0.203 F 
ENDBRANCH  15  16
ENDBRANCH  14  15
ENDBRANCH  13  14
BRANCH  13  24
HETATM   24  O   UNK N   1      29.541  18.381  10.695  0.00  0.00    -0.390 OA
HETATM   25  H   UNK N   1      29.027  19.156  10.975  0.00  0.00     0.210 HD
ENDBRANCH  13  24
ENDBRANCH  12  13
ENDBRANCH   8  11
BRANCH   7  26
HETATM   26  O   UNK N   1      31.536  16.547   5.768  0.00  0.00    -0.395 OA
HETATM   27  H   UNK N   1      32.045  16.869   5.008  0.00  0.00     0.210 HD
ENDBRANCH   7  26
BRANCH   1  28
HETATM   28  C   UNK N   1      36.682  14.004  10.771  0.00  0.00     0.007 C 
BRANCH  28  29
HETATM   29  C   UNK N   1      36.993  12.605  11.253  0.00  0.00     0.010 C 
BRANCH  29  30
HETATM   30  C   UNK N   1      37.057  12.609  12.765  0.00  0.00     0.111 C 
BRANCH  30  31
HETATM   31  C   UNK N   1      35.797  13.188  13.312  0.00  0.00     0.259 C 
HETATM   32  O   UNK N   1      35.808  14.279  13.847  0.00  0.00    -0.265 OA
BRANCH  31  33
HETATM   33  O   UNK N   1      34.649  12.469  13.201  0.00  0.00    -0.317 OA
BRANCH  33  34
HETATM   34  C   UNK N   1      34.552  11.148  13.584  0.00  0.00     0.123 C 
HETATM   35  C   UNK N   1      33.986  10.348  12.432  0.00  0.00     0.040 C 
HETATM   36  C   UNK N   1      33.633  11.002  14.784  0.00  0.00     0.040 C 
ENDBRANCH  33  34
ENDBRANCH  31  33
ENDBRANCH  30  31
ENDBRANCH  29  30
ENDBRANCH  28  29
ENDBRANCH   1  28
TORSDOF 13
ENDMDL
MODEL 4
REMARK VINA RESULT:      -7.3      3.879     10.677
REMARK  13 active torsions:
REMARK  status: ('A' for Active; 'I' for Inactive)
REMARK    1  A    between atoms: C_2  and  O_4 
REMARK    2  A    between atoms: O_4  and  C_5 
REMARK    3  A    between atoms: C_5  and  C_7 
REMARK    4  A    between atoms: C_7  and  C_8 
REMARK    5  A    between atoms: C_8  and  C_9 
REMARK    6  A    between atoms: C_10  and  C_9 
REMARK    7  A    between atoms: C_16  and  O_32 
REMARK    8  A    between atoms: C_17  and  C_18 
REMARK    9  A    between atoms: C_19  and  C_20 
REMARK   10  A    between atoms: C_20  and  C_21 
REMARK   11  A    between atoms: C_20  and  O_31 
REMARK   12  A    between atoms: C_21  and  O_22 
REMARK   13  A    between atoms: O_22  and  C_23 
ROOT
HETATM    1  C   UNK N   1      32.304  16.986   7.115  0.00  0.00     0.009 C 
HETATM    2  C   UNK N   1      32.682  15.505   7.098  0.00  0.00     0.007 C 
HETATM    3  C   UNK N   1      34.081  15.188   7.585  0.00  0.00     0.008 C 
HETATM    4  C   UNK N   1      34.242  15.620   9.029  0.00  0.00     0.025 C 
HETATM    5  C   UNK N   1      34.762  17.033   9.084  0.00  0.00     0.128 C 
HETATM    6  C   UNK N   1      35.236  17.155  10.519  0.00  0.00     0.064 C 
HETATM    7  C   UNK N   1      35.800  15.783  10.887  0.00  0.00     0.128 C 
HETATM    8  C   UNK N   1      35.165  14.782   9.907  0.00  0.00     0.043 C 
HETATM    9  O   UNK N   1      33.721  17.945   8.829  0.00  0.00    -0.385 OA
HETATM   10  C   UNK N   1      33.473  17.939   7.443  0.00  0.00     0.172 C 
ENDROOT
BRANCH   8  11
HETATM   11  C   UNK N   1      36.137  13.856   9.202  0.00  0.00    -0.021 C 
HETATM   12  C   UNK N   1      36.087  12.518   9.328  0.00  0.00     0.003 C 
BRANCH  12  13
HETATM   13  C   UNK N   1      35.019  11.831  10.132  0.00  0.00     0.165 C 
BRANCH  13  14
HETATM   14  C   UNK N   1      35.412  11.601  11.576  0.00  0.00     0.211 C 
BRANCH  14  15
HETATM   15  O   UNK N   1      34.815  12.527  12.395  0.00  0.00    -0.345 OA
BRANCH  15  16
HETATM   16  C   UNK N   1      35.121  12.706  13.702  0.00  0.00     0.110 A 
HETATM   17  C   UNK N   1      36.123  13.627  14.015  0.00  0.00     0.082 A 
HETATM   18  C   UNK N   1      36.487  13.858  15.341  0.00  0.00     0.119 A 
HETATM   19  C   UNK N   1      35.842  13.175  16.372  0.00  0.00     0.045 A 
HETATM   20  F   UNK N   1      37.471  14.743  15.624  0.00  0.00    -0.206 F 
HETATM   21  C   UNK N   1      34.835  12.255  16.078  0.00  0.00     0.048 A 
HETATM   22  C   UNK N   1      34.470  12.009  14.753  0.00  0.00     0.149 A 
HETATM   23  F   UNK N   1      33.489  11.105  14.511  0.00  0.00    -0.203 F 
ENDBRANCH  15  16
ENDBRANCH  14  15
ENDBRANCH  13  14
BRANCH  13  24
HETATM   24  O   UNK N   1      34.617  10.646   9.513  0.00  0.00    -0.390 OA
HETATM   25  H   UNK N   1      34.988  10.255   8.706  0.00  0.00     0.210 HD
ENDBRANCH  13  24
ENDBRANCH  12  13
ENDBRANCH   8  11
BRANCH   7  26
HETATM   26  O   UNK N   1      37.194  15.802  10.794  0.00  0.00    -0.395 OA
HETATM   27  H   UNK N   1      37.978  15.337  10.465  0.00  0.00     0.210 HD
ENDBRANCH   7  26
BRANCH   1  28
HETATM   28  C   UNK N   1      31.667  17.271   5.766  0.00  0.00     0.007 C 
BRANCH  28  29
HETATM   29  C   UNK N   1      30.222  16.830   5.724  0.00  0.00     0.010 C 
BRANCH  29  30
HETATM   30  C   UNK N   1      29.411  17.711   6.648  0.00  0.00     0.111 C 
BRANCH  30  31
HETATM   31  C   UNK N   1      28.027  17.850   6.111  0.00  0.00     0.259 C 
HETATM   32  O   UNK N   1      27.176  17.031   6.397  0.00  0.00    -0.265 OA
BRANCH  31  33
HETATM   33  O   UNK N   1      27.747  18.903   5.300  0.00  0.00    -0.317 OA
BRANCH  33  34
HETATM   34  C   UNK N   1      26.865  19.905   5.648  0.00  0.00     0.123 C 
HETATM   35  C   UNK N   1      26.118  20.347   4.409  0.00  0.00     0.040 C 
HETATM   36  C   UNK N   1      27.607  21.097   6.227  0.00  0.00     0.040 C 
ENDBRANCH  33  34
ENDBRANCH  31  33
ENDBRANCH  30  31
ENDBRANCH  29  30
ENDBRANCH  28  29
ENDBRANCH   1  28
TORSDOF 13
ENDMDL
MODEL 5
REMARK VINA RESULT:      -7.3      3.830     11.913
REMARK  13 active torsions:
REMARK  status: ('A' for Active; 'I' for Inactive)
REMARK    1  A    between atoms: C_2  and  O_4 
REMARK    2  A    between atoms: O_4  and  C_5 
REMARK    3  A    between atoms: C_5  and  C_7 
REMARK    4  A    between atoms: C_7  and  C_8 
REMARK    5  A    between atoms: C_8  and  C_9 
REMARK    6  A    between atoms: C_10  and  C_9 
REMARK    7  A    between atoms: C_16  and  O_32 
REMARK    8  A    between atoms: C_17  and  C_18 
REMARK    9  A    between atoms: C_19  and  C_20 
REMARK   10  A    between atoms: C_20  and  C_21 
REMARK   11  A    between atoms: C_20  and  O_31 
REMARK   12  A    between atoms: C_21  and  O_22 
REMARK   13  A    between atoms: O_22  and  C_23 
ROOT
HETATM    1  C   UNK N   1      27.850  18.077   4.862  0.00  0.00     0.009 C 
HETATM    2  C   UNK N   1      29.131  17.568   4.203  0.00  0.00     0.007 C 
HETATM    3  C   UNK N   1      30.397  17.755   5.013  0.00  0.00     0.008 C 
HETATM    4  C   UNK N   1      30.296  16.995   6.322  0.00  0.00     0.025 C 
HETATM    5  C   UNK N   1      29.721  17.890   7.388  0.00  0.00     0.128 C 
HETATM    6  C   UNK N   1      30.060  17.143   8.664  0.00  0.00     0.064 C 
HETATM    7  C   UNK N   1      31.424  16.497   8.416  0.00  0.00     0.128 C 
HETATM    8  C   UNK N   1      31.587  16.414   6.889  0.00  0.00     0.043 C 
HETATM    9  O   UNK N   1      28.327  17.996   7.235  0.00  0.00    -0.385 OA
HETATM   10  C   UNK N   1      28.077  18.875   6.164  0.00  0.00     0.172 C 
ENDROOT
BRANCH   8  11
HETATM   11  C   UNK N   1      32.891  16.964   6.343  0.00  0.00    -0.021 C 
HETATM   12  C   UNK N   1      33.980  16.196   6.155  0.00  0.00     0.003 C 
BRANCH  12  13
HETATM   13  C   UNK N   1      33.968  14.715   6.414  0.00  0.00     0.165 C 
BRANCH  13  14
HETATM   14  C   UNK N   1      34.871  14.300   7.555  0.00  0.00     0.211 C 
BRANCH  14  15
HETATM   15  O   UNK N   1      34.797  15.203   8.586  0.00  0.00    -0.345 OA
BRANCH  15  16
HETATM   16  C   UNK N   1      35.048  14.909   9.884  0.00  0.00     0.110 A 
HETATM   17  C   UNK N   1      34.874  13.586  10.295  0.00  0.00     0.082 A 
HETATM   18  C   UNK N   1      35.114  13.216  11.618  0.00  0.00     0.119 A 
HETATM   19  C   UNK N   1      35.543  14.168  12.543  0.00  0.00     0.045 A 
HETATM   20  F   UNK N   1      34.925  11.932  12.002  0.00  0.00    -0.206 F 
HETATM   21  C   UNK N   1      35.728  15.493  12.149  0.00  0.00     0.048 A 
HETATM   22  C   UNK N   1      35.480  15.876  10.829  0.00  0.00     0.149 A 
HETATM   23  F   UNK N   1      35.668  17.175  10.487  0.00  0.00    -0.203 F 
ENDBRANCH  15  16
ENDBRANCH  14  15
ENDBRANCH  13  14
BRANCH  13  24
HETATM   24  O   UNK N   1      34.255  14.006   5.246  0.00  0.00    -0.390 OA
HETATM   25  H   UNK N   1      34.352  14.370   4.351  0.00  0.00     0.210 HD
ENDBRANCH  13  24
ENDBRANCH  12  13
ENDBRANCH   8  11
BRANCH   7  26
HETATM   26  O   UNK N   1      32.427  17.265   9.014  0.00  0.00    -0.395 OA
HETATM   27  H   UNK N   1      32.620  18.063   9.528  0.00  0.00     0.210 HD
ENDBRANCH   7  26
BRANCH   1  28
HETATM   28  C   UNK N   1      27.120  18.876   3.796  0.00  0.00     0.007 C 
BRANCH  28  29
HETATM   29  C   UNK N   1      25.626  18.880   4.024  0.00  0.00     0.010 C 
BRANCH  29  30
HETATM   30  C   UNK N   1      25.148  20.312   4.131  0.00  0.00     0.111 C 
BRANCH  30  31
HETATM   31  C   UNK N   1      24.370  20.666   2.910  0.00  0.00     0.259 C 
HETATM   32  O   UNK N   1      24.920  20.711   1.828  0.00  0.00    -0.265 OA
BRANCH  31  33
HETATM   33  O   UNK N   1      23.046  20.940   3.040  0.00  0.00    -0.317 OA
BRANCH  33  34
HETATM   34  C   UNK N   1      22.056  20.056   2.663  0.00  0.00     0.123 C 
HETATM   35  C   UNK N   1      20.934  20.832   2.010  0.00  0.00     0.040 C 
HETATM   36  C   UNK N   1      21.507  19.316   3.870  0.00  0.00     0.040 C 
ENDBRANCH  33  34
ENDBRANCH  31  33
ENDBRANCH  30  31
ENDBRANCH  29  30
ENDBRANCH  28  29
ENDBRANCH   1  28
TORSDOF 13
ENDMDL
MODEL 6
REMARK VINA RESULT:      -7.2      5.065      7.696
REMARK  13 active torsions:
REMARK  status: ('A' for Active; 'I' for Inactive)
REMARK    1  A    between atoms: C_2  and  O_4 
REMARK    2  A    between atoms: O_4  and  C_5 
REMARK    3  A    between atoms: C_5  and  C_7 
REMARK    4  A    between atoms: C_7  and  C_8 
REMARK    5  A    between atoms: C_8  and  C_9 
REMARK    6  A    between atoms: C_10  and  C_9 
REMARK    7  A    between atoms: C_16  and  O_32 
REMARK    8  A    between atoms: C_17  and  C_18 
REMARK    9  A    between atoms: C_19  and  C_20 
REMARK   10  A    between atoms: C_20  and  C_21 
REMARK   11  A    between atoms: C_20  and  O_31 
REMARK   12  A    between atoms: C_21  and  O_22 
REMARK   13  A    between atoms: O_22  and  C_23 
ROOT
HETATM    1  C   UNK N   1      33.059  17.337   6.810  0.00  0.00     0.009 C 
HETATM    2  C   UNK N   1      31.953  17.151   5.772  0.00  0.00     0.007 C 
HETATM    3  C   UNK N   1      30.588  16.810   6.334  0.00  0.00     0.008 C 
HETATM    4  C   UNK N   1      30.101  17.928   7.236  0.00  0.00     0.025 C 
HETATM    5  C   UNK N   1      30.528  17.660   8.655  0.00  0.00     0.128 C 
HETATM    6  C   UNK N   1      29.648  18.608   9.449  0.00  0.00     0.064 C 
HETATM    7  C   UNK N   1      28.309  18.643   8.713  0.00  0.00     0.128 C 
HETATM    8  C   UNK N   1      28.598  18.185   7.273  0.00  0.00     0.043 C 
HETATM    9  O   UNK N   1      31.885  17.989   8.825  0.00  0.00    -0.385 OA
HETATM   10  C   UNK N   1      32.653  16.959   8.250  0.00  0.00     0.172 C 
ENDROOT
BRANCH   8  11
HETATM   11  C   UNK N   1      27.695  17.086   6.746  0.00  0.00    -0.021 C 
HETATM   12  C   UNK N   1      27.134  17.131   5.524  0.00  0.00     0.003 C 
BRANCH  12  13
HETATM   13  C   UNK N   1      27.412  18.250   4.559  0.00  0.00     0.165 C 
BRANCH  13  14
HETATM   14  C   UNK N   1      26.206  18.637   3.730  0.00  0.00     0.211 C 
BRANCH  14  15
HETATM   15  O   UNK N   1      25.138  18.939   4.537  0.00  0.00    -0.345 OA
BRANCH  15  16
HETATM   16  C   UNK N   1      23.847  18.947   4.131  0.00  0.00     0.110 A 
HETATM   17  C   UNK N   1      23.031  17.888   4.536  0.00  0.00     0.082 A 
HETATM   18  C   UNK N   1      21.692  17.836   4.151  0.00  0.00     0.119 A 
HETATM   19  C   UNK N   1      21.150  18.851   3.363  0.00  0.00     0.045 A 
HETATM   20  F   UNK N   1      20.920  16.794   4.541  0.00  0.00    -0.206 F 
HETATM   21  C   UNK N   1      21.949  19.920   2.954  0.00  0.00     0.048 A 
HETATM   22  C   UNK N   1      23.294  19.976   3.325  0.00  0.00     0.149 A 
HETATM   23  F   UNK N   1      24.036  21.030   2.903  0.00  0.00    -0.203 F 
ENDBRANCH  15  16
ENDBRANCH  14  15
ENDBRANCH  13  14
BRANCH  13  24
HETATM   24  O   UNK N   1      28.514  17.949   3.756  0.00  0.00    -0.390 OA
HETATM   25  H   UNK N   1      28.795  17.070   3.457  0.00  0.00     0.210 HD
ENDBRANCH  13  24
ENDBRANCH  12  13
ENDBRANCH   8  11
BRANCH   7  26
HETATM   26  O   UNK N   1      27.392  17.809   9.359  0.00  0.00    -0.395 OA
HETATM   27  H   UNK N   1      27.256  17.190  10.092  0.00  0.00     0.210 HD
ENDBRANCH   7  26
BRANCH   1  28
HETATM   28  C   UNK N   1      34.249  16.541   6.301  0.00  0.00     0.007 C 
BRANCH  28  29
HETATM   29  C   UNK N   1      34.383  15.215   7.014  0.00  0.00     0.010 C 
BRANCH  29  30
HETATM   30  C   UNK N   1      34.449  14.108   5.985  0.00  0.00     0.111 C 
BRANCH  30  31
HETATM   31  C   UNK N   1      33.071  13.778   5.523  0.00  0.00     0.259 C 
HETATM   32  O   UNK N   1      32.197  13.537   6.333  0.00  0.00    -0.265 OA
BRANCH  31  33
HETATM   33  O   UNK N   1      32.822  13.749   4.188  0.00  0.00    -0.317 OA
BRANCH  33  34
HETATM   34  C   UNK N   1      33.706  14.239   3.250  0.00  0.00     0.123 C 
HETATM   35  C   UNK N   1      33.279  15.638   2.863  0.00  0.00     0.040 C 
HETATM   36  C   UNK N   1      33.712  13.364   2.008  0.00  0.00     0.040 C 
ENDBRANCH  33  34
ENDBRANCH  31  33
ENDBRANCH  30  31
ENDBRANCH  29  30
ENDBRANCH  28  29
ENDBRANCH   1  28
TORSDOF 13
ENDMDL
MODEL 7
REMARK VINA RESULT:      -7.2      6.261     13.446
REMARK  13 active torsions:
REMARK  status: ('A' for Active; 'I' for Inactive)
REMARK    1  A    between atoms: C_2  and  O_4 
REMARK    2  A    between atoms: O_4  and  C_5 
REMARK    3  A    between atoms: C_5  and  C_7 
REMARK    4  A    between atoms: C_7  and  C_8 
REMARK    5  A    between atoms: C_8  and  C_9 
REMARK    6  A    between atoms: C_10  and  C_9 
REMARK    7  A    between atoms: C_16  and  O_32 
REMARK    8  A    between atoms: C_17  and  C_18 
REMARK    9  A    between atoms: C_19  and  C_20 
REMARK   10  A    between atoms: C_20  and  C_21 
REMARK   11  A    between atoms: C_20  and  O_31 
REMARK   12  A    between atoms: C_21  and  O_22 
REMARK   13  A    between atoms: O_22  and  C_23 
ROOT
HETATM    1  C   UNK N   1      21.667  19.718   3.690  0.00  0.00     0.009 C 
HETATM    2  C   UNK N   1      22.197  18.524   4.483  0.00  0.00     0.007 C 
HETATM    3  C   UNK N   1      23.614  18.103   4.153  0.00  0.00     0.008 C 
HETATM    4  C   UNK N   1      24.577  19.235   4.452  0.00  0.00     0.025 C 
HETATM    5  C   UNK N   1      24.760  20.087   3.223  0.00  0.00     0.128 C 
HETATM    6  C   UNK N   1      26.007  20.883   3.555  0.00  0.00     0.064 C 
HETATM    7  C   UNK N   1      26.902  19.935   4.354  0.00  0.00     0.128 C 
HETATM    8  C   UNK N   1      25.975  18.851   4.927  0.00  0.00     0.043 C 
HETATM    9  O   UNK N   1      23.657  20.945   3.058  0.00  0.00    -0.385 OA
HETATM   10  C   UNK N   1      22.591  20.182   2.544  0.00  0.00     0.172 C 
ENDROOT
BRANCH   8  11
HETATM   11  C   UNK N   1      26.419  17.421   4.685  0.00  0.00    -0.021 C 
HETATM   12  C   UNK N   1      27.109  16.711   5.596  0.00  0.00     0.003 C 
BRANCH  12  13
HETATM   13  C   UNK N   1      27.439  17.263   6.955  0.00  0.00     0.165 C 
BRANCH  13  14
HETATM   14  C   UNK N   1      28.901  17.620   7.116  0.00  0.00     0.211 C 
BRANCH  14  15
HETATM   15  O   UNK N   1      29.699  16.699   6.483  0.00  0.00    -0.345 OA
BRANCH  15  16
HETATM   16  C   UNK N   1      30.908  16.976   5.942  0.00  0.00     0.110 A 
HETATM   17  C   UNK N   1      30.991  17.072   4.551  0.00  0.00     0.082 A 
HETATM   18  C   UNK N   1      32.207  17.353   3.929  0.00  0.00     0.119 A 
HETATM   19  C   UNK N   1      33.355  17.553   4.697  0.00  0.00     0.045 A 
HETATM   20  F   UNK N   1      32.272  17.427   2.579  0.00  0.00    -0.206 F 
HETATM   21  C   UNK N   1      33.290  17.467   6.087  0.00  0.00     0.048 A 
HETATM   22  C   UNK N   1      32.079  17.175   6.719  0.00  0.00     0.149 A 
HETATM   23  F   UNK N   1      32.059  17.097   8.073  0.00  0.00    -0.203 F 
ENDBRANCH  15  16
ENDBRANCH  14  15
ENDBRANCH  13  14
BRANCH  13  24
HETATM   24  O   UNK N   1      27.007  16.396   7.960  0.00  0.00    -0.390 OA
HETATM   25  H   UNK N   1      26.973  16.578   8.913  0.00  0.00     0.210 HD
ENDBRANCH  13  24
ENDBRANCH  12  13
ENDBRANCH   8  11
BRANCH   7  26
HETATM   26  O   UNK N   1      27.889  19.402   3.521  0.00  0.00    -0.395 OA
HETATM   27  H   UNK N   1      28.062  18.872   2.728  0.00  0.00     0.210 HD
ENDBRANCH   7  26
BRANCH   1  28
HETATM   28  C   UNK N   1      20.281  19.321   3.211  0.00  0.00     0.007 C 
BRANCH  28  29
HETATM   29  C   UNK N   1      20.322  18.687   1.839  0.00  0.00     0.010 C 
BRANCH  29  30
HETATM   30  C   UNK N   1      19.893  17.241   1.952  0.00  0.00     0.111 C 
BRANCH  30  31
HETATM   31  C   UNK N   1      19.869  16.625   0.594  0.00  0.00     0.259 C 
HETATM   32  O   UNK N   1      20.377  17.201  -0.347  0.00  0.00    -0.265 OA
BRANCH  31  33
HETATM   33  O   UNK N   1      19.267  15.417   0.440  0.00  0.00    -0.317 OA
BRANCH  33  34
HETATM   34  C   UNK N   1      19.874  14.227   0.781  0.00  0.00     0.123 C 
HETATM   35  C   UNK N   1      19.295  13.743   2.092  0.00  0.00     0.040 C 
HETATM   36  C   UNK N   1      21.373  14.415   0.944  0.00  0.00     0.040 C 
ENDBRANCH  33  34
ENDBRANCH  31  33
ENDBRANCH  30  31
ENDBRANCH  29  30
ENDBRANCH  28  29
ENDBRANCH   1  28
TORSDOF 13
ENDMDL
MODEL 8
REMARK VINA RESULT:      -7.2      5.522     11.128
REMARK  13 active torsions:
REMARK  status: ('A' for Active; 'I' for Inactive)
REMARK    1  A    between atoms: C_2  and  O_4 
REMARK    2  A    between atoms: O_4  and  C_5 
REMARK    3  A    between atoms: C_5  and  C_7 
REMARK    4  A    between atoms: C_7  and  C_8 
REMARK    5  A    between atoms: C_8  and  C_9 
REMARK    6  A    between atoms: C_10  and  C_9 
REMARK    7  A    between atoms: C_16  and  O_32 
REMARK    8  A    between atoms: C_17  and  C_18 
REMARK    9  A    between atoms: C_19  and  C_20 
REMARK   10  A    between atoms: C_20  and  C_21 
REMARK   11  A    between atoms: C_20  and  O_31 
REMARK   12  A    between atoms: C_21  and  O_22 
REMARK   13  A    between atoms: O_22  and  C_23 
ROOT
HETATM    1  C   UNK N   1      27.029  19.334   5.572  0.00  0.00     0.009 C 
HETATM    2  C   UNK N   1      28.028  18.511   4.759  0.00  0.00     0.007 C 
HETATM    3  C   UNK N   1      29.406  18.374   5.372  0.00  0.00     0.008 C 
HETATM    4  C   UNK N   1      29.313  17.671   6.713  0.00  0.00     0.025 C 
HETATM    5  C   UNK N   1      29.148  18.689   7.811  0.00  0.00     0.128 C 
HETATM    6  C   UNK N   1      29.474  17.888   9.057  0.00  0.00     0.064 C 
HETATM    7  C   UNK N   1      30.579  16.914   8.644  0.00  0.00     0.128 C 
HETATM    8  C   UNK N   1      30.486  16.783   7.115  0.00  0.00     0.043 C 
HETATM    9  O   UNK N   1      27.818  19.147   7.854  0.00  0.00    -0.385 OA
HETATM   10  C   UNK N   1      27.641  20.055   6.792  0.00  0.00     0.172 C 
ENDROOT
BRANCH   8  11
HETATM   11  C   UNK N   1      31.790  16.979   6.366  0.00  0.00    -0.021 C 
HETATM   12  C   UNK N   1      32.269  16.073   5.494  0.00  0.00     0.003 C 
BRANCH  12  13
HETATM   13  C   UNK N   1      31.513  14.820   5.148  0.00  0.00     0.165 C 
BRANCH  13  14
HETATM   14  C   UNK N   1      30.372  15.057   4.182  0.00  0.00     0.211 C 
BRANCH  14  15
HETATM   15  O   UNK N   1      29.255  14.359   4.569  0.00  0.00    -0.345 OA
BRANCH  15  16
HETATM   16  C   UNK N   1      27.992  14.844   4.520  0.00  0.00     0.110 A 
HETATM   17  C   UNK N   1      27.298  14.972   5.725  0.00  0.00     0.082 A 
HETATM   18  C   UNK N   1      25.993  15.463   5.744  0.00  0.00     0.119 A 
HETATM   19  C   UNK N   1      25.372  15.846   4.555  0.00  0.00     0.045 A 
HETATM   20  F   UNK N   1      25.330  15.565   6.919  0.00  0.00    -0.206 F 
HETATM   21  C   UNK N   1      26.053  15.731   3.342  0.00  0.00     0.048 A 
HETATM   22  C   UNK N   1      27.356  15.229   3.311  0.00  0.00     0.149 A 
HETATM   23  F   UNK N   1      27.981  15.131   2.112  0.00  0.00    -0.203 F 
ENDBRANCH  15  16
ENDBRANCH  14  15
ENDBRANCH  13  14
BRANCH  13  24
HETATM   24  O   UNK N   1      31.082  14.166   6.304  0.00  0.00    -0.390 OA
HETATM   25  H   UNK N   1      30.476  14.513   6.978  0.00  0.00     0.210 HD
ENDBRANCH  13  24
ENDBRANCH  12  13
ENDBRANCH   8  11
BRANCH   7  26
HETATM   26  O   UNK N   1      31.820  17.403   9.059  0.00  0.00    -0.395 OA
HETATM   27  H   UNK N   1      32.772  17.418   8.879  0.00  0.00     0.210 HD
ENDBRANCH   7  26
BRANCH   1  28
HETATM   28  C   UNK N   1      26.373  20.287   4.588  0.00  0.00     0.007 C 
BRANCH  28  29
HETATM   29  C   UNK N   1      25.698  19.547   3.455  0.00  0.00     0.010 C 
BRANCH  29  30
HETATM   30  C   UNK N   1      24.236  19.358   3.793  0.00  0.00     0.111 C 
BRANCH  30  31
HETATM   31  C   UNK N   1      23.420  20.349   3.035  0.00  0.00     0.259 C 
HETATM   32  O   UNK N   1      23.961  21.141   2.288  0.00  0.00    -0.265 OA
BRANCH  31  33
HETATM   33  O   UNK N   1      22.072  20.346   3.202  0.00  0.00    -0.317 OA
BRANCH  33  34
HETATM   34  C   UNK N   1      21.212  19.683   2.352  0.00  0.00     0.123 C 
HETATM   35  C   UNK N   1      20.763  20.641   1.271  0.00  0.00     0.040 C 
HETATM   36  C   UNK N   1      19.992  19.182   3.105  0.00  0.00     0.040 C 
ENDBRANCH  33  34
ENDBRANCH  31  33
ENDBRANCH  30  31
ENDBRANCH  29  30
ENDBRANCH  28  29
ENDBRANCH   1  28
TORSDOF 13
ENDMDL
MODEL 9
REMARK VINA RESULT:      -7.1      4.000      6.615
REMARK  13 active torsions:
REMARK  status: ('A' for Active; 'I' for Inactive)
REMARK    1  A    between atoms: C_2  and  O_4 
REMARK    2  A    between atoms: O_4  and  C_5 
REMARK    3  A    between atoms: C_5  and  C_7 
REMARK    4  A    between atoms: C_7  and  C_8 
REMARK    5  A    between atoms: C_8  and  C_9 
REMARK    6  A    between atoms: C_10  and  C_9 
REMARK    7  A    between atoms: C_16  and  O_32 
REMARK    8  A    between atoms: C_17  and  C_18 
REMARK    9  A    between atoms: C_19  and  C_20 
REMARK   10  A    between atoms: C_20  and  C_21 
REMARK   11  A    between atoms: C_20  and  O_31 
REMARK   12  A    between atoms: C_21  and  O_22 
REMARK   13  A    between atoms: O_22  and  C_23 
ROOT
HETATM    1  C   UNK N   1      33.076  17.586   6.770  0.00  0.00     0.009 C 
HETATM    2  C   UNK N   1      31.969  17.286   5.760  0.00  0.00     0.007 C 
HETATM    3  C   UNK N   1      30.645  16.859   6.357  0.00  0.00     0.008 C 
HETATM    4  C   UNK N   1      30.089  17.961   7.237  0.00  0.00     0.025 C 
HETATM    5  C   UNK N   1      30.560  17.768   8.655  0.00  0.00     0.128 C 
HETATM    6  C   UNK N   1      29.624  18.668   9.440  0.00  0.00     0.064 C 
HETATM    7  C   UNK N   1      28.273  18.580   8.730  0.00  0.00     0.128 C 
HETATM    8  C   UNK N   1      28.571  18.104   7.298  0.00  0.00     0.043 C 
HETATM    9  O   UNK N   1      31.891  18.205   8.789  0.00  0.00    -0.385 OA
HETATM   10  C   UNK N   1      32.726  17.219   8.228  0.00  0.00     0.172 C 
ENDROOT
BRANCH   8  11
HETATM   11  C   UNK N   1      27.746  16.925   6.819  0.00  0.00    -0.021 C 
HETATM   12  C   UNK N   1      27.111  16.917   5.633  0.00  0.00     0.003 C 
BRANCH  12  13
HETATM   13  C   UNK N   1      27.223  18.058   4.660  0.00  0.00     0.165 C 
BRANCH  13  14
HETATM   14  C   UNK N   1      25.995  18.225   3.791  0.00  0.00     0.211 C 
BRANCH  14  15
HETATM   15  O   UNK N   1      24.934  18.685   4.531  0.00  0.00    -0.345 OA
BRANCH  15  16
HETATM   16  C   UNK N   1      23.744  19.067   4.012  0.00  0.00     0.110 A 
HETATM   17  C   UNK N   1      22.613  18.328   4.367  0.00  0.00     0.082 A 
HETATM   18  C   UNK N   1      21.357  18.667   3.866  0.00  0.00     0.119 A 
HETATM   19  C   UNK N   1      21.217  19.761   3.011  0.00  0.00     0.045 A 
HETATM   20  F   UNK N   1      20.275  17.930   4.208  0.00  0.00    -0.206 F 
HETATM   21  C   UNK N   1      22.334  20.514   2.651  0.00  0.00     0.048 A 
HETATM   22  C   UNK N   1      23.599  20.176   3.138  0.00  0.00     0.149 A 
HETATM   23  F   UNK N   1      24.659  20.932   2.761  0.00  0.00    -0.203 F 
ENDBRANCH  15  16
ENDBRANCH  14  15
ENDBRANCH  13  14
BRANCH  13  24
HETATM   24  O   UNK N   1      28.384  17.944   3.894  0.00  0.00    -0.390 OA
HETATM   25  H   UNK N   1      29.191  17.456   4.127  0.00  0.00     0.210 HD
ENDBRANCH  13  24
ENDBRANCH  12  13
ENDBRANCH   8  11
BRANCH   7  26
HETATM   26  O   UNK N   1      27.435  17.698   9.416  0.00  0.00    -0.395 OA
HETATM   27  H   UNK N   1      27.326  16.791   9.742  0.00  0.00     0.210 HD
ENDBRANCH   7  26
BRANCH   1  28
HETATM   28  C   UNK N   1      34.314  16.869   6.259  0.00  0.00     0.007 C 
BRANCH  28  29
HETATM   29  C   UNK N   1      33.959  15.727   5.335  0.00  0.00     0.010 C 
BRANCH  29  30
HETATM   30  C   UNK N   1      34.325  14.420   6.005  0.00  0.00     0.111 C 
BRANCH  30  31
HETATM   31  C   UNK N   1      35.786  14.409   6.304  0.00  0.00     0.259 C 
HETATM   32  O   UNK N   1      36.594  14.524   5.404  0.00  0.00    -0.265 OA
BRANCH  31  33
HETATM   33  O   UNK N   1      36.183  14.265   7.595  0.00  0.00    -0.317 OA
BRANCH  33  34
HETATM   34  C   UNK N   1      35.298  14.214   8.651  0.00  0.00     0.123 C 
HETATM   35  C   UNK N   1      35.648  15.311   9.633  0.00  0.00     0.040 C 
HETATM   36  C   UNK N   1      35.382  12.873   9.360  0.00  0.00     0.040 C 
ENDBRANCH  33  34
ENDBRANCH  31  33
ENDBRANCH  30  31
ENDBRANCH  29  30
ENDBRANCH  28  29
ENDBRANCH   1  28
TORSDOF 13
ENDMDL
