MODEL 1
REMARK VINA RESULT:      -5.5      0.000      0.000
REMARK  8 active torsions:
REMARK  status: ('A' for Active; 'I' for Inactive)
REMARK    1  A    between atoms: C_3  and  C_13 
REMARK    2  A    between atoms: C_5  and  C_7 
REMARK       I    between atoms: C_7  and  N_9 
REMARK    3  A    between atoms: N_9  and  C_10 
REMARK    4  A    between atoms: C_10  and  C_11 
REMARK    5  A    between atoms: C_11  and  S_12 
REMARK       I    between atoms: C_13  and  N_15 
REMARK    6  A    between atoms: N_15  and  C_16 
REMARK    7  A    between atoms: C_16  and  C_17 
REMARK    8  A    between atoms: C_17  and  S_18 
ROOT
HETATM    1  C   UNK N   1      30.527  16.407   6.074  0.00  0.00     0.002 A 
HETATM    2  C   UNK N   1      29.396  16.827   6.773  0.00  0.00     0.017 A 
HETATM    3  C   UNK N   1      29.518  17.544   7.974  0.00  0.00     0.033 A 
HETATM    4  C   UNK N   1      30.806  17.833   8.459  0.00  0.00     0.034 A 
HETATM    5  C   UNK N   1      31.947  17.413   7.762  0.00  0.00     0.033 A 
HETATM    6  C   UNK N   1      31.796  16.700   6.567  0.00  0.00     0.017 A 
ENDROOT
BRANCH   3   7
HETATM    7  C   UNK N   1      28.273  17.976   8.685  0.00  0.00     0.251 C 
HETATM    8  O   UNK N   1      27.907  17.329   9.656  0.00  0.00    -0.268 OA
HETATM    9  N   UNK N   1      27.522  19.047   8.311  0.00  0.00    -0.356 N 
HETATM   10  H   UNK N   1      26.713  19.241   8.839  0.00  0.00     0.162 HD
BRANCH   9  11
HETATM   11  C   UNK N   1      27.818  19.922   7.200  0.00  0.00     0.133 C 
BRANCH  11  12
HETATM   12  C   UNK N   1      26.863  19.743   6.016  0.00  0.00     0.090 C 
BRANCH  12  13
HETATM   13  S   UNK N   1      27.667  19.373   4.420  0.00  0.00    -0.181 SA
HETATM   14  H   UNK N   1      28.805  18.628   4.386  0.00  0.00     0.101 HD
ENDBRANCH  12  13
ENDBRANCH  11  12
ENDBRANCH   9  11
ENDBRANCH   3   7
BRANCH   5  15
HETATM   15  C   UNK N   1      33.303  17.712   8.266  0.00  0.00     0.251 C 
HETATM   16  O   UNK N   1      34.008  18.541   7.707  0.00  0.00    -0.268 OA
HETATM   17  N   UNK N   1      33.751  17.050   9.361  0.00  0.00    -0.356 N 
HETATM   18  H   UNK N   1      33.151  16.391   9.780  0.00  0.00     0.162 HD
BRANCH  17  19
HETATM   19  C   UNK N   1      35.048  17.252   9.945  0.00  0.00     0.133 C 
BRANCH  19  20
HETATM   20  C   UNK N   1      35.289  16.116  10.920  0.00  0.00     0.090 C 
BRANCH  20  21
HETATM   21  S   UNK N   1      34.104  14.774  10.647  0.00  0.00    -0.181 SA
HETATM   22  H   UNK N   1      32.772  15.001  10.797  0.00  0.00     0.101 HD
ENDBRANCH  20  21
ENDBRANCH  19  20
ENDBRANCH  17  19
ENDBRANCH   5  15
TORSDOF 8
ENDMDL
MODEL 2
REMARK VINA RESULT:      -5.3     14.463     16.170
REMARK  8 active torsions:
REMARK  status: ('A' for Active; 'I' for Inactive)
REMARK    1  A    between atoms: C_3  and  C_13 
REMARK    2  A    between atoms: C_5  and  C_7 
REMARK       I    between atoms: C_7  and  N_9 
REMARK    3  A    between atoms: N_9  and  C_10 
REMARK    4  A    between atoms: C_10  and  C_11 
REMARK    5  A    between atoms: C_11  and  S_12 
REMARK       I    between atoms: C_13  and  N_15 
REMARK    6  A    between atoms: N_15  and  C_16 
REMARK    7  A    between atoms: C_16  and  C_17 
REMARK    8  A    between atoms: C_17  and  S_18 
ROOT
HETATM    1  C   UNK N   1      24.959  26.754  -5.538  0.00  0.00     0.002 A 
HETATM    2  C   UNK N   1      25.577  25.580  -5.109  0.00  0.00     0.017 A 
HETATM    3  C   UNK N   1      26.550  25.608  -4.097  0.00  0.00     0.033 A 
HETATM    4  C   UNK N   1      26.890  26.846  -3.521  0.00  0.00     0.034 A 
HETATM    5  C   UNK N   1      26.273  28.029  -3.949  0.00  0.00     0.033 A 
HETATM    6  C   UNK N   1      25.307  27.973  -4.960  0.00  0.00     0.017 A 
ENDROOT
BRANCH   3   7
HETATM    7  C   UNK N   1      27.182  24.320  -3.669  0.00  0.00     0.251 C 
HETATM    8  O   UNK N   1      26.722  23.745  -2.694  0.00  0.00    -0.268 OA
HETATM    9  N   UNK N   1      28.246  23.754  -4.303  0.00  0.00    -0.356 N 
HETATM   10  H   UNK N   1      28.597  22.910  -3.934  0.00  0.00     0.162 HD
BRANCH   9  11
HETATM   11  C   UNK N   1      28.900  24.293  -5.472  0.00  0.00     0.133 C 
BRANCH  11  12
HETATM   12  C   UNK N   1      28.912  23.327  -6.660  0.00  0.00     0.090 C 
BRANCH  12  13
HETATM   13  S   UNK N   1      27.272  22.726  -7.190  0.00  0.00    -0.181 SA
HETATM   14  H   UNK N   1      26.463  23.524  -7.937  0.00  0.00     0.101 HD
ENDBRANCH  12  13
ENDBRANCH  11  12
ENDBRANCH   9  11
ENDBRANCH   3   7
BRANCH   5  15
HETATM   15  C   UNK N   1      26.625  29.334  -3.350  0.00  0.00     0.251 C 
HETATM   16  O   UNK N   1      26.191  30.374  -3.822  0.00  0.00    -0.268 OA
HETATM   17  N   UNK N   1      27.440  29.353  -2.266  0.00  0.00    -0.356 N 
HETATM   18  H   UNK N   1      27.767  28.492  -1.918  0.00  0.00     0.162 HD
BRANCH  17  19
HETATM   19  C   UNK N   1      27.853  30.555  -1.596  0.00  0.00     0.133 C 
BRANCH  19  20
HETATM   20  C   UNK N   1      28.866  30.160  -0.539  0.00  0.00     0.090 C 
BRANCH  20  21
HETATM   21  S   UNK N   1      28.266  30.582   1.116  0.00  0.00    -0.181 SA
HETATM   22  H   UNK N   1      27.230  31.449   1.263  0.00  0.00     0.101 HD
ENDBRANCH  20  21
ENDBRANCH  19  20
ENDBRANCH  17  19
ENDBRANCH   5  15
TORSDOF 8
ENDMDL
MODEL 3
REMARK VINA RESULT:      -5.3      1.875      6.867
REMARK  8 active torsions:
REMARK  status: ('A' for Active; 'I' for Inactive)
REMARK    1  A    between atoms: C_3  and  C_13 
REMARK    2  A    between atoms: C_5  and  C_7 
REMARK       I    between atoms: C_7  and  N_9 
REMARK    3  A    between atoms: N_9  and  C_10 
REMARK    4  A    between atoms: C_10  and  C_11 
REMARK    5  A    between atoms: C_11  and  S_12 
REMARK       I    between atoms: C_13  and  N_15 
REMARK    6  A    between atoms: N_15  and  C_16 
REMARK    7  A    between atoms: C_16  and  C_17 
REMARK    8  A    between atoms: C_17  and  S_18 
ROOT
HETATM    1  C   UNK N   1      32.832  17.204   5.294  0.00  0.00     0.002 A 
HETATM    2  C   UNK N   1      33.810  17.556   6.224  0.00  0.00     0.017 A 
HETATM    3  C   UNK N   1      33.475  17.775   7.570  0.00  0.00     0.033 A 
HETATM    4  C   UNK N   1      32.132  17.631   7.964  0.00  0.00     0.034 A 
HETATM    5  C   UNK N   1      31.145  17.279   7.033  0.00  0.00     0.033 A 
HETATM    6  C   UNK N   1      31.507  17.067   5.698  0.00  0.00     0.017 A 
ENDROOT
BRANCH   3   7
HETATM    7  C   UNK N   1      34.561  18.147   8.532  0.00  0.00     0.251 C 
HETATM    8  O   UNK N   1      35.088  19.243   8.414  0.00  0.00    -0.268 OA
HETATM    9  N   UNK N   1      34.998  17.332   9.530  0.00  0.00    -0.356 N 
HETATM   10  H   UNK N   1      35.727  17.666  10.103  0.00  0.00     0.162 HD
BRANCH   9  11
HETATM   11  C   UNK N   1      34.477  16.015   9.816  0.00  0.00     0.133 C 
BRANCH  11  12
HETATM   12  C   UNK N   1      35.324  14.886   9.222  0.00  0.00     0.090 C 
BRANCH  12  13
HETATM   13  S   UNK N   1      36.886  14.540  10.100  0.00  0.00    -0.181 SA
HETATM   14  H   UNK N   1      37.067  13.344  10.723  0.00  0.00     0.101 HD
ENDBRANCH  12  13
ENDBRANCH  11  12
ENDBRANCH   9  11
ENDBRANCH   3   7
BRANCH   5  15
HETATM   15  C   UNK N   1      29.732  17.127   7.439  0.00  0.00     0.251 C 
HETATM   16  O   UNK N   1      29.392  17.319   8.598  0.00  0.00    -0.268 OA
HETATM   17  N   UNK N   1      28.821  16.771   6.501  0.00  0.00    -0.356 N 
HETATM   18  H   UNK N   1      29.137  16.626   5.580  0.00  0.00     0.162 HD
BRANCH  17  19
HETATM   19  C   UNK N   1      27.421  16.592   6.771  0.00  0.00     0.133 C 
BRANCH  19  20
HETATM   20  C   UNK N   1      26.676  16.812   5.469  0.00  0.00     0.090 C 
BRANCH  20  21
HETATM   21  S   UNK N   1      27.734  17.641   4.256  0.00  0.00    -0.181 SA
HETATM   22  H   UNK N   1      28.991  17.181   4.022  0.00  0.00     0.101 HD
ENDBRANCH  20  21
ENDBRANCH  19  20
ENDBRANCH  17  19
ENDBRANCH   5  15
TORSDOF 8
ENDMDL
MODEL 4
REMARK VINA RESULT:      -5.1      2.237      2.657
REMARK  8 active torsions:
REMARK  status: ('A' for Active; 'I' for Inactive)
REMARK    1  A    between atoms: C_3  and  C_13 
REMARK    2  A    between atoms: C_5  and  C_7 
REMARK       I    between atoms: C_7  and  N_9 
REMARK    3  A    between atoms: N_9  and  C_10 
REMARK    4  A    between atoms: C_10  and  C_11 
REMARK    5  A    between atoms: C_11  and  S_12 
REMARK       I    between atoms: C_13  and  N_15 
REMARK    6  A    between atoms: N_15  and  C_16 
REMARK    7  A    between atoms: C_16  and  C_17 
REMARK    8  A    between atoms: C_17  and  S_18 
ROOT
HETATM    1  C   UNK N   1      32.388  17.521   4.153  0.00  0.00     0.002 A 
HETATM    2  C   UNK N   1      31.103  17.064   4.442  0.00  0.00     0.017 A 
HETATM    3  C   UNK N   1      30.723  16.774   5.763  0.00  0.00     0.033 A 
HETATM    4  C   UNK N   1      31.667  16.955   6.792  0.00  0.00     0.034 A 
HETATM    5  C   UNK N   1      32.960  17.414   6.507  0.00  0.00     0.033 A 
HETATM    6  C   UNK N   1      33.311  17.695   5.181  0.00  0.00     0.017 A 
ENDROOT
BRANCH   3   7
HETATM    7  C   UNK N   1      29.331  16.289   6.023  0.00  0.00     0.251 C 
HETATM    8  O   UNK N   1      29.051  15.140   5.715  0.00  0.00    -0.268 OA
HETATM    9  N   UNK N   1      28.356  17.057   6.582  0.00  0.00    -0.356 N 
HETATM   10  H   UNK N   1      27.468  16.647   6.700  0.00  0.00     0.162 HD
BRANCH   9  11
HETATM   11  C   UNK N   1      28.521  18.425   7.014  0.00  0.00     0.133 C 
BRANCH  11  12
HETATM   12  C   UNK N   1      28.207  18.634   8.499  0.00  0.00     0.090 C 
BRANCH  12  13
HETATM   13  S   UNK N   1      29.634  18.479   9.625  0.00  0.00    -0.181 SA
HETATM   14  H   UNK N   1      30.846  18.095   9.140  0.00  0.00     0.101 HD
ENDBRANCH  12  13
ENDBRANCH  11  12
ENDBRANCH   9  11
ENDBRANCH   3   7
BRANCH   5  15
HETATM   15  C   UNK N   1      33.956  17.605   7.581  0.00  0.00     0.251 C 
HETATM   16  O   UNK N   1      34.786  18.500   7.509  0.00  0.00    -0.268 OA
HETATM   17  N   UNK N   1      33.930  16.770   8.649  0.00  0.00    -0.356 N 
HETATM   18  H   UNK N   1      33.244  16.063   8.667  0.00  0.00     0.162 HD
BRANCH  17  19
HETATM   19  C   UNK N   1      34.844  16.855   9.755  0.00  0.00     0.133 C 
BRANCH  19  20
HETATM   20  C   UNK N   1      35.486  15.491   9.919  0.00  0.00     0.090 C 
BRANCH  20  21
HETATM   21  S   UNK N   1      35.614  15.048  11.669  0.00  0.00    -0.181 SA
HETATM   22  H   UNK N   1      36.560  14.162  12.080  0.00  0.00     0.101 HD
ENDBRANCH  20  21
ENDBRANCH  19  20
ENDBRANCH  17  19
ENDBRANCH   5  15
TORSDOF 8
ENDMDL
MODEL 5
REMARK VINA RESULT:      -5.1      4.130      6.799
REMARK  8 active torsions:
REMARK  status: ('A' for Active; 'I' for Inactive)
REMARK    1  A    between atoms: C_3  and  C_13 
REMARK    2  A    between atoms: C_5  and  C_7 
REMARK       I    between atoms: C_7  and  N_9 
REMARK    3  A    between atoms: N_9  and  C_10 
REMARK    4  A    between atoms: C_10  and  C_11 
REMARK    5  A    between atoms: C_11  and  S_12 
REMARK       I    between atoms: C_13  and  N_15 
REMARK    6  A    between atoms: N_15  and  C_16 
REMARK    7  A    between atoms: C_16  and  C_17 
REMARK    8  A    between atoms: C_17  and  S_18 
ROOT
HETATM    1  C   UNK N   1      31.186  17.437   7.315  0.00  0.00     0.002 A 
HETATM    2  C   UNK N   1      32.244  17.797   8.148  0.00  0.00     0.017 A 
HETATM    3  C   UNK N   1      33.569  17.758   7.685  0.00  0.00     0.033 A 
HETATM    4  C   UNK N   1      33.809  17.348   6.361  0.00  0.00     0.034 A 
HETATM    5  C   UNK N   1      32.750  16.984   5.519  0.00  0.00     0.033 A 
HETATM    6  C   UNK N   1      31.439  17.032   6.006  0.00  0.00     0.017 A 
ENDROOT
BRANCH   3   7
HETATM    7  C   UNK N   1      34.671  18.157   8.617  0.00  0.00     0.251 C 
HETATM    8  O   UNK N   1      35.207  19.242   8.449  0.00  0.00    -0.268 OA
HETATM    9  N   UNK N   1      35.113  17.378   9.642  0.00  0.00    -0.356 N 
HETATM   10  H   UNK N   1      35.852  17.727  10.192  0.00  0.00     0.162 HD
BRANCH   9  11
HETATM   11  C   UNK N   1      34.583  16.079   9.987  0.00  0.00     0.133 C 
BRANCH  11  12
HETATM   12  C   UNK N   1      35.056  15.574  11.353  0.00  0.00     0.090 C 
BRANCH  12  13
HETATM   13  S   UNK N   1      35.083  13.759  11.543  0.00  0.00    -0.181 SA
HETATM   14  H   UNK N   1      35.793  12.993  10.673  0.00  0.00     0.101 HD
ENDBRANCH  12  13
ENDBRANCH  11  12
ENDBRANCH   9  11
ENDBRANCH   3   7
BRANCH   5  15
HETATM   15  C   UNK N   1      32.995  16.551   4.127  0.00  0.00     0.251 C 
HETATM   16  O   UNK N   1      32.652  17.253   3.187  0.00  0.00    -0.268 OA
HETATM   17  N   UNK N   1      33.608  15.361   3.914  0.00  0.00    -0.356 N 
HETATM   18  H   UNK N   1      33.867  14.827   4.700  0.00  0.00     0.162 HD
BRANCH  17  19
HETATM   19  C   UNK N   1      33.900  14.832   2.610  0.00  0.00     0.133 C 
BRANCH  19  20
HETATM   20  C   UNK N   1      34.886  13.695   2.793  0.00  0.00     0.090 C 
BRANCH  20  21
HETATM   21  S   UNK N   1      35.750  13.339   1.242  0.00  0.00    -0.181 SA
HETATM   22  H   UNK N   1      36.624  12.300   1.173  0.00  0.00     0.101 HD
ENDBRANCH  20  21
ENDBRANCH  19  20
ENDBRANCH  17  19
ENDBRANCH   5  15
TORSDOF 8
ENDMDL
MODEL 6
REMARK VINA RESULT:      -5.1      9.383     13.100
REMARK  8 active torsions:
REMARK  status: ('A' for Active; 'I' for Inactive)
REMARK    1  A    between atoms: C_3  and  C_13 
REMARK    2  A    between atoms: C_5  and  C_7 
REMARK       I    between atoms: C_7  and  N_9 
REMARK    3  A    between atoms: N_9  and  C_10 
REMARK    4  A    between atoms: C_10  and  C_11 
REMARK    5  A    between atoms: C_11  and  S_12 
REMARK       I    between atoms: C_13  and  N_15 
REMARK    6  A    between atoms: N_15  and  C_16 
REMARK    7  A    between atoms: C_16  and  C_17 
REMARK    8  A    between atoms: C_17  and  S_18 
ROOT
HETATM    1  C   UNK N   1      35.138  13.360  19.032  0.00  0.00     0.002 A 
HETATM    2  C   UNK N   1      35.429  12.073  19.484  0.00  0.00     0.017 A 
HETATM    3  C   UNK N   1      35.666  11.029  18.574  0.00  0.00     0.033 A 
HETATM    4  C   UNK N   1      35.606  11.308  17.197  0.00  0.00     0.034 A 
HETATM    5  C   UNK N   1      35.314  12.599  16.737  0.00  0.00     0.033 A 
HETATM    6  C   UNK N   1      35.081  13.620  17.665  0.00  0.00     0.017 A 
ENDROOT
BRANCH   3   7
HETATM    7  C   UNK N   1      35.977   9.665  19.108  0.00  0.00     0.251 C 
HETATM    8  O   UNK N   1      37.142   9.393  19.358  0.00  0.00    -0.268 OA
HETATM    9  N   UNK N   1      35.035   8.708  19.328  0.00  0.00    -0.356 N 
HETATM   10  H   UNK N   1      35.345   7.837  19.670  0.00  0.00     0.162 HD
BRANCH   9  11
HETATM   11  C   UNK N   1      33.618   8.868  19.099  0.00  0.00     0.133 C 
BRANCH  11  12
HETATM   12  C   UNK N   1      32.789   8.843  20.387  0.00  0.00     0.090 C 
BRANCH  12  13
HETATM   13  S   UNK N   1      31.116   8.135  20.220  0.00  0.00    -0.181 SA
HETATM   14  H   UNK N   1      30.103   8.588  21.007  0.00  0.00     0.101 HD
ENDBRANCH  12  13
ENDBRANCH  11  12
ENDBRANCH   9  11
ENDBRANCH   3   7
BRANCH   5  15
HETATM   15  C   UNK N   1      35.248  12.898  15.292  0.00  0.00     0.251 C 
HETATM   16  O   UNK N   1      34.218  12.707  14.662  0.00  0.00    -0.268 OA
HETATM   17  N   UNK N   1      36.352  13.389  14.678  0.00  0.00    -0.356 N 
HETATM   18  H   UNK N   1      37.161  13.528  15.223  0.00  0.00     0.162 HD
BRANCH  17  19
HETATM   19  C   UNK N   1      36.414  13.718  13.281  0.00  0.00     0.133 C 
BRANCH  19  20
HETATM   20  C   UNK N   1      37.091  12.562  12.571  0.00  0.00     0.090 C 
BRANCH  20  21
HETATM   21  S   UNK N   1      37.623  13.051  10.911  0.00  0.00    -0.181 SA
HETATM   22  H   UNK N   1      38.831  12.647  10.436  0.00  0.00     0.101 HD
ENDBRANCH  20  21
ENDBRANCH  19  20
ENDBRANCH  17  19
ENDBRANCH   5  15
TORSDOF 8
ENDMDL
MODEL 7
REMARK VINA RESULT:      -5.0      1.848      2.418
REMARK  8 active torsions:
REMARK  status: ('A' for Active; 'I' for Inactive)
REMARK    1  A    between atoms: C_3  and  C_13 
REMARK    2  A    between atoms: C_5  and  C_7 
REMARK       I    between atoms: C_7  and  N_9 
REMARK    3  A    between atoms: N_9  and  C_10 
REMARK    4  A    between atoms: C_10  and  C_11 
REMARK    5  A    between atoms: C_11  and  S_12 
REMARK       I    between atoms: C_13  and  N_15 
REMARK    6  A    between atoms: N_15  and  C_16 
REMARK    7  A    between atoms: C_16  and  C_17 
REMARK    8  A    between atoms: C_17  and  S_18 
ROOT
HETATM    1  C   UNK N   1      28.995  18.508   9.348  0.00  0.00     0.002 A 
HETATM    2  C   UNK N   1      28.119  18.169   8.318  0.00  0.00     0.017 A 
HETATM    3  C   UNK N   1      28.594  17.582   7.134  0.00  0.00     0.033 A 
HETATM    4  C   UNK N   1      29.975  17.342   7.007  0.00  0.00     0.034 A 
HETATM    5  C   UNK N   1      30.860  17.681   8.038  0.00  0.00     0.033 A 
HETATM    6  C   UNK N   1      30.360  18.265   9.208  0.00  0.00     0.017 A 
ENDROOT
BRANCH   3   7
HETATM    7  C   UNK N   1      27.613  17.233   6.058  0.00  0.00     0.251 C 
HETATM    8  O   UNK N   1      26.997  16.183   6.155  0.00  0.00    -0.268 OA
HETATM    9  N   UNK N   1      27.370  18.020   4.974  0.00  0.00    -0.356 N 
HETATM   10  H   UNK N   1      26.714  17.694   4.315  0.00  0.00     0.162 HD
BRANCH   9  11
HETATM   11  C   UNK N   1      28.000  19.293   4.713  0.00  0.00     0.133 C 
BRANCH  11  12
HETATM   12  C   UNK N   1      27.031  20.477   4.792  0.00  0.00     0.090 C 
BRANCH  12  13
HETATM   13  S   UNK N   1      27.042  21.386   6.374  0.00  0.00    -0.181 SA
HETATM   14  H   UNK N   1      26.600  20.783   7.510  0.00  0.00     0.101 HD
ENDBRANCH  12  13
ENDBRANCH  11  12
ENDBRANCH   9  11
ENDBRANCH   3   7
BRANCH   5  15
HETATM   15  C   UNK N   1      32.311  17.432   7.911  0.00  0.00     0.251 C 
HETATM   16  O   UNK N   1      32.825  17.286   6.812  0.00  0.00    -0.268 OA
HETATM   17  N   UNK N   1      33.062  17.370   9.038  0.00  0.00    -0.356 N 
HETATM   18  H   UNK N   1      32.608  17.493   9.904  0.00  0.00     0.162 HD
BRANCH  17  19
HETATM   19  C   UNK N   1      34.479  17.134   9.046  0.00  0.00     0.133 C 
BRANCH  19  20
HETATM   20  C   UNK N   1      34.711  15.780   9.687  0.00  0.00     0.090 C 
BRANCH  20  21
HETATM   21  S   UNK N   1      35.741  15.938  11.167  0.00  0.00    -0.181 SA
HETATM   22  H   UNK N   1      35.631  17.037  11.960  0.00  0.00     0.101 HD
ENDBRANCH  20  21
ENDBRANCH  19  20
ENDBRANCH  17  19
ENDBRANCH   5  15
TORSDOF 8
ENDMDL
MODEL 8
REMARK VINA RESULT:      -4.9      4.987      6.357
REMARK  8 active torsions:
REMARK  status: ('A' for Active; 'I' for Inactive)
REMARK    1  A    between atoms: C_3  and  C_13 
REMARK    2  A    between atoms: C_5  and  C_7 
REMARK       I    between atoms: C_7  and  N_9 
REMARK    3  A    between atoms: N_9  and  C_10 
REMARK    4  A    between atoms: C_10  and  C_11 
REMARK    5  A    between atoms: C_11  and  S_12 
REMARK       I    between atoms: C_13  and  N_15 
REMARK    6  A    between atoms: N_15  and  C_16 
REMARK    7  A    between atoms: C_16  and  C_17 
REMARK    8  A    between atoms: C_17  and  S_18 
ROOT
HETATM    1  C   UNK N   1      27.188  20.528   6.408  0.00  0.00     0.002 A 
HETATM    2  C   UNK N   1      26.340  20.833   5.344  0.00  0.00     0.017 A 
HETATM    3  C   UNK N   1      26.415  20.117   4.138  0.00  0.00     0.033 A 
HETATM    4  C   UNK N   1      27.363  19.084   4.024  0.00  0.00     0.034 A 
HETATM    5  C   UNK N   1      28.218  18.773   5.090  0.00  0.00     0.033 A 
HETATM    6  C   UNK N   1      28.122  19.503   6.281  0.00  0.00     0.017 A 
ENDROOT
BRANCH   3   7
HETATM    7  C   UNK N   1      25.482  20.481   3.025  0.00  0.00     0.251 C 
HETATM    8  O   UNK N   1      25.894  21.217   2.141  0.00  0.00    -0.268 OA
HETATM    9  N   UNK N   1      24.197  20.039   2.943  0.00  0.00    -0.356 N 
HETATM   10  H   UNK N   1      23.660  20.346   2.176  0.00  0.00     0.162 HD
BRANCH   9  11
HETATM   11  C   UNK N   1      23.559  19.157   3.892  0.00  0.00     0.133 C 
BRANCH  11  12
HETATM   12  C   UNK N   1      22.039  19.075   3.718  0.00  0.00     0.090 C 
BRANCH  12  13
HETATM   13  S   UNK N   1      21.311  20.354   2.639  0.00  0.00    -0.181 SA
HETATM   14  H   UNK N   1      21.950  21.541   2.461  0.00  0.00     0.101 HD
ENDBRANCH  12  13
ENDBRANCH  11  12
ENDBRANCH   9  11
ENDBRANCH   3   7
BRANCH   5  15
HETATM   15  C   UNK N   1      29.216  17.690   4.978  0.00  0.00     0.251 C 
HETATM   16  O   UNK N   1      29.695  17.177   5.979  0.00  0.00    -0.268 OA
HETATM   17  N   UNK N   1      29.591  17.276   3.742  0.00  0.00    -0.356 N 
HETATM   18  H   UNK N   1      29.180  17.716   2.963  0.00  0.00     0.162 HD
BRANCH  17  19
HETATM   19  C   UNK N   1      30.550  16.233   3.503  0.00  0.00     0.133 C 
BRANCH  19  20
HETATM   20  C   UNK N   1      31.772  16.876   2.875  0.00  0.00     0.090 C 
BRANCH  20  21
HETATM   21  S   UNK N   1      33.259  15.904   3.222  0.00  0.00    -0.181 SA
HETATM   22  H   UNK N   1      33.435  14.694   2.627  0.00  0.00     0.101 HD
ENDBRANCH  20  21
ENDBRANCH  19  20
ENDBRANCH  17  19
ENDBRANCH   5  15
TORSDOF 8
ENDMDL
MODEL 9
REMARK VINA RESULT:      -4.8      8.552     11.191
REMARK  8 active torsions:
REMARK  status: ('A' for Active; 'I' for Inactive)
REMARK    1  A    between atoms: C_3  and  C_13 
REMARK    2  A    between atoms: C_5  and  C_7 
REMARK       I    between atoms: C_7  and  N_9 
REMARK    3  A    between atoms: N_9  and  C_10 
REMARK    4  A    between atoms: C_10  and  C_11 
REMARK    5  A    between atoms: C_11  and  S_12 
REMARK       I    between atoms: C_13  and  N_15 
REMARK    6  A    between atoms: N_15  and  C_16 
REMARK    7  A    between atoms: C_16  and  C_17 
REMARK    8  A    between atoms: C_17  and  S_18 
ROOT
HETATM    1  C   UNK N   1      19.633  15.813   9.269  0.00  0.00     0.002 A 
HETATM    2  C   UNK N   1      20.127  14.514   9.163  0.00  0.00     0.017 A 
HETATM    3  C   UNK N   1      21.055  14.177   8.164  0.00  0.00     0.033 A 
HETATM    4  C   UNK N   1      21.479  15.178   7.271  0.00  0.00     0.034 A 
HETATM    5  C   UNK N   1      20.985  16.486   7.372  0.00  0.00     0.033 A 
HETATM    6  C   UNK N   1      20.061  16.794   8.377  0.00  0.00     0.017 A 
ENDROOT
BRANCH   3   7
HETATM    7  C   UNK N   1      21.558  12.768   8.093  0.00  0.00     0.251 C 
HETATM    8  O   UNK N   1      21.010  11.996   7.321  0.00  0.00    -0.268 OA
HETATM    9  N   UNK N   1      22.592  12.297   8.842  0.00  0.00    -0.356 N 
HETATM   10  H   UNK N   1      22.839  11.350   8.730  0.00  0.00     0.162 HD
BRANCH   9  11
HETATM   11  C   UNK N   1      23.355  13.076   9.790  0.00  0.00     0.133 C 
BRANCH  11  12
HETATM   12  C   UNK N   1      24.833  13.214   9.412  0.00  0.00     0.090 C 
BRANCH  12  13
HETATM   13  S   UNK N   1      25.149  13.803   7.714  0.00  0.00    -0.181 SA
HETATM   14  H   UNK N   1      26.149  14.694   7.478  0.00  0.00     0.101 HD
ENDBRANCH  12  13
ENDBRANCH  11  12
ENDBRANCH   9  11
ENDBRANCH   3   7
BRANCH   5  15
HETATM   15  C   UNK N   1      21.425  17.542   6.438  0.00  0.00     0.251 C 
HETATM   16  O   UNK N   1      21.366  18.721   6.756  0.00  0.00    -0.268 OA
HETATM   17  N   UNK N   1      21.896  17.178   5.220  0.00  0.00    -0.356 N 
HETATM   18  H   UNK N   1      21.927  16.218   5.003  0.00  0.00     0.162 HD
BRANCH  17  19
HETATM   19  C   UNK N   1      22.352  18.111   4.226  0.00  0.00     0.133 C 
BRANCH  19  20
HETATM   20  C   UNK N   1      21.225  18.300   3.230  0.00  0.00     0.090 C 
BRANCH  20  21
HETATM   21  S   UNK N   1      20.606  20.001   3.277  0.00  0.00    -0.181 SA
HETATM   22  H   UNK N   1      21.027  20.852   4.250  0.00  0.00     0.101 HD
ENDBRANCH  20  21
ENDBRANCH  19  20
ENDBRANCH  17  19
ENDBRANCH   5  15
TORSDOF 8
ENDMDL
