MODEL 1
REMARK VINA RESULT:      -5.5      0.000      0.000
REMARK  14 active torsions:
REMARK  status: ('A' for Active; 'I' for Inactive)
REMARK    1  A    between atoms: C_4  and  C_7 
REMARK    2  A    between atoms: C_7  and  S_8 
REMARK    3  A    between atoms: S_8  and  C_9 
REMARK    4  A    between atoms: C_9  and  C_10 
REMARK    5  A    between atoms: C_10  and  C_11 
REMARK    6  A    between atoms: C_11  and  C_12 
REMARK    7  A    between atoms: C_11  and  S_19 
REMARK    8  A    between atoms: C_12  and  C_13 
REMARK    9  A    between atoms: C_13  and  C_14 
REMARK   10  A    between atoms: C_14  and  C_15 
REMARK   11  A    between atoms: C_15  and  C_16 
REMARK   12  A    between atoms: C_16  and  O_18 
REMARK   13  A    between atoms: S_19  and  C_20 
REMARK   14  A    between atoms: C_20  and  C_21 
ROOT
HETATM    1  C   UNK N   1      28.304  23.764  -6.938  0.00  0.00     0.048 C 
ENDROOT
BRANCH   1   2
HETATM    2  C   UNK N   1      29.151  23.972  -8.176  0.00  0.00     0.025 C 
BRANCH   2   3
HETATM    3  C   UNK N   1      28.453  24.928  -9.121  0.00  0.00     0.075 C 
BRANCH   3   4
HETATM    4  S   UNK N   1      29.248  26.560  -9.098  0.00  0.00    -0.164 SA
BRANCH   4   5
HETATM    5  C   UNK N   1      27.843  27.295  -8.209  0.00  0.00     0.112 C 
BRANCH   5   6
HETATM    6  C   UNK N   1      28.301  27.855  -6.907  0.00  0.00    -0.049 A 
HETATM    7  C   UNK N   1      27.973  29.169  -6.562  0.00  0.00     0.008 A 
HETATM    8  C   UNK N   1      28.411  29.703  -5.348  0.00  0.00     0.001 A 
HETATM    9  C   UNK N   1      29.178  28.922  -4.475  0.00  0.00     0.000 A 
HETATM   10  C   UNK N   1      29.500  27.606  -4.813  0.00  0.00     0.001 A 
HETATM   11  C   UNK N   1      29.062  27.073  -6.028  0.00  0.00     0.008 A 
ENDBRANCH   5   6
ENDBRANCH   4   5
ENDBRANCH   3   4
ENDBRANCH   2   3
ENDBRANCH   1   2
BRANCH   1  12
HETATM   12  C   UNK N   1      28.657  22.448  -6.273  0.00  0.00     0.015 C 
BRANCH  12  13
HETATM   13  C   UNK N   1      29.902  22.579  -5.397  0.00  0.00     0.002 C 
BRANCH  13  14
HETATM   14  C   UNK N   1      30.099  21.415  -4.422  0.00  0.00     0.010 C 
BRANCH  14  15
HETATM   15  C   UNK N   1      31.563  21.159  -4.065  0.00  0.00     0.110 C 
BRANCH  15  16
HETATM   16  C   UNK N   1      31.917  21.639  -2.695  0.00  0.00     0.139 C 
HETATM   17  O   UNK N   1      31.215  22.471  -2.147  0.00  0.00    -0.650 OA
BRANCH  16  18
HETATM   18  O   UNK N   1      32.980  21.127  -2.047  0.00  0.00    -0.776 OA
HETATM   19  H   UNK N   1      33.090  20.292  -1.637  0.00  0.00     0.167 HD
ENDBRANCH  16  18
ENDBRANCH  15  16
ENDBRANCH  14  15
ENDBRANCH  13  14
ENDBRANCH  12  13
ENDBRANCH   1  12
BRANCH   1  20
HETATM   20  S   UNK N   1      26.528  23.789  -7.337  0.00  0.00    -0.160 SA
BRANCH  20  21
HETATM   21  C   UNK N   1      26.067  23.757  -5.579  0.00  0.00     0.112 C 
BRANCH  21  22
HETATM   22  C   UNK N   1      25.910  25.141  -5.050  0.00  0.00    -0.049 A 
HETATM   23  C   UNK N   1      26.450  25.476  -3.803  0.00  0.00     0.008 A 
HETATM   24  C   UNK N   1      26.294  26.770  -3.298  0.00  0.00     0.001 A 
HETATM   25  C   UNK N   1      25.588  27.728  -4.032  0.00  0.00     0.000 A 
HETATM   26  C   UNK N   1      25.041  27.393  -5.275  0.00  0.00     0.001 A 
HETATM   27  C   UNK N   1      25.202  26.100  -5.784  0.00  0.00     0.008 A 
ENDBRANCH  21  22
ENDBRANCH  20  21
ENDBRANCH   1  20
TORSDOF 14
ENDMDL
MODEL 2
REMARK VINA RESULT:      -5.4      3.239      6.053
REMARK  14 active torsions:
REMARK  status: ('A' for Active; 'I' for Inactive)
REMARK    1  A    between atoms: C_4  and  C_7 
REMARK    2  A    between atoms: C_7  and  S_8 
REMARK    3  A    between atoms: S_8  and  C_9 
REMARK    4  A    between atoms: C_9  and  C_10 
REMARK    5  A    between atoms: C_10  and  C_11 
REMARK    6  A    between atoms: C_11  and  C_12 
REMARK    7  A    between atoms: C_11  and  S_19 
REMARK    8  A    between atoms: C_12  and  C_13 
REMARK    9  A    between atoms: C_13  and  C_14 
REMARK   10  A    between atoms: C_14  and  C_15 
REMARK   11  A    between atoms: C_15  and  C_16 
REMARK   12  A    between atoms: C_16  and  O_18 
REMARK   13  A    between atoms: S_19  and  C_20 
REMARK   14  A    between atoms: C_20  and  C_21 
ROOT
HETATM    1  C   UNK N   1      28.660  25.220  -4.649  0.00  0.00     0.048 C 
ENDROOT
BRANCH   1   2
HETATM    2  C   UNK N   1      27.680  24.453  -3.785  0.00  0.00     0.025 C 
BRANCH   2   3
HETATM    3  C   UNK N   1      26.344  25.166  -3.768  0.00  0.00     0.075 C 
BRANCH   3   4
HETATM    4  S   UNK N   1      26.556  26.940  -3.448  0.00  0.00    -0.164 SA
BRANCH   4   5
HETATM    5  C   UNK N   1      25.451  27.378  -4.825  0.00  0.00     0.112 C 
BRANCH   5   6
HETATM    6  C   UNK N   1      26.189  27.290  -6.117  0.00  0.00    -0.049 A 
HETATM    7  C   UNK N   1      27.316  28.089  -6.327  0.00  0.00     0.008 A 
HETATM    8  C   UNK N   1      28.004  28.020  -7.542  0.00  0.00     0.001 A 
HETATM    9  C   UNK N   1      27.566  27.150  -8.547  0.00  0.00     0.000 A 
HETATM   10  C   UNK N   1      26.444  26.345  -8.336  0.00  0.00     0.001 A 
HETATM   11  C   UNK N   1      25.757  26.414  -7.121  0.00  0.00     0.008 A 
ENDBRANCH   5   6
ENDBRANCH   4   5
ENDBRANCH   3   4
ENDBRANCH   2   3
ENDBRANCH   1   2
BRANCH   1  12
HETATM   12  C   UNK N   1      28.842  24.523  -5.983  0.00  0.00     0.015 C 
BRANCH  12  13
HETATM   13  C   UNK N   1      28.145  23.163  -6.005  0.00  0.00     0.002 C 
BRANCH  13  14
HETATM   14  C   UNK N   1      27.173  22.983  -7.174  0.00  0.00     0.010 C 
BRANCH  14  15
HETATM   15  C   UNK N   1      25.742  22.673  -6.736  0.00  0.00     0.110 C 
BRANCH  15  16
HETATM   16  C   UNK N   1      25.042  21.738  -7.666  0.00  0.00     0.139 C 
HETATM   17  O   UNK N   1      25.610  20.731  -8.052  0.00  0.00    -0.650 OA
BRANCH  16  18
HETATM   18  O   UNK N   1      23.772  21.978  -8.046  0.00  0.00    -0.776 OA
HETATM   19  H   UNK N   1      23.443  22.386  -8.822  0.00  0.00     0.167 HD
ENDBRANCH  16  18
ENDBRANCH  15  16
ENDBRANCH  14  15
ENDBRANCH  13  14
ENDBRANCH  12  13
ENDBRANCH   1  12
BRANCH   1  20
HETATM   20  S   UNK N   1      30.273  25.395  -3.826  0.00  0.00    -0.160 SA
BRANCH  20  21
HETATM   21  C   UNK N   1      30.067  23.818  -2.945  0.00  0.00     0.112 C 
BRANCH  21  22
HETATM   22  C   UNK N   1      30.891  22.750  -3.577  0.00  0.00    -0.049 A 
HETATM   23  C   UNK N   1      32.108  23.076  -4.184  0.00  0.00     0.008 A 
HETATM   24  C   UNK N   1      32.878  22.078  -4.789  0.00  0.00     0.001 A 
HETATM   25  C   UNK N   1      32.426  20.755  -4.800  0.00  0.00     0.000 A 
HETATM   26  C   UNK N   1      31.205  20.428  -4.202  0.00  0.00     0.001 A 
HETATM   27  C   UNK N   1      30.437  21.425  -3.590  0.00  0.00     0.008 A 
ENDBRANCH  21  22
ENDBRANCH  20  21
ENDBRANCH   1  20
TORSDOF 14
ENDMDL
MODEL 3
REMARK VINA RESULT:      -5.4     12.252     15.173
REMARK  14 active torsions:
REMARK  status: ('A' for Active; 'I' for Inactive)
REMARK    1  A    between atoms: C_4  and  C_7 
REMARK    2  A    between atoms: C_7  and  S_8 
REMARK    3  A    between atoms: S_8  and  C_9 
REMARK    4  A    between atoms: C_9  and  C_10 
REMARK    5  A    between atoms: C_10  and  C_11 
REMARK    6  A    between atoms: C_11  and  C_12 
REMARK    7  A    between atoms: C_11  and  S_19 
REMARK    8  A    between atoms: C_12  and  C_13 
REMARK    9  A    between atoms: C_13  and  C_14 
REMARK   10  A    between atoms: C_14  and  C_15 
REMARK   11  A    between atoms: C_15  and  C_16 
REMARK   12  A    between atoms: C_16  and  O_18 
REMARK   13  A    between atoms: S_19  and  C_20 
REMARK   14  A    between atoms: C_20  and  C_21 
ROOT
HETATM    1  C   UNK N   1      31.010  17.193   4.295  0.00  0.00     0.048 C 
ENDROOT
BRANCH   1   2
HETATM    2  C   UNK N   1      31.536  16.418   3.105  0.00  0.00     0.025 C 
BRANCH   2   3
HETATM    3  C   UNK N   1      31.026  14.993   3.153  0.00  0.00     0.075 C 
BRANCH   3   4
HETATM    4  S   UNK N   1      32.387  13.807   2.962  0.00  0.00    -0.164 SA
BRANCH   4   5
HETATM    5  C   UNK N   1      32.201  13.231   4.677  0.00  0.00     0.112 C 
BRANCH   5   6
HETATM    6  C   UNK N   1      33.280  13.809   5.527  0.00  0.00    -0.049 A 
HETATM    7  C   UNK N   1      33.233  13.643   6.914  0.00  0.00     0.008 A 
HETATM    8  C   UNK N   1      34.236  14.193   7.717  0.00  0.00     0.001 A 
HETATM    9  C   UNK N   1      35.288  14.909   7.134  0.00  0.00     0.000 A 
HETATM   10  C   UNK N   1      35.340  15.069   5.747  0.00  0.00     0.001 A 
HETATM   11  C   UNK N   1      34.338  14.518   4.945  0.00  0.00     0.008 A 
ENDBRANCH   5   6
ENDBRANCH   4   5
ENDBRANCH   3   4
ENDBRANCH   2   3
ENDBRANCH   1   2
BRANCH   1  12
HETATM   12  C   UNK N   1      32.074  17.292   5.370  0.00  0.00     0.015 C 
BRANCH  12  13
HETATM   13  C   UNK N   1      31.519  16.920   6.744  0.00  0.00     0.002 C 
BRANCH  13  14
HETATM   14  C   UNK N   1      32.364  17.433   7.914  0.00  0.00     0.010 C 
BRANCH  14  15
HETATM   15  C   UNK N   1      33.657  18.122   7.477  0.00  0.00     0.110 C 
BRANCH  15  16
HETATM   16  C   UNK N   1      34.622  18.309   8.602  0.00  0.00     0.139 C 
HETATM   17  O   UNK N   1      34.644  17.506   9.518  0.00  0.00    -0.650 OA
BRANCH  16  18
HETATM   18  O   UNK N   1      35.494  19.334   8.587  0.00  0.00    -0.776 OA
HETATM   19  H   UNK N   1      35.400  20.201   8.244  0.00  0.00     0.167 HD
ENDBRANCH  16  18
ENDBRANCH  15  16
ENDBRANCH  14  15
ENDBRANCH  13  14
ENDBRANCH  12  13
ENDBRANCH   1  12
BRANCH   1  20
HETATM   20  S   UNK N   1      29.516  16.415   4.983  0.00  0.00    -0.160 SA
BRANCH  20  21
HETATM   21  C   UNK N   1      28.427  17.548   4.069  0.00  0.00     0.112 C 
BRANCH  21  22
HETATM   22  C   UNK N   1      28.018  18.694   4.929  0.00  0.00    -0.049 A 
HETATM   23  C   UNK N   1      27.480  19.846   4.346  0.00  0.00     0.008 A 
HETATM   24  C   UNK N   1      27.107  20.928   5.148  0.00  0.00     0.001 A 
HETATM   25  C   UNK N   1      27.282  20.865   6.534  0.00  0.00     0.000 A 
HETATM   26  C   UNK N   1      27.827  19.717   7.118  0.00  0.00     0.001 A 
HETATM   27  C   UNK N   1      28.195  18.632   6.317  0.00  0.00     0.008 A 
ENDBRANCH  21  22
ENDBRANCH  20  21
ENDBRANCH   1  20
TORSDOF 14
ENDMDL
MODEL 4
REMARK VINA RESULT:      -5.4      1.297      3.684
REMARK  14 active torsions:
REMARK  status: ('A' for Active; 'I' for Inactive)
REMARK    1  A    between atoms: C_4  and  C_7 
REMARK    2  A    between atoms: C_7  and  S_8 
REMARK    3  A    between atoms: S_8  and  C_9 
REMARK    4  A    between atoms: C_9  and  C_10 
REMARK    5  A    between atoms: C_10  and  C_11 
REMARK    6  A    between atoms: C_11  and  C_12 
REMARK    7  A    between atoms: C_11  and  S_19 
REMARK    8  A    between atoms: C_12  and  C_13 
REMARK    9  A    between atoms: C_13  and  C_14 
REMARK   10  A    between atoms: C_14  and  C_15 
REMARK   11  A    between atoms: C_15  and  C_16 
REMARK   12  A    between atoms: C_16  and  O_18 
REMARK   13  A    between atoms: S_19  and  C_20 
REMARK   14  A    between atoms: C_20  and  C_21 
ROOT
HETATM    1  C   UNK N   1      30.018  23.382  -7.024  0.00  0.00     0.048 C 
ENDROOT
BRANCH   1   2
HETATM    2  C   UNK N   1      28.751  23.268  -6.203  0.00  0.00     0.025 C 
BRANCH   2   3
HETATM    3  C   UNK N   1      27.649  22.655  -7.042  0.00  0.00     0.075 C 
BRANCH   3   4
HETATM    4  S   UNK N   1      26.189  23.733  -7.086  0.00  0.00    -0.164 SA
BRANCH   4   5
HETATM    5  C   UNK N   1      26.201  23.917  -5.277  0.00  0.00     0.112 C 
BRANCH   5   6
HETATM    6  C   UNK N   1      25.928  25.335  -4.909  0.00  0.00    -0.049 A 
HETATM    7  C   UNK N   1      26.413  25.843  -3.701  0.00  0.00     0.008 A 
HETATM    8  C   UNK N   1      26.150  27.169  -3.344  0.00  0.00     0.001 A 
HETATM    9  C   UNK N   1      25.402  27.988  -4.197  0.00  0.00     0.000 A 
HETATM   10  C   UNK N   1      24.923  27.485  -5.409  0.00  0.00     0.001 A 
HETATM   11  C   UNK N   1      25.186  26.160  -5.765  0.00  0.00     0.008 A 
ENDBRANCH   5   6
ENDBRANCH   4   5
ENDBRANCH   3   4
ENDBRANCH   2   3
ENDBRANCH   1   2
BRANCH   1  12
HETATM   12  C   UNK N   1      31.106  22.505  -6.437  0.00  0.00     0.015 C 
BRANCH  12  13
HETATM   13  C   UNK N   1      31.622  23.063  -5.112  0.00  0.00     0.002 C 
BRANCH  13  14
HETATM   14  C   UNK N   1      31.760  22.011  -4.008  0.00  0.00     0.010 C 
BRANCH  14  15
HETATM   15  C   UNK N   1      30.440  21.678  -3.313  0.00  0.00     0.110 C 
BRANCH  15  16
HETATM   16  C   UNK N   1      29.962  22.778  -2.422  0.00  0.00     0.139 C 
HETATM   17  O   UNK N   1      30.529  22.987  -1.364  0.00  0.00    -0.650 OA
BRANCH  16  18
HETATM   18  O   UNK N   1      28.937  23.565  -2.802  0.00  0.00    -0.776 OA
HETATM   19  H   UNK N   1      28.015  23.452  -2.683  0.00  0.00     0.167 HD
ENDBRANCH  16  18
ENDBRANCH  15  16
ENDBRANCH  14  15
ENDBRANCH  13  14
ENDBRANCH  12  13
ENDBRANCH   1  12
BRANCH   1  20
HETATM   20  S   UNK N   1      30.600  25.105  -7.110  0.00  0.00    -0.160 SA
BRANCH  20  21
HETATM   21  C   UNK N   1      29.609  25.578  -5.661  0.00  0.00     0.112 C 
BRANCH  21  22
HETATM   22  C   UNK N   1      29.114  26.976  -5.796  0.00  0.00    -0.049 A 
HETATM   23  C   UNK N   1      28.420  27.362  -6.947  0.00  0.00     0.008 A 
HETATM   24  C   UNK N   1      27.964  28.677  -7.083  0.00  0.00     0.001 A 
HETATM   25  C   UNK N   1      28.212  29.611  -6.073  0.00  0.00     0.000 A 
HETATM   26  C   UNK N   1      28.914  29.230  -4.925  0.00  0.00     0.001 A 
HETATM   27  C   UNK N   1      29.364  27.914  -4.785  0.00  0.00     0.008 A 
ENDBRANCH  21  22
ENDBRANCH  20  21
ENDBRANCH   1  20
TORSDOF 14
ENDMDL
MODEL 5
REMARK VINA RESULT:      -5.3     13.287     16.673
REMARK  14 active torsions:
REMARK  status: ('A' for Active; 'I' for Inactive)
REMARK    1  A    between atoms: C_4  and  C_7 
REMARK    2  A    between atoms: C_7  and  S_8 
REMARK    3  A    between atoms: S_8  and  C_9 
REMARK    4  A    between atoms: C_9  and  C_10 
REMARK    5  A    between atoms: C_10  and  C_11 
REMARK    6  A    between atoms: C_11  and  C_12 
REMARK    7  A    between atoms: C_11  and  S_19 
REMARK    8  A    between atoms: C_12  and  C_13 
REMARK    9  A    between atoms: C_13  and  C_14 
REMARK   10  A    between atoms: C_14  and  C_15 
REMARK   11  A    between atoms: C_15  and  C_16 
REMARK   12  A    between atoms: C_16  and  O_18 
REMARK   13  A    between atoms: S_19  and  C_20 
REMARK   14  A    between atoms: C_20  and  C_21 
ROOT
HETATM    1  C   UNK N   1      33.003  15.937   8.762  0.00  0.00     0.048 C 
ENDROOT
BRANCH   1   2
HETATM    2  C   UNK N   1      31.584  16.410   8.528  0.00  0.00     0.025 C 
BRANCH   2   3
HETATM    3  C   UNK N   1      31.525  17.922   8.616  0.00  0.00     0.075 C 
BRANCH   3   4
HETATM    4  S   UNK N   1      29.953  18.471   9.338  0.00  0.00    -0.164 SA
BRANCH   4   5
HETATM    5  C   UNK N   1      28.997  17.459   8.167  0.00  0.00     0.112 C 
BRANCH   5   6
HETATM    6  C   UNK N   1      28.593  18.284   6.994  0.00  0.00    -0.049 A 
HETATM    7  C   UNK N   1      27.972  19.519   7.196  0.00  0.00     0.008 A 
HETATM    8  C   UNK N   1      27.579  20.291   6.099  0.00  0.00     0.001 A 
HETATM    9  C   UNK N   1      27.810  19.829   4.798  0.00  0.00     0.000 A 
HETATM   10  C   UNK N   1      28.437  18.598   4.594  0.00  0.00     0.001 A 
HETATM   11  C   UNK N   1      28.830  17.827   5.691  0.00  0.00     0.008 A 
ENDBRANCH   5   6
ENDBRANCH   4   5
ENDBRANCH   3   4
ENDBRANCH   2   3
ENDBRANCH   1   2
BRANCH   1  12
HETATM   12  C   UNK N   1      33.947  17.121   8.832  0.00  0.00     0.015 C 
BRANCH  12  13
HETATM   13  C   UNK N   1      34.938  16.981   9.986  0.00  0.00     0.002 C 
BRANCH  13  14
HETATM   14  C   UNK N   1      34.843  15.643  10.726  0.00  0.00     0.010 C 
BRANCH  14  15
HETATM   15  C   UNK N   1      36.133  15.251  11.445  0.00  0.00     0.110 C 
BRANCH  15  16
HETATM   16  C   UNK N   1      35.883  14.505  12.716  0.00  0.00     0.139 C 
HETATM   17  O   UNK N   1      34.827  13.920  12.874  0.00  0.00    -0.650 OA
BRANCH  16  18
HETATM   18  O   UNK N   1      36.835  14.442  13.666  0.00  0.00    -0.776 OA
HETATM   19  H   UNK N   1      37.514  13.810  13.797  0.00  0.00     0.167 HD
ENDBRANCH  16  18
ENDBRANCH  15  16
ENDBRANCH  14  15
ENDBRANCH  13  14
ENDBRANCH  12  13
ENDBRANCH   1  12
BRANCH   1  20
HETATM   20  S   UNK N   1      33.546  14.799   7.449  0.00  0.00    -0.160 SA
BRANCH  20  21
HETATM   21  C   UNK N   1      34.361  16.142   6.533  0.00  0.00     0.112 C 
BRANCH  21  22
HETATM   22  C   UNK N   1      33.650  16.412   5.252  0.00  0.00    -0.049 A 
HETATM   23  C   UNK N   1      32.793  17.513   5.149  0.00  0.00     0.008 A 
HETATM   24  C   UNK N   1      32.114  17.763   3.953  0.00  0.00     0.001 A 
HETATM   25  C   UNK N   1      32.282  16.905   2.861  0.00  0.00     0.000 A 
HETATM   26  C   UNK N   1      33.131  15.799   2.965  0.00  0.00     0.001 A 
HETATM   27  C   UNK N   1      33.816  15.552   4.159  0.00  0.00     0.008 A 
ENDBRANCH  21  22
ENDBRANCH  20  21
ENDBRANCH   1  20
TORSDOF 14
ENDMDL
MODEL 6
REMARK VINA RESULT:      -5.3      2.223      4.775
REMARK  14 active torsions:
REMARK  status: ('A' for Active; 'I' for Inactive)
REMARK    1  A    between atoms: C_4  and  C_7 
REMARK    2  A    between atoms: C_7  and  S_8 
REMARK    3  A    between atoms: S_8  and  C_9 
REMARK    4  A    between atoms: C_9  and  C_10 
REMARK    5  A    between atoms: C_10  and  C_11 
REMARK    6  A    between atoms: C_11  and  C_12 
REMARK    7  A    between atoms: C_11  and  S_19 
REMARK    8  A    between atoms: C_12  and  C_13 
REMARK    9  A    between atoms: C_13  and  C_14 
REMARK   10  A    between atoms: C_14  and  C_15 
REMARK   11  A    between atoms: C_15  and  C_16 
REMARK   12  A    between atoms: C_16  and  O_18 
REMARK   13  A    between atoms: S_19  and  C_20 
REMARK   14  A    between atoms: C_20  and  C_21 
ROOT
HETATM    1  C   UNK N   1      29.964  27.884  -4.287  0.00  0.00     0.048 C 
ENDROOT
BRANCH   1   2
HETATM    2  C   UNK N   1      30.232  29.255  -3.701  0.00  0.00     0.025 C 
BRANCH   2   3
HETATM    3  C   UNK N   1      28.938  30.037  -3.612  0.00  0.00     0.075 C 
BRANCH   3   4
HETATM    4  S   UNK N   1      27.741  29.194  -2.538  0.00  0.00    -0.164 SA
BRANCH   4   5
HETATM    5  C   UNK N   1      26.478  29.201  -3.846  0.00  0.00     0.112 C 
BRANCH   5   6
HETATM    6  C   UNK N   1      26.157  27.803  -4.250  0.00  0.00    -0.049 A 
HETATM    7  C   UNK N   1      25.283  27.573  -5.317  0.00  0.00     0.008 A 
HETATM    8  C   UNK N   1      24.968  26.264  -5.692  0.00  0.00     0.001 A 
HETATM    9  C   UNK N   1      25.529  25.183  -5.001  0.00  0.00     0.000 A 
HETATM   10  C   UNK N   1      26.408  25.411  -3.940  0.00  0.00     0.001 A 
HETATM   11  C   UNK N   1      26.723  26.719  -3.566  0.00  0.00     0.008 A 
ENDBRANCH   5   6
ENDBRANCH   4   5
ENDBRANCH   3   4
ENDBRANCH   2   3
ENDBRANCH   1   2
BRANCH   1  12
HETATM   12  C   UNK N   1      30.541  26.807  -3.390  0.00  0.00     0.015 C 
BRANCH  12  13
HETATM   13  C   UNK N   1      31.329  25.772  -4.191  0.00  0.00     0.002 C 
BRANCH  13  14
HETATM   14  C   UNK N   1      31.114  24.330  -3.724  0.00  0.00     0.010 C 
BRANCH  14  15
HETATM   15  C   UNK N   1      29.649  23.988  -3.456  0.00  0.00     0.110 C 
BRANCH  15  16
HETATM   16  C   UNK N   1      29.450  23.263  -2.164  0.00  0.00     0.139 C 
HETATM   17  O   UNK N   1      30.418  22.934  -1.502  0.00  0.00    -0.650 OA
BRANCH  16  18
HETATM   18  O   UNK N   1      28.208  23.011  -1.709  0.00  0.00    -0.776 OA
HETATM   19  H   UNK N   1      27.391  22.993  -2.166  0.00  0.00     0.167 HD
ENDBRANCH  16  18
ENDBRANCH  15  16
ENDBRANCH  14  15
ENDBRANCH  13  14
ENDBRANCH  12  13
ENDBRANCH   1  12
BRANCH   1  20
HETATM   20  S   UNK N   1      30.666  27.728  -5.959  0.00  0.00    -0.160 SA
BRANCH  20  21
HETATM   21  C   UNK N   1      29.065  28.104  -6.735  0.00  0.00     0.112 C 
BRANCH  21  22
HETATM   22  C   UNK N   1      28.433  26.865  -7.267  0.00  0.00    -0.049 A 
HETATM   23  C   UNK N   1      28.824  25.616  -6.772  0.00  0.00     0.008 A 
HETATM   24  C   UNK N   1      28.243  24.449  -7.278  0.00  0.00     0.001 A 
HETATM   25  C   UNK N   1      27.278  24.529  -8.287  0.00  0.00     0.000 A 
HETATM   26  C   UNK N   1      26.892  25.776  -8.789  0.00  0.00     0.001 A 
HETATM   27  C   UNK N   1      27.468  26.943  -8.279  0.00  0.00     0.008 A 
ENDBRANCH  21  22
ENDBRANCH  20  21
ENDBRANCH   1  20
TORSDOF 14
ENDMDL
MODEL 7
REMARK VINA RESULT:      -5.3      1.494      2.393
REMARK  14 active torsions:
REMARK  status: ('A' for Active; 'I' for Inactive)
REMARK    1  A    between atoms: C_4  and  C_7 
REMARK    2  A    between atoms: C_7  and  S_8 
REMARK    3  A    between atoms: S_8  and  C_9 
REMARK    4  A    between atoms: C_9  and  C_10 
REMARK    5  A    between atoms: C_10  and  C_11 
REMARK    6  A    between atoms: C_11  and  C_12 
REMARK    7  A    between atoms: C_11  and  S_19 
REMARK    8  A    between atoms: C_12  and  C_13 
REMARK    9  A    between atoms: C_13  and  C_14 
REMARK   10  A    between atoms: C_14  and  C_15 
REMARK   11  A    between atoms: C_15  and  C_16 
REMARK   12  A    between atoms: C_16  and  O_18 
REMARK   13  A    between atoms: S_19  and  C_20 
REMARK   14  A    between atoms: C_20  and  C_21 
ROOT
HETATM    1  C   UNK N   1      28.845  22.994  -5.693  0.00  0.00     0.048 C 
ENDROOT
BRANCH   1   2
HETATM    2  C   UNK N   1      30.020  23.885  -5.347  0.00  0.00     0.025 C 
BRANCH   2   3
HETATM    3  C   UNK N   1      29.956  24.274  -3.885  0.00  0.00     0.075 C 
BRANCH   3   4
HETATM    4  S   UNK N   1      30.588  25.957  -3.632  0.00  0.00    -0.164 SA
BRANCH   4   5
HETATM    5  C   UNK N   1      30.358  26.368  -5.389  0.00  0.00     0.112 C 
BRANCH   5   6
HETATM    6  C   UNK N   1      29.516  27.590  -5.519  0.00  0.00    -0.049 A 
HETATM    7  C   UNK N   1      28.726  27.769  -6.658  0.00  0.00     0.008 A 
HETATM    8  C   UNK N   1      27.944  28.920  -6.792  0.00  0.00     0.001 A 
HETATM    9  C   UNK N   1      27.950  29.892  -5.785  0.00  0.00     0.000 A 
HETATM   10  C   UNK N   1      28.733  29.711  -4.643  0.00  0.00     0.001 A 
HETATM   11  C   UNK N   1      29.514  28.561  -4.509  0.00  0.00     0.008 A 
ENDBRANCH   5   6
ENDBRANCH   4   5
ENDBRANCH   3   4
ENDBRANCH   2   3
ENDBRANCH   1   2
BRANCH   1  12
HETATM   12  C   UNK N   1      29.319  21.765  -6.442  0.00  0.00     0.015 C 
BRANCH  12  13
HETATM   13  C   UNK N   1      30.822  21.551  -6.275  0.00  0.00     0.002 C 
BRANCH  13  14
HETATM   14  C   UNK N   1      31.184  20.361  -5.381  0.00  0.00     0.010 C 
BRANCH  14  15
HETATM   15  C   UNK N   1      30.995  20.637  -3.890  0.00  0.00     0.110 C 
BRANCH  15  16
HETATM   16  C   UNK N   1      32.171  21.324  -3.276  0.00  0.00     0.139 C 
HETATM   17  O   UNK N   1      32.029  21.959  -2.246  0.00  0.00    -0.650 OA
BRANCH  16  18
HETATM   18  O   UNK N   1      33.393  21.208  -3.829  0.00  0.00    -0.776 OA
HETATM   19  H   UNK N   1      34.111  20.654  -3.594  0.00  0.00     0.167 HD
ENDBRANCH  16  18
ENDBRANCH  15  16
ENDBRANCH  14  15
ENDBRANCH  13  14
ENDBRANCH  12  13
ENDBRANCH   1  12
BRANCH   1  20
HETATM   20  S   UNK N   1      27.611  23.882  -6.694  0.00  0.00    -0.160 SA
BRANCH  20  21
HETATM   21  C   UNK N   1      26.405  23.870  -5.333  0.00  0.00     0.112 C 
BRANCH  21  22
HETATM   22  C   UNK N   1      26.064  25.260  -4.920  0.00  0.00    -0.049 A 
HETATM   23  C   UNK N   1      25.254  26.052  -5.740  0.00  0.00     0.008 A 
HETATM   24  C   UNK N   1      24.941  27.361  -5.362  0.00  0.00     0.001 A 
HETATM   25  C   UNK N   1      25.448  27.884  -4.168  0.00  0.00     0.000 A 
HETATM   26  C   UNK N   1      26.265  27.097  -3.350  0.00  0.00     0.001 A 
HETATM   27  C   UNK N   1      26.572  25.785  -3.725  0.00  0.00     0.008 A 
ENDBRANCH  21  22
ENDBRANCH  20  21
ENDBRANCH   1  20
TORSDOF 14
ENDMDL
MODEL 8
REMARK VINA RESULT:      -5.2     11.618     15.708
REMARK  14 active torsions:
REMARK  status: ('A' for Active; 'I' for Inactive)
REMARK    1  A    between atoms: C_4  and  C_7 
REMARK    2  A    between atoms: C_7  and  S_8 
REMARK    3  A    between atoms: S_8  and  C_9 
REMARK    4  A    between atoms: C_9  and  C_10 
REMARK    5  A    between atoms: C_10  and  C_11 
REMARK    6  A    between atoms: C_11  and  C_12 
REMARK    7  A    between atoms: C_11  and  S_19 
REMARK    8  A    between atoms: C_12  and  C_13 
REMARK    9  A    between atoms: C_13  and  C_14 
REMARK   10  A    between atoms: C_14  and  C_15 
REMARK   11  A    between atoms: C_15  and  C_16 
REMARK   12  A    between atoms: C_16  and  O_18 
REMARK   13  A    between atoms: S_19  and  C_20 
REMARK   14  A    between atoms: C_20  and  C_21 
ROOT
HETATM    1  C   UNK N   1      27.868  18.261   5.990  0.00  0.00     0.048 C 
ENDROOT
BRANCH   1   2
HETATM    2  C   UNK N   1      28.335  17.627   7.284  0.00  0.00     0.025 C 
BRANCH   2   3
HETATM    3  C   UNK N   1      28.217  18.627   8.416  0.00  0.00     0.075 C 
BRANCH   3   4
HETATM    4  S   UNK N   1      29.728  18.649   9.423  0.00  0.00    -0.164 SA
BRANCH   4   5
HETATM    5  C   UNK N   1      30.257  17.038   8.766  0.00  0.00     0.112 C 
BRANCH   5   6
HETATM    6  C   UNK N   1      31.741  17.003   8.640  0.00  0.00    -0.049 A 
HETATM    7  C   UNK N   1      32.434  18.164   8.288  0.00  0.00     0.008 A 
HETATM    8  C   UNK N   1      33.826  18.134   8.155  0.00  0.00     0.001 A 
HETATM    9  C   UNK N   1      34.525  16.942   8.377  0.00  0.00     0.000 A 
HETATM   10  C   UNK N   1      33.834  15.782   8.737  0.00  0.00     0.001 A 
HETATM   11  C   UNK N   1      32.444  15.813   8.869  0.00  0.00     0.008 A 
ENDBRANCH   5   6
ENDBRANCH   4   5
ENDBRANCH   3   4
ENDBRANCH   2   3
ENDBRANCH   1   2
BRANCH   1  12
HETATM   12  C   UNK N   1      26.544  17.663   5.559  0.00  0.00     0.015 C 
BRANCH  12  13
HETATM   13  C   UNK N   1      26.402  17.652   4.038  0.00  0.00     0.002 C 
BRANCH  13  14
HETATM   14  C   UNK N   1      25.830  18.950   3.459  0.00  0.00     0.010 C 
BRANCH  14  15
HETATM   15  C   UNK N   1      24.432  19.285   3.977  0.00  0.00     0.110 C 
BRANCH  15  16
HETATM   16  C   UNK N   1      23.716  20.272   3.114  0.00  0.00     0.139 C 
HETATM   17  O   UNK N   1      22.515  20.427   3.242  0.00  0.00    -0.650 OA
BRANCH  16  18
HETATM   18  O   UNK N   1      24.398  21.021   2.226  0.00  0.00    -0.776 OA
HETATM   19  H   UNK N   1      24.126  21.376   1.403  0.00  0.00     0.167 HD
ENDBRANCH  16  18
ENDBRANCH  15  16
ENDBRANCH  14  15
ENDBRANCH  13  14
ENDBRANCH  12  13
ENDBRANCH   1  12
BRANCH   1  20
HETATM   20  S   UNK N   1      29.097  18.043   4.665  0.00  0.00    -0.160 SA
BRANCH  20  21
HETATM   21  C   UNK N   1      29.603  16.422   5.313  0.00  0.00     0.112 C 
BRANCH  21  22
HETATM   22  C   UNK N   1      31.076  16.239   5.184  0.00  0.00    -0.049 A 
HETATM   23  C   UNK N   1      31.883  17.322   4.818  0.00  0.00     0.008 A 
HETATM   24  C   UNK N   1      33.265  17.151   4.683  0.00  0.00     0.001 A 
HETATM   25  C   UNK N   1      33.839  15.895   4.902  0.00  0.00     0.000 A 
HETATM   26  C   UNK N   1      33.033  14.810   5.259  0.00  0.00     0.001 A 
HETATM   27  C   UNK N   1      31.652  14.981   5.401  0.00  0.00     0.008 A 
ENDBRANCH  21  22
ENDBRANCH  20  21
ENDBRANCH   1  20
TORSDOF 14
ENDMDL
MODEL 9
REMARK VINA RESULT:      -5.2     13.682     16.732
REMARK  14 active torsions:
REMARK  status: ('A' for Active; 'I' for Inactive)
REMARK    1  A    between atoms: C_4  and  C_7 
REMARK    2  A    between atoms: C_7  and  S_8 
REMARK    3  A    between atoms: S_8  and  C_9 
REMARK    4  A    between atoms: C_9  and  C_10 
REMARK    5  A    between atoms: C_10  and  C_11 
REMARK    6  A    between atoms: C_11  and  C_12 
REMARK    7  A    between atoms: C_11  and  S_19 
REMARK    8  A    between atoms: C_12  and  C_13 
REMARK    9  A    between atoms: C_13  and  C_14 
REMARK   10  A    between atoms: C_14  and  C_15 
REMARK   11  A    between atoms: C_15  and  C_16 
REMARK   12  A    between atoms: C_16  and  O_18 
REMARK   13  A    between atoms: S_19  and  C_20 
REMARK   14  A    between atoms: C_20  and  C_21 
ROOT
HETATM    1  C   UNK N   1      22.563  16.752   5.655  0.00  0.00     0.048 C 
ENDROOT
BRANCH   1   2
HETATM    2  C   UNK N   1      22.369  15.544   6.547  0.00  0.00     0.025 C 
BRANCH   2   3
HETATM    3  C   UNK N   1      22.166  14.306   5.697  0.00  0.00     0.075 C 
BRANCH   3   4
HETATM    4  S   UNK N   1      20.632  13.448   6.153  0.00  0.00    -0.164 SA
BRANCH   4   5
HETATM    5  C   UNK N   1      21.553  11.992   6.734  0.00  0.00     0.112 C 
BRANCH   5   6
HETATM    6  C   UNK N   1      21.971  12.187   8.151  0.00  0.00    -0.049 A 
HETATM    7  C   UNK N   1      21.182  12.962   9.006  0.00  0.00     0.008 A 
HETATM    8  C   UNK N   1      21.576  13.159  10.333  0.00  0.00     0.001 A 
HETATM    9  C   UNK N   1      22.758  12.578  10.807  0.00  0.00     0.000 A 
HETATM   10  C   UNK N   1      23.543  11.796   9.956  0.00  0.00     0.001 A 
HETATM   11  C   UNK N   1      23.149  11.600   8.630  0.00  0.00     0.008 A 
ENDBRANCH   5   6
ENDBRANCH   4   5
ENDBRANCH   3   4
ENDBRANCH   2   3
ENDBRANCH   1   2
BRANCH   1  12
HETATM   12  C   UNK N   1      21.224  17.265   5.165  0.00  0.00     0.015 C 
BRANCH  12  13
HETATM   13  C   UNK N   1      21.246  17.543   3.663  0.00  0.00     0.002 C 
BRANCH  13  14
HETATM   14  C   UNK N   1      20.901  18.989   3.295  0.00  0.00     0.010 C 
BRANCH  14  15
HETATM   15  C   UNK N   1      20.398  19.150   1.861  0.00  0.00     0.110 C 
BRANCH  15  16
HETATM   16  C   UNK N   1      20.928  20.379   1.197  0.00  0.00     0.139 C 
HETATM   17  O   UNK N   1      21.654  21.135   1.817  0.00  0.00    -0.650 OA
BRANCH  16  18
HETATM   18  O   UNK N   1      20.642  20.632  -0.095  0.00  0.00    -0.776 OA
HETATM   19  H   UNK N   1      20.772  20.101  -0.856  0.00  0.00     0.167 HD
ENDBRANCH  16  18
ENDBRANCH  15  16
ENDBRANCH  14  15
ENDBRANCH  13  14
ENDBRANCH  12  13
ENDBRANCH   1  12
BRANCH   1  20
HETATM   20  S   UNK N   1      23.627  16.360   4.231  0.00  0.00    -0.160 SA
BRANCH  20  21
HETATM   21  C   UNK N   1      25.089  17.067   5.048  0.00  0.00     0.112 C 
BRANCH  21  22
HETATM   22  C   UNK N   1      25.504  18.334   4.384  0.00  0.00    -0.049 A 
HETATM   23  C   UNK N   1      24.553  19.114   3.717  0.00  0.00     0.008 A 
HETATM   24  C   UNK N   1      24.940  20.298   3.082  0.00  0.00     0.001 A 
HETATM   25  C   UNK N   1      26.280  20.697   3.101  0.00  0.00     0.000 A 
HETATM   26  C   UNK N   1      27.233  19.914   3.760  0.00  0.00     0.001 A 
HETATM   27  C   UNK N   1      26.846  18.733   4.402  0.00  0.00     0.008 A 
ENDBRANCH  21  22
ENDBRANCH  20  21
ENDBRANCH   1  20
TORSDOF 14
ENDMDL
