MODEL 1
REMARK VINA RESULT:      -5.8      0.000      0.000
REMARK  3 active torsions:
REMARK  status: ('A' for Active; 'I' for Inactive)
REMARK       I    between atoms: C_2  and  N_4 
REMARK    1  A    between atoms: N_4  and  C_5 
REMARK    2  A    between atoms: C_8  and  C_11 
REMARK       I    between atoms: C_11  and  N_13 
REMARK    3  A    between atoms: N_13  and  C_14 
ROOT
HETATM    1  C   UNK N   1      30.578  21.895  -3.711  0.00  0.00     0.034 A 
HETATM    2  C   UNK N   1      30.185  22.553  -2.536  0.00  0.00     0.030 A 
HETATM    3  C   UNK N   1      29.153  23.502  -2.567  0.00  0.00     0.019 A 
HETATM    4  C   UNK N   1      28.512  23.802  -3.779  0.00  0.00     0.032 A 
HETATM    5  C   UNK N   1      28.932  23.168  -4.952  0.00  0.00     0.019 A 
HETATM    6  C   UNK N   1      29.954  22.229  -4.921  0.00  0.00     0.030 A 
ENDROOT
BRANCH   4   7
HETATM    7  C   UNK N   1      27.329  24.683  -3.825  0.00  0.00     0.252 C 
HETATM    8  O   UNK N   1      26.279  24.328  -3.314  0.00  0.00    -0.268 OA
HETATM    9  N   UNK N   1      27.424  25.858  -4.515  0.00  0.00    -0.349 N 
HETATM   10  H   UNK N   1      28.331  26.109  -4.804  0.00  0.00     0.163 HD
BRANCH   9  11
HETATM   11  C   UNK N   1      26.369  26.789  -4.880  0.00  0.00     0.022 C 
HETATM   12  C   UNK N   1      25.862  27.480  -3.633  0.00  0.00     0.037 C 
HETATM   13  C   UNK N   1      26.977  27.835  -5.791  0.00  0.00     0.037 C 
HETATM   14  C   UNK N   1      25.195  26.159  -5.614  0.00  0.00     0.037 C 
ENDBRANCH   9  11
ENDBRANCH   4   7
BRANCH   1  15
HETATM   15  N   UNK N   1      31.565  20.869  -3.639  0.00  0.00    -0.328 N 
HETATM   16  C   UNK N   1      32.888  21.022  -3.923  0.00  0.00     0.218 C 
HETATM   17  C   UNK N   1      33.794  19.844  -3.838  0.00  0.00     0.117 C 
HETATM   18  O   UNK N   1      33.347  22.100  -4.269  0.00  0.00    -0.274 OA
HETATM   19  H   UNK N   1      31.264  19.974  -3.358  0.00  0.00     0.169 HD
ENDBRANCH   1  15
TORSDOF 3
ENDMDL
MODEL 2
REMARK VINA RESULT:      -5.7     12.153     15.255
REMARK  3 active torsions:
REMARK  status: ('A' for Active; 'I' for Inactive)
REMARK       I    between atoms: C_2  and  N_4 
REMARK    1  A    between atoms: N_4  and  C_5 
REMARK    2  A    between atoms: C_8  and  C_11 
REMARK       I    between atoms: C_11  and  N_13 
REMARK    3  A    between atoms: N_13  and  C_14 
ROOT
HETATM    1  C   UNK N   1      28.695  18.206   7.234  0.00  0.00     0.034 A 
HETATM    2  C   UNK N   1      29.133  18.761   8.445  0.00  0.00     0.030 A 
HETATM    3  C   UNK N   1      30.421  18.485   8.926  0.00  0.00     0.019 A 
HETATM    4  C   UNK N   1      31.277  17.645   8.197  0.00  0.00     0.032 A 
HETATM    5  C   UNK N   1      30.822  17.067   7.008  0.00  0.00     0.019 A 
HETATM    6  C   UNK N   1      29.546  17.341   6.533  0.00  0.00     0.030 A 
ENDROOT
BRANCH   4   7
HETATM    7  C   UNK N   1      32.684  17.450   8.596  0.00  0.00     0.252 C 
HETATM    8  O   UNK N   1      33.551  18.199   8.176  0.00  0.00    -0.268 OA
HETATM    9  N   UNK N   1      32.992  16.371   9.376  0.00  0.00    -0.349 N 
HETATM   10  H   UNK N   1      32.222  15.884   9.750  0.00  0.00     0.163 HD
BRANCH   9  11
HETATM   11  C   UNK N   1      34.300  15.846   9.730  0.00  0.00     0.022 C 
HETATM   12  C   UNK N   1      34.128  14.692  10.695  0.00  0.00     0.037 C 
HETATM   13  C   UNK N   1      34.938  15.316   8.463  0.00  0.00     0.037 C 
HETATM   14  C   UNK N   1      35.250  16.867  10.337  0.00  0.00     0.037 C 
ENDBRANCH   9  11
ENDBRANCH   4   7
BRANCH   1  15
HETATM   15  N   UNK N   1      27.418  18.574   6.719  0.00  0.00    -0.328 N 
HETATM   16  C   UNK N   1      27.195  19.476   5.722  0.00  0.00     0.218 C 
HETATM   17  C   UNK N   1      25.797  19.786   5.317  0.00  0.00     0.117 C 
HETATM   18  O   UNK N   1      28.117  20.054   5.167  0.00  0.00    -0.274 OA
HETATM   19  H   UNK N   1      26.629  18.139   7.119  0.00  0.00     0.169 HD
ENDBRANCH   1  15
TORSDOF 3
ENDMDL
MODEL 3
REMARK VINA RESULT:      -5.7     14.142     16.750
REMARK  3 active torsions:
REMARK  status: ('A' for Active; 'I' for Inactive)
REMARK       I    between atoms: C_2  and  N_4 
REMARK    1  A    between atoms: N_4  and  C_5 
REMARK    2  A    between atoms: C_8  and  C_11 
REMARK       I    between atoms: C_11  and  N_13 
REMARK    3  A    between atoms: N_13  and  C_14 
ROOT
HETATM    1  C   UNK N   1      36.024  15.416  10.872  0.00  0.00     0.034 A 
HETATM    2  C   UNK N   1      35.378  16.658  10.775  0.00  0.00     0.030 A 
HETATM    3  C   UNK N   1      34.814  17.070   9.561  0.00  0.00     0.019 A 
HETATM    4  C   UNK N   1      34.897  16.242   8.431  0.00  0.00     0.032 A 
HETATM    5  C   UNK N   1      35.571  15.021   8.524  0.00  0.00     0.019 A 
HETATM    6  C   UNK N   1      36.131  14.613   9.728  0.00  0.00     0.030 A 
ENDROOT
BRANCH   4   7
HETATM    7  C   UNK N   1      34.190  16.576   7.180  0.00  0.00     0.252 C 
HETATM    8  O   UNK N   1      34.405  17.638   6.618  0.00  0.00    -0.268 OA
HETATM    9  N   UNK N   1      33.244  15.705   6.718  0.00  0.00    -0.349 N 
HETATM   10  H   UNK N   1      33.211  14.833   7.174  0.00  0.00     0.163 HD
BRANCH   9  11
HETATM   11  C   UNK N   1      32.280  15.890   5.647  0.00  0.00     0.022 C 
HETATM   12  C   UNK N   1      33.016  15.995   4.328  0.00  0.00     0.037 C 
HETATM   13  C   UNK N   1      31.400  14.658   5.604  0.00  0.00     0.037 C 
HETATM   14  C   UNK N   1      31.375  17.101   5.811  0.00  0.00     0.037 C 
ENDBRANCH   9  11
ENDBRANCH   4   7
BRANCH   1  15
HETATM   15  N   UNK N   1      36.509  14.979  12.139  0.00  0.00    -0.328 N 
HETATM   16  C   UNK N   1      35.824  14.202  13.024  0.00  0.00     0.218 C 
HETATM   17  C   UNK N   1      36.450  13.856  14.328  0.00  0.00     0.117 C 
HETATM   18  O   UNK N   1      34.695  13.800  12.780  0.00  0.00    -0.274 OA
HETATM   19  H   UNK N   1      37.417  15.261  12.395  0.00  0.00     0.169 HD
ENDBRANCH   1  15
TORSDOF 3
ENDMDL
MODEL 4
REMARK VINA RESULT:      -5.6     23.448     25.977
REMARK  3 active torsions:
REMARK  status: ('A' for Active; 'I' for Inactive)
REMARK       I    between atoms: C_2  and  N_4 
REMARK    1  A    between atoms: N_4  and  C_5 
REMARK    2  A    between atoms: C_8  and  C_11 
REMARK       I    between atoms: C_11  and  N_13 
REMARK    3  A    between atoms: N_13  and  C_14 
ROOT
HETATM    1  C   UNK N   1      35.515  11.085  19.912  0.00  0.00     0.034 A 
HETATM    2  C   UNK N   1      35.200  12.442  19.751  0.00  0.00     0.030 A 
HETATM    3  C   UNK N   1      35.132  13.006  18.469  0.00  0.00     0.019 A 
HETATM    4  C   UNK N   1      35.384  12.213  17.339  0.00  0.00     0.032 A 
HETATM    5  C   UNK N   1      35.731  10.869  17.508  0.00  0.00     0.019 A 
HETATM    6  C   UNK N   1      35.799  10.312  18.778  0.00  0.00     0.030 A 
ENDROOT
BRANCH   4   7
HETATM    7  C   UNK N   1      35.178  12.733  15.974  0.00  0.00     0.252 C 
HETATM    8  O   UNK N   1      34.122  13.267  15.673  0.00  0.00    -0.268 OA
HETATM    9  N   UNK N   1      36.164  12.532  15.049  0.00  0.00    -0.349 N 
HETATM   10  H   UNK N   1      37.015  12.188  15.404  0.00  0.00     0.163 HD
BRANCH   9  11
HETATM   11  C   UNK N   1      36.126  12.757  13.614  0.00  0.00     0.022 C 
HETATM   12  C   UNK N   1      36.251  14.240  13.339  0.00  0.00     0.037 C 
HETATM   13  C   UNK N   1      37.327  12.058  13.010  0.00  0.00     0.037 C 
HETATM   14  C   UNK N   1      34.881  12.224  12.922  0.00  0.00     0.037 C 
ENDBRANCH   9  11
ENDBRANCH   4   7
BRANCH   1  15
HETATM   15  N   UNK N   1      35.489  10.513  21.217  0.00  0.00    -0.328 N 
HETATM   16  C   UNK N   1      34.429   9.866  21.777  0.00  0.00     0.218 C 
HETATM   17  C   UNK N   1      34.539   9.353  23.170  0.00  0.00     0.117 C 
HETATM   18  O   UNK N   1      33.379   9.716  21.170  0.00  0.00    -0.274 OA
HETATM   19  H   UNK N   1      36.307  10.592  21.760  0.00  0.00     0.169 HD
ENDBRANCH   1  15
TORSDOF 3
ENDMDL
MODEL 5
REMARK VINA RESULT:      -5.6     11.246     12.700
REMARK  3 active torsions:
REMARK  status: ('A' for Active; 'I' for Inactive)
REMARK       I    between atoms: C_2  and  N_4 
REMARK    1  A    between atoms: N_4  and  C_5 
REMARK    2  A    between atoms: C_8  and  C_11 
REMARK       I    between atoms: C_11  and  N_13 
REMARK    3  A    between atoms: N_13  and  C_14 
ROOT
HETATM    1  C   UNK N   1      31.631  16.828   8.320  0.00  0.00     0.034 A 
HETATM    2  C   UNK N   1      31.512  16.218   7.063  0.00  0.00     0.030 A 
HETATM    3  C   UNK N   1      30.442  16.540   6.218  0.00  0.00     0.019 A 
HETATM    4  C   UNK N   1      29.478  17.474   6.630  0.00  0.00     0.032 A 
HETATM    5  C   UNK N   1      29.583  18.052   7.899  0.00  0.00     0.019 A 
HETATM    6  C   UNK N   1      30.644  17.732   8.736  0.00  0.00     0.030 A 
ENDROOT
BRANCH   4   7
HETATM    7  C   UNK N   1      28.423  17.945   5.713  0.00  0.00     0.252 C 
HETATM    8  O   UNK N   1      28.219  17.362   4.661  0.00  0.00    -0.268 OA
HETATM    9  N   UNK N   1      27.745  19.086   6.039  0.00  0.00    -0.349 N 
HETATM   10  H   UNK N   1      27.903  19.429   6.948  0.00  0.00     0.163 HD
BRANCH   9  11
HETATM   11  C   UNK N   1      26.822  19.861   5.227  0.00  0.00     0.022 C 
HETATM   12  C   UNK N   1      25.485  19.154   5.180  0.00  0.00     0.037 C 
HETATM   13  C   UNK N   1      26.629  21.201   5.906  0.00  0.00     0.037 C 
HETATM   14  C   UNK N   1      27.297  20.124   3.806  0.00  0.00     0.037 C 
ENDBRANCH   9  11
ENDBRANCH   4   7
BRANCH   1  15
HETATM   15  N   UNK N   1      32.777  16.553   9.123  0.00  0.00    -0.328 N 
HETATM   16  C   UNK N   1      33.964  17.218   9.062  0.00  0.00     0.218 C 
HETATM   17  C   UNK N   1      35.086  16.791   9.942  0.00  0.00     0.117 C 
HETATM   18  O   UNK N   1      34.138  18.145   8.284  0.00  0.00    -0.274 OA
HETATM   19  H   UNK N   1      32.702  15.821   9.778  0.00  0.00     0.169 HD
ENDBRANCH   1  15
TORSDOF 3
ENDMDL
MODEL 6
REMARK VINA RESULT:      -5.5     23.773     26.482
REMARK  3 active torsions:
REMARK  status: ('A' for Active; 'I' for Inactive)
REMARK       I    between atoms: C_2  and  N_4 
REMARK    1  A    between atoms: N_4  and  C_5 
REMARK    2  A    between atoms: C_8  and  C_11 
REMARK       I    between atoms: C_11  and  N_13 
REMARK    3  A    between atoms: N_13  and  C_14 
ROOT
HETATM    1  C   UNK N   1      36.129  12.607  16.057  0.00  0.00     0.034 A 
HETATM    2  C   UNK N   1      36.478  11.251  15.970  0.00  0.00     0.030 A 
HETATM    3  C   UNK N   1      36.126  10.362  16.995  0.00  0.00     0.019 A 
HETATM    4  C   UNK N   1      35.425  10.828  18.118  0.00  0.00     0.032 A 
HETATM    5  C   UNK N   1      35.111  12.187  18.215  0.00  0.00     0.019 A 
HETATM    6  C   UNK N   1      35.461  13.067  17.200  0.00  0.00     0.030 A 
ENDROOT
BRANCH   4   7
HETATM    7  C   UNK N   1      34.911   9.899  19.143  0.00  0.00     0.252 C 
HETATM    8  O   UNK N   1      34.959   8.694  18.959  0.00  0.00    -0.268 OA
HETATM    9  N   UNK N   1      34.318  10.426  20.255  0.00  0.00    -0.349 N 
HETATM   10  H   UNK N   1      34.415  11.399  20.368  0.00  0.00     0.163 HD
BRANCH   9  11
HETATM   11  C   UNK N   1      33.562   9.747  21.294  0.00  0.00     0.022 C 
HETATM   12  C   UNK N   1      34.508   8.914  22.132  0.00  0.00     0.037 C 
HETATM   13  C   UNK N   1      32.948  10.809  22.182  0.00  0.00     0.037 C 
HETATM   14  C   UNK N   1      32.437   8.860  20.782  0.00  0.00     0.037 C 
ENDBRANCH   9  11
ENDBRANCH   4   7
BRANCH   1  15
HETATM   15  N   UNK N   1      36.417  13.472  14.962  0.00  0.00    -0.328 N 
HETATM   16  C   UNK N   1      35.619  13.666  13.875  0.00  0.00     0.218 C 
HETATM   17  C   UNK N   1      36.073  14.577  12.789  0.00  0.00     0.117 C 
HETATM   18  O   UNK N   1      34.547  13.090  13.759  0.00  0.00    -0.274 OA
HETATM   19  H   UNK N   1      37.264  13.974  14.995  0.00  0.00     0.169 HD
ENDBRANCH   1  15
TORSDOF 3
ENDMDL
MODEL 7
REMARK VINA RESULT:      -5.4      4.218      6.983
REMARK  3 active torsions:
REMARK  status: ('A' for Active; 'I' for Inactive)
REMARK       I    between atoms: C_2  and  N_4 
REMARK    1  A    between atoms: N_4  and  C_5 
REMARK    2  A    between atoms: C_8  and  C_11 
REMARK       I    between atoms: C_11  and  N_13 
REMARK    3  A    between atoms: N_13  and  C_14 
ROOT
HETATM    1  C   UNK N   1      25.837  27.667  -4.001  0.00  0.00     0.034 A 
HETATM    2  C   UNK N   1      26.418  26.526  -3.429  0.00  0.00     0.030 A 
HETATM    3  C   UNK N   1      26.391  25.300  -4.109  0.00  0.00     0.019 A 
HETATM    4  C   UNK N   1      25.775  25.209  -5.367  0.00  0.00     0.032 A 
HETATM    5  C   UNK N   1      25.167  26.342  -5.916  0.00  0.00     0.019 A 
HETATM    6  C   UNK N   1      25.194  27.555  -5.241  0.00  0.00     0.030 A 
ENDROOT
BRANCH   4   7
HETATM    7  C   UNK N   1      25.855  23.977  -6.174  0.00  0.00     0.252 C 
HETATM    8  O   UNK N   1      25.175  23.006  -5.882  0.00  0.00    -0.268 OA
HETATM    9  N   UNK N   1      26.759  23.931  -7.198  0.00  0.00    -0.349 N 
HETATM   10  H   UNK N   1      27.188  24.787  -7.424  0.00  0.00     0.163 HD
BRANCH   9  11
HETATM   11  C   UNK N   1      27.174  22.790  -7.996  0.00  0.00     0.022 C 
HETATM   12  C   UNK N   1      27.907  23.284  -9.225  0.00  0.00     0.037 C 
HETATM   13  C   UNK N   1      28.139  21.973  -7.162  0.00  0.00     0.037 C 
HETATM   14  C   UNK N   1      26.040  21.872  -8.427  0.00  0.00     0.037 C 
ENDBRANCH   9  11
ENDBRANCH   4   7
BRANCH   1  15
HETATM   15  N   UNK N   1      25.958  28.920  -3.333  0.00  0.00    -0.328 N 
HETATM   16  C   UNK N   1      26.981  29.806  -3.490  0.00  0.00     0.218 C 
HETATM   17  C   UNK N   1      26.988  31.062  -2.693  0.00  0.00     0.117 C 
HETATM   18  O   UNK N   1      27.907  29.582  -4.255  0.00  0.00    -0.274 OA
HETATM   19  H   UNK N   1      25.239  29.167  -2.706  0.00  0.00     0.169 HD
ENDBRANCH   1  15
TORSDOF 3
ENDMDL
MODEL 8
REMARK VINA RESULT:      -5.4     16.229     19.482
REMARK  3 active torsions:
REMARK  status: ('A' for Active; 'I' for Inactive)
REMARK       I    between atoms: C_2  and  N_4 
REMARK    1  A    between atoms: N_4  and  C_5 
REMARK    2  A    between atoms: C_8  and  C_11 
REMARK       I    between atoms: C_11  and  N_13 
REMARK    3  A    between atoms: N_13  and  C_14 
ROOT
HETATM    1  C   UNK N   1      34.138  15.994   9.031  0.00  0.00     0.034 A 
HETATM    2  C   UNK N   1      33.896  14.622   9.191  0.00  0.00     0.030 A 
HETATM    3  C   UNK N   1      34.339  13.954  10.341  0.00  0.00     0.019 A 
HETATM    4  C   UNK N   1      35.032  14.657  11.338  0.00  0.00     0.032 A 
HETATM    5  C   UNK N   1      35.300  16.017  11.157  0.00  0.00     0.019 A 
HETATM    6  C   UNK N   1      34.862  16.678  10.017  0.00  0.00     0.030 A 
ENDROOT
BRANCH   4   7
HETATM    7  C   UNK N   1      35.383  14.023  12.623  0.00  0.00     0.252 C 
HETATM    8  O   UNK N   1      36.325  14.441  13.277  0.00  0.00    -0.268 OA
HETATM    9  N   UNK N   1      34.678  12.919  13.014  0.00  0.00    -0.349 N 
HETATM   10  H   UNK N   1      33.877  12.716  12.480  0.00  0.00     0.163 HD
BRANCH   9  11
HETATM   11  C   UNK N   1      34.952  12.004  14.109  0.00  0.00     0.022 C 
HETATM   12  C   UNK N   1      33.917  10.900  14.105  0.00  0.00     0.037 C 
HETATM   13  C   UNK N   1      36.311  11.384  13.859  0.00  0.00     0.037 C 
HETATM   14  C   UNK N   1      34.983  12.653  15.484  0.00  0.00     0.037 C 
ENDBRANCH   9  11
ENDBRANCH   4   7
BRANCH   1  15
HETATM   15  N   UNK N   1      33.599  16.670   7.898  0.00  0.00    -0.328 N 
HETATM   16  C   UNK N   1      34.142  16.679   6.649  0.00  0.00     0.218 C 
HETATM   17  C   UNK N   1      33.482  17.465   5.571  0.00  0.00     0.117 C 
HETATM   18  O   UNK N   1      35.174  16.075   6.397  0.00  0.00    -0.274 OA
HETATM   19  H   UNK N   1      32.761  17.171   8.029  0.00  0.00     0.169 HD
ENDBRANCH   1  15
TORSDOF 3
ENDMDL
MODEL 9
REMARK VINA RESULT:      -5.4      2.770      4.298
REMARK  3 active torsions:
REMARK  status: ('A' for Active; 'I' for Inactive)
REMARK       I    between atoms: C_2  and  N_4 
REMARK    1  A    between atoms: N_4  and  C_5 
REMARK    2  A    between atoms: C_8  and  C_11 
REMARK       I    between atoms: C_11  and  N_13 
REMARK    3  A    between atoms: N_13  and  C_14 
ROOT
HETATM    1  C   UNK N   1      33.651  19.616  -4.076  0.00  0.00     0.034 A 
HETATM    2  C   UNK N   1      32.386  19.601  -4.681  0.00  0.00     0.030 A 
HETATM    3  C   UNK N   1      31.400  20.516  -4.286  0.00  0.00     0.019 A 
HETATM    4  C   UNK N   1      31.675  21.451  -3.276  0.00  0.00     0.032 A 
HETATM    5  C   UNK N   1      32.926  21.438  -2.652  0.00  0.00     0.019 A 
HETATM    6  C   UNK N   1      33.902  20.531  -3.044  0.00  0.00     0.030 A 
ENDROOT
BRANCH   4   7
HETATM    7  C   UNK N   1      30.716  22.520  -2.937  0.00  0.00     0.252 C 
HETATM    8  O   UNK N   1      30.570  22.867  -1.776  0.00  0.00    -0.268 OA
HETATM    9  N   UNK N   1      29.953  23.047  -3.940  0.00  0.00    -0.349 N 
HETATM   10  H   UNK N   1      30.209  22.782  -4.853  0.00  0.00     0.163 HD
BRANCH   9  11
HETATM   11  C   UNK N   1      28.814  23.944  -3.843  0.00  0.00     0.022 C 
HETATM   12  C   UNK N   1      29.308  25.374  -3.816  0.00  0.00     0.037 C 
HETATM   13  C   UNK N   1      27.974  23.754  -5.090  0.00  0.00     0.037 C 
HETATM   14  C   UNK N   1      27.918  23.703  -2.638  0.00  0.00     0.037 C 
ENDBRANCH   9  11
ENDBRANCH   4   7
BRANCH   1  15
HETATM   15  N   UNK N   1      34.666  18.739  -4.558  0.00  0.00    -0.328 N 
HETATM   16  C   UNK N   1      34.819  17.433  -4.199  0.00  0.00     0.218 C 
HETATM   17  C   UNK N   1      35.954  16.651  -4.760  0.00  0.00     0.117 C 
HETATM   18  O   UNK N   1      34.059  16.895  -3.409  0.00  0.00    -0.274 OA
HETATM   19  H   UNK N   1      35.309  19.108  -5.205  0.00  0.00     0.169 HD
ENDBRANCH   1  15
TORSDOF 3
ENDMDL
