REMARK  5 active torsions:
REMARK  status: ('A' for Active; 'I' for Inactive)
REMARK    1  A    between atoms: C_5  and  C_8 
REMARK    2  A    between atoms: C_8  and  O_9 
REMARK    3  A    between atoms: O_9  and  C_10 
REMARK       I    between atoms: C_10  and  N_12 
REMARK    4  A    between atoms: C_15  and  C_19 
REMARK    5  A    between atoms: C_19  and  N_20 
REMARK       I    between atoms: N_20  and  C_21 
ROOT
HETATM    1  C   UNK N   1       4.382 -10.140  -0.028  0.00  0.00     0.363 C 
HETATM    2  O   UNK N   1       5.376 -10.810  -0.271  0.00  0.00    -0.238 OA
HETATM    3  N   UNK N   1       3.187 -10.723   0.252  0.00  0.00    -0.325 N 
HETATM    4  C   UNK N   1       3.020 -12.164   0.292  0.00  0.00     0.129 C 
HETATM    5  C   UNK N   1       1.706 -12.566  -0.390  0.00  0.00     0.029 C 
HETATM    6  C   UNK N   1       0.553 -11.714   0.159  0.00  0.00     0.041 C 
HETATM    7  C   UNK N   1       0.832 -10.257  -0.185  0.00  0.00     0.193 C 
HETATM    8  C   UNK N   1       2.067  -9.869   0.604  0.00  0.00     0.165 C 
HETATM    9  F   UNK N   1      -0.217  -9.440   0.198  0.00  0.00    -0.247 F 
ENDROOT
BRANCH   1  10
HETATM   10  O   UNK N   1       4.440  -8.794   0.002  0.00  0.00    -0.299 OA
BRANCH  10  11
HETATM   11  C   UNK N   1       5.518  -7.955  -0.121  0.00  0.00     0.219 C 
BRANCH  11  12
HETATM   12  C   UNK N   1       4.968  -6.553  -0.072  0.00  0.00    -0.034 A 
HETATM   13  C   UNK N   1       5.821  -5.445  -0.072  0.00  0.00     0.010 A 
HETATM   14  C   UNK N   1       5.281  -4.150  -0.032  0.00  0.00     0.007 A 
HETATM   15  C   UNK N   1       3.892  -3.964   0.006  0.00  0.00    -0.062 A 
HETATM   16  C   UNK N   1       3.315  -2.596   0.038  0.00  0.00     0.048 C 
HETATM   17  C   UNK N   1       3.042  -5.065   0.009  0.00  0.00     0.007 A 
HETATM   18  C   UNK N   1       3.575  -6.348  -0.028  0.00  0.00     0.010 A 
ENDBRANCH  11  12
ENDBRANCH  10  11
ENDBRANCH   1  10
BRANCH   6  19
HETATM   19  C   UNK N   1      -0.802 -12.172  -0.353  0.00  0.00     0.145 C 
BRANCH  19  20
HETATM   20  N   UNK N   1      -1.009 -13.549   0.014  0.00  0.00    -0.226 N 
HETATM   21  C   UNK N   1      -2.287 -14.150   0.009  0.00  0.00     0.677 A 
HETATM   22  N   UNK N   1      -2.389 -15.496   0.167  0.00  0.00    -0.202 N 
HETATM   23  N   UNK N   1      -3.409 -13.397  -0.159  0.00  0.00    -0.202 N 
HETATM   24  C   UNK N   1      -3.600 -16.110   0.151  0.00  0.00     0.107 A 
ATOM     25  HN  UNK N   1      -1.545 -16.053   0.300  1.00  0.00     0.183 HD
HETATM   26  C   UNK N   1      -4.759 -15.357  -0.020  0.00  0.00     0.035 A 
HETATM   27  C   UNK N   1      -4.639 -13.977  -0.172  0.00  0.00     0.107 A 
ATOM     28  HN  UNK N   1      -3.327 -12.388  -0.277  1.00  0.00     0.183 HD
HETATM   29  H   UNK N   1      -0.231 -14.091   0.279  0.00  0.00     0.177 HD
ENDBRANCH  19  20
ENDBRANCH   6  19
TORSDOF 5
