REMARK  9 active torsions:
REMARK  status: ('A' for Active; 'I' for Inactive)
REMARK    1  A    between atoms: C_2  and  C_3 
REMARK    2  A    between atoms: C_4  and  O_34 
REMARK    3  A    between atoms: C_7  and  N_14 
REMARK    4  A    between atoms: C_8  and  C_11 
REMARK       I    between atoms: C_11  and  N_13 
REMARK    5  A    between atoms: N_14  and  C_15 
REMARK    6  A    between atoms: C_18  and  N_21 
REMARK    7  A    between atoms: C_24  and  N_27 
REMARK    8  A    between atoms: C_35  and  O_34 
REMARK       I    between atoms: N_38  and  C_40 
REMARK    9  A    between atoms: C_40  and  C_42 
ROOT
HETATM    1  C   UNK N   1       1.845  -6.217  -0.035  0.00  0.00     0.061 A 
HETATM    2  C   UNK N   1       3.008  -5.418   0.158  0.00  0.00     0.167 A 
HETATM    3  N   UNK N   1       2.838  -4.088   0.309  0.00  0.00    -0.319 N 
ATOM      4  HN  UNK N   1       3.667  -3.507   0.438  1.00  0.00     0.169 HD
HETATM    5  C   UNK N   1       1.622  -3.481   0.297  0.00  0.00     0.140 A 
HETATM    6  C   UNK N   1       0.474  -4.265   0.105  0.00  0.00     0.145 A 
HETATM    7  N   UNK N   1       0.627  -5.605  -0.063  0.00  0.00    -0.349 N 
ATOM      8  HN  UNK N   1      -0.204  -6.177  -0.216  1.00  0.00     0.166 HD
ENDROOT
BRANCH   5   9
HETATM    9  N   UNK N   1       1.561  -2.076   0.481  0.00  0.00    -0.340 N 
HETATM   10  H   UNK N   1       0.727  -1.639   0.767  0.00  0.00     0.167 HD
BRANCH   9  11
HETATM   11  C   UNK N   1       2.730  -1.322   0.242  0.00  0.00     0.033 A 
HETATM   12  C   UNK N   1       3.337  -0.619   1.285  0.00  0.00     0.032 A 
HETATM   13  C   UNK N   1       4.613  -0.078   1.101  0.00  0.00     0.031 A 
HETATM   14  C   UNK N   1       5.261  -0.203  -0.139  0.00  0.00     0.030 A 
HETATM   15  C   UNK N   1       4.623  -0.864  -1.192  0.00  0.00     0.031 A 
HETATM   16  C   UNK N   1       3.380  -1.447  -0.992  0.00  0.00     0.032 A 
BRANCH  14  17
HETATM   17  N   UNK N   1       6.586   0.259  -0.303  0.00  0.00    -0.381 N 
HETATM   18  C   UNK N   1       7.029   0.695  -1.618  0.00  0.00     0.125 C 
HETATM   19  C   UNK N   1       8.407   1.336  -1.504  0.00  0.00     0.055 C 
HETATM   20  C   UNK N   1       9.443   0.359  -0.884  0.00  0.00     0.226 C 
HETATM   21  C   UNK N   1       8.772  -0.769  -0.089  0.00  0.00     0.055 C 
HETATM   22  C   UNK N   1       7.574  -0.191   0.664  0.00  0.00     0.125 C 
BRANCH  20  23
HETATM   23  N   UNK N   1      10.446   1.002  -0.021  0.00  0.00     0.096 N 
HETATM   24  C   UNK N   1      10.662   2.420  -0.349  0.00  0.00     0.303 C 
HETATM   25  C   UNK N   1      11.822   2.981   0.465  0.00  0.00     0.302 C 
HETATM   26  N   UNK N   1      13.026   2.239   0.115  0.00  0.00     0.087 N 
HETATM   27  C   UNK N   1      12.846   0.859   0.550  0.00  0.00     0.302 C 
HETATM   28  C   UNK N   1      14.133   2.802   0.863  0.00  0.00     0.310 C 
HETATM   29  C   UNK N   1      11.685   0.240  -0.224  0.00  0.00     0.303 C 
ENDBRANCH  20  23
ENDBRANCH  14  17
ENDBRANCH   9  11
ENDBRANCH   5   9
BRANCH   6  30
HETATM   30  C   UNK N   1      -0.891  -3.685   0.050  0.00  0.00     0.269 C 
HETATM   31  O   UNK N   1      -1.074  -2.490   0.208  0.00  0.00    -0.266 OA
HETATM   32  N   UNK N   1      -1.948  -4.488  -0.192  0.00  0.00    -0.365 N 
HETATM   33  H   UNK N   1      -2.841  -4.112  -0.369  0.00  0.00     0.159 HD
HETATM   34  H   UNK N   1      -1.824  -5.464  -0.192  0.00  0.00     0.159 HD
ENDBRANCH   6  30
BRANCH   2  35
HETATM   35  O   UNK N   1       4.291  -5.881   0.213  0.00  0.00    -0.327 OA
BRANCH  35  36
HETATM   36  C   UNK N   1       4.719  -7.163   0.459  0.00  0.00     0.150 C 
HETATM   37  C   UNK N   1       6.217  -7.211   0.794  0.00  0.00     0.054 C 
HETATM   38  C   UNK N   1       6.641  -8.632   0.407  0.00  0.00     0.129 C 
HETATM   39  N   UNK N   1       5.483  -9.124  -0.280  0.00  0.00    -0.346 N 
HETATM   40  C   UNK N   1       4.629  -8.079  -0.730  0.00  0.00     0.158 C 
HETATM   41  C   UNK N   1       5.040 -10.403  -0.139  0.00  0.00     0.242 C 
HETATM   42  O   UNK N   1       5.738 -11.234   0.425  0.00  0.00    -0.268 OA
BRANCH  41  43
HETATM   43  C   UNK N   1       3.683 -10.775  -0.606  0.00  0.00     0.064 C 
HETATM   44  C   UNK N   1       3.146 -11.963  -0.336  0.00  0.00     0.017 C 
ENDBRANCH  41  43
ENDBRANCH  35  36
ENDBRANCH   2  35
BRANCH   1  45
HETATM   45  C   UNK N   1       1.882  -7.691  -0.253  0.00  0.00     0.057 C 
HETATM   46  C   UNK N   1       1.087  -8.425   0.808  0.00  0.00     0.011 C 
ENDBRANCH   1  45
TORSDOF 9
