REMARK  0 active torsions:
REMARK  status: ('A' for Active; 'I' for Inactive)
ROOT
HETATM    1  C   UNK N   1       0.079   0.567   0.518  0.00  0.00     0.044 C 
HETATM    2  C   UNK N   1      -0.179  -0.859   0.150  0.00  0.00    -0.067 A 
HETATM    3  C   UNK N   1      -1.395  -1.149  -0.335  0.00  0.00     0.058 A 
HETATM    4  C   UNK N   1      -1.766  -2.520  -0.686  0.00  0.00     0.172 A 
HETATM    5  O   UNK N   1      -2.883  -2.766  -1.110  0.00  0.00    -0.289 OA
HETATM    6  C   UNK N   1      -0.784  -3.591  -0.539  0.00  0.00     0.058 A 
HETATM    7  C   UNK N   1       0.437  -3.348  -0.049  0.00  0.00    -0.063 A 
HETATM    8  C   UNK N   1       0.896  -1.943   0.383  0.00  0.00     0.007 A 
HETATM    9  C   UNK N   1       2.209  -1.654  -0.400  0.00  0.00     0.007 C 
HETATM   10  C   UNK N   1       2.779  -0.209  -0.334  0.00  0.00     0.007 C 
HETATM   11  C   UNK N   1       4.192  -0.075   0.257  0.00  0.00     0.018 C 
HETATM   12  C   UNK N   1       5.118  -1.077  -0.411  0.00  0.00     0.021 C 
HETATM   13  C   UNK N   1       4.619  -2.430   0.020  0.00  0.00     0.006 C 
HETATM   14  C   UNK N   1       3.246  -2.833  -0.504  0.00  0.00    -0.004 C 
HETATM   15  C   UNK N   1       2.810  -4.055   0.315  0.00  0.00     0.010 C 
HETATM   16  C   UNK N   1       1.398  -4.502  -0.022  0.00  0.00     0.036 C 
HETATM   17  C   UNK N   1       5.787  -3.397  -0.082  0.00  0.00     0.013 C 
HETATM   18  C   UNK N   1       6.960  -2.548   0.410  0.00  0.00     0.079 C 
HETATM   19  C   UNK N   1       6.505  -1.157   0.113  0.00  0.00     0.135 C 
HETATM   20  O   UNK N   1       7.255  -0.196   0.171  0.00  0.00    -0.297 OA
HETATM   21  C   UNK N   1       5.175  -0.879  -1.926  0.00  0.00     0.024 C 
HETATM   22  C   UNK N   1       1.204  -1.967   1.878  0.00  0.00     0.025 C 
ENDROOT
TORSDOF 0
