MODEL 1
REMARK VINA RESULT:      -7.4      0.000      0.000
REMARK  13 active torsions:
REMARK  status: ('A' for Active; 'I' for Inactive)
REMARK    1  A    between atoms: O_2  and  C_3 
REMARK    2  A    between atoms: C_8  and  O_9 
REMARK    3  A    between atoms: O_9  and  C_10 
REMARK    4  A    between atoms: C_10  and  C_11 
REMARK    5  A    between atoms: C_11  and  C_12 
REMARK    6  A    between atoms: C_12  and  C_13 
REMARK    7  A    between atoms: C_13  and  C_14 
REMARK    8  A    between atoms: C_14  and  C_15 
REMARK    9  A    between atoms: C_15  and  C_16 
REMARK       I    between atoms: C_16  and  N_18 
REMARK   10  A    between atoms: N_18  and  O_19 
REMARK   11  A    between atoms: C_20  and  N_26 
REMARK   12  A    between atoms: N_26  and  C_27 
REMARK   13  A    between atoms: C_31  and  C_33 
ROOT
HETATM    1  C   UNK N   1      20.972  19.243   2.763  0.00  0.00     0.103 A 
HETATM    2  C   UNK N   1      20.023  18.217   2.544  0.00  0.00     0.070 A 
HETATM    3  C   UNK N   1      20.195  16.976   3.162  0.00  0.00     0.050 A 
HETATM    4  C   UNK N   1      21.244  16.820   4.066  0.00  0.00     0.038 A 
HETATM    5  C   UNK N   1      22.155  17.797   4.270  0.00  0.00     0.057 A 
HETATM    6  C   UNK N   1      22.093  18.980   3.602  0.00  0.00     0.103 A 
HETATM    7  C   UNK N   1      21.413  15.664   4.738  0.00  0.00     0.119 A 
HETATM    8  N   UNK N   1      20.603  14.607   4.420  0.00  0.00    -0.338 N 
ATOM      9  HN  UNK N   1      20.748  13.711   4.887  1.00  0.00     0.168 HD
HETATM   10  C   UNK N   1      19.608  14.722   3.499  0.00  0.00     0.182 A 
HETATM   11  N   UNK N   1      19.379  15.921   2.897  0.00  0.00    -0.351 N 
ATOM     12  HN  UNK N   1      18.598  16.028   2.249  1.00  0.00     0.166 HD
ENDROOT
BRANCH   6  13
HETATM   13  O   UNK N   1      23.144  19.816   3.725  0.00  0.00    -0.348 OA
BRANCH  13  14
HETATM   14  C   UNK N   1      24.420  19.361   4.062  0.00  0.00     0.176 C 
BRANCH  14  15
HETATM   15  C   UNK N   1      25.515  19.991   3.192  0.00  0.00     0.027 C 
BRANCH  15  16
HETATM   16  C   UNK N   1      26.869  20.011   3.894  0.00  0.00     0.002 C 
BRANCH  16  17
HETATM   17  C   UNK N   1      26.898  21.038   5.017  0.00  0.00     0.001 C 
BRANCH  17  18
HETATM   18  C   UNK N   1      27.316  20.357   6.300  0.00  0.00     0.009 C 
BRANCH  18  19
HETATM   19  C   UNK N   1      28.116  19.101   6.061  0.00  0.00     0.105 C 
BRANCH  19  20
HETATM   20  C   UNK N   1      27.979  18.233   7.264  0.00  0.00     0.240 C 
HETATM   21  O   UNK N   1      28.171  17.027   7.178  0.00  0.00    -0.271 OA
HETATM   22  N   UNK N   1      27.647  18.784   8.448  0.00  0.00    -0.237 N 
HETATM   23  H   UNK N   1      27.496  19.755   8.509  0.00  0.00     0.197 HD
BRANCH  22  24
HETATM   24  O   UNK N   1      27.518  18.022   9.542  0.00  0.00    -0.287 OA
HETATM   25  H   UNK N   1      26.704  17.979  10.067  0.00  0.00     0.244 HD
ENDBRANCH  22  24
ENDBRANCH  19  20
ENDBRANCH  18  19
ENDBRANCH  17  18
ENDBRANCH  16  17
ENDBRANCH  15  16
ENDBRANCH  14  15
ENDBRANCH  13  14
ENDBRANCH   6  13
BRANCH   1  26
HETATM   26  O   UNK N   1      20.801  20.418   2.112  0.00  0.00    -0.353 OA
HETATM   27  C   UNK N   1      20.870  20.565   0.747  0.00  0.00     0.210 C 
ENDBRANCH   1  26
BRANCH   7  28
HETATM   28  N   UNK N   1      22.434  15.612   5.759  0.00  0.00    -0.342 N 
HETATM   29  H   UNK N   1      23.371  15.769   5.502  0.00  0.00     0.167 HD
BRANCH  28  30
HETATM   30  C   UNK N   1      22.139  15.346   7.098  0.00  0.00     0.035 A 
HETATM   31  C   UNK N   1      22.470  14.125   7.693  0.00  0.00     0.029 A 
HETATM   32  C   UNK N   1      21.801  13.755   8.875  0.00  0.00     0.004 A 
HETATM   33  C   UNK N   1      20.743  14.559   9.360  0.00  0.00     0.021 A 
HETATM   34  C   UNK N   1      20.474  15.778   8.725  0.00  0.00     0.019 A 
HETATM   35  C   UNK N   1      21.206  16.149   7.670  0.00  0.00     0.050 A 
BRANCH  34  36
HETATM   36  C   UNK N   1      19.292  16.559   8.873  0.00  0.00    -0.078 C 
HETATM   37  C   UNK N   1      18.191  17.048   8.919  0.00  0.00     0.018 C 
ENDBRANCH  34  36
ENDBRANCH  28  30
ENDBRANCH   7  28
TORSDOF 13
ENDMDL
MODEL 2
REMARK VINA RESULT:      -7.4      1.729      1.854
REMARK  13 active torsions:
REMARK  status: ('A' for Active; 'I' for Inactive)
REMARK    1  A    between atoms: O_2  and  C_3 
REMARK    2  A    between atoms: C_8  and  O_9 
REMARK    3  A    between atoms: O_9  and  C_10 
REMARK    4  A    between atoms: C_10  and  C_11 
REMARK    5  A    between atoms: C_11  and  C_12 
REMARK    6  A    between atoms: C_12  and  C_13 
REMARK    7  A    between atoms: C_13  and  C_14 
REMARK    8  A    between atoms: C_14  and  C_15 
REMARK    9  A    between atoms: C_15  and  C_16 
REMARK       I    between atoms: C_16  and  N_18 
REMARK   10  A    between atoms: N_18  and  O_19 
REMARK   11  A    between atoms: C_20  and  N_26 
REMARK   12  A    between atoms: N_26  and  C_27 
REMARK   13  A    between atoms: C_31  and  C_33 
ROOT
HETATM    1  C   UNK N   1      21.483  19.805   2.132  0.00  0.00     0.103 A 
HETATM    2  C   UNK N   1      20.543  18.772   1.904  0.00  0.00     0.070 A 
HETATM    3  C   UNK N   1      20.497  17.678   2.773  0.00  0.00     0.050 A 
HETATM    4  C   UNK N   1      21.311  17.689   3.904  0.00  0.00     0.038 A 
HETATM    5  C   UNK N   1      22.214  18.670   4.118  0.00  0.00     0.057 A 
HETATM    6  C   UNK N   1      22.374  19.695   3.239  0.00  0.00     0.103 A 
HETATM    7  C   UNK N   1      21.255  16.689   4.806  0.00  0.00     0.119 A 
HETATM    8  N   UNK N   1      20.469  15.604   4.521  0.00  0.00    -0.338 N 
ATOM      9  HN  UNK N   1      20.453  14.818   5.172  1.00  0.00     0.168 HD
HETATM   10  C   UNK N   1      19.710  15.549   3.394  0.00  0.00     0.182 A 
HETATM   11  N   UNK N   1      19.694  16.607   2.537  0.00  0.00    -0.351 N 
ATOM     12  HN  UNK N   1      19.082  16.595   1.720  1.00  0.00     0.166 HD
ENDROOT
BRANCH   6  13
HETATM   13  O   UNK N   1      23.423  20.520   3.433  0.00  0.00    -0.348 OA
BRANCH  13  14
HETATM   14  C   UNK N   1      24.616  20.386   2.720  0.00  0.00     0.176 C 
BRANCH  14  15
HETATM   15  C   UNK N   1      25.852  20.515   3.619  0.00  0.00     0.027 C 
BRANCH  15  16
HETATM   16  C   UNK N   1      26.771  19.301   3.514  0.00  0.00     0.002 C 
BRANCH  16  17
HETATM   17  C   UNK N   1      27.761  19.253   4.670  0.00  0.00     0.001 C 
BRANCH  17  18
HETATM   18  C   UNK N   1      27.651  20.533   5.468  0.00  0.00     0.009 C 
BRANCH  18  19
HETATM   19  C   UNK N   1      27.307  20.290   6.917  0.00  0.00     0.105 C 
BRANCH  19  20
HETATM   20  C   UNK N   1      26.340  21.340   7.342  0.00  0.00     0.240 C 
HETATM   21  O   UNK N   1      26.133  22.312   6.628  0.00  0.00    -0.271 OA
HETATM   22  N   UNK N   1      25.692  21.211   8.517  0.00  0.00    -0.237 N 
HETATM   23  H   UNK N   1      25.863  20.425   9.085  0.00  0.00     0.197 HD
BRANCH  22  24
HETATM   24  O   UNK N   1      24.819  22.144   8.919  0.00  0.00    -0.287 OA
HETATM   25  H   UNK N   1      23.880  22.133   8.678  0.00  0.00     0.244 HD
ENDBRANCH  22  24
ENDBRANCH  19  20
ENDBRANCH  18  19
ENDBRANCH  17  18
ENDBRANCH  16  17
ENDBRANCH  15  16
ENDBRANCH  14  15
ENDBRANCH  13  14
ENDBRANCH   6  13
BRANCH   1  26
HETATM   26  O   UNK N   1      21.533  20.827   1.246  0.00  0.00    -0.353 OA
HETATM   27  C   UNK N   1      20.428  21.461   0.731  0.00  0.00     0.210 C 
ENDBRANCH   1  26
BRANCH   7  28
HETATM   28  N   UNK N   1      22.023  16.826   6.022  0.00  0.00    -0.342 N 
HETATM   29  H   UNK N   1      22.846  17.365   6.006  0.00  0.00     0.167 HD
BRANCH  28  30
HETATM   30  C   UNK N   1      21.639  16.218   7.220  0.00  0.00     0.035 A 
HETATM   31  C   UNK N   1      21.982  14.895   7.514  0.00  0.00     0.029 A 
HETATM   32  C   UNK N   1      21.243  14.217   8.501  0.00  0.00     0.004 A 
HETATM   33  C   UNK N   1      20.113  14.841   9.080  0.00  0.00     0.021 A 
HETATM   34  C   UNK N   1      19.835  16.174   8.753  0.00  0.00     0.019 A 
HETATM   35  C   UNK N   1      20.627  16.822   7.893  0.00  0.00     0.050 A 
BRANCH  34  36
HETATM   36  C   UNK N   1      18.608  16.859   8.991  0.00  0.00    -0.078 C 
HETATM   37  C   UNK N   1      17.492  17.242   9.233  0.00  0.00     0.018 C 
ENDBRANCH  34  36
ENDBRANCH  28  30
ENDBRANCH   7  28
TORSDOF 13
ENDMDL
MODEL 3
REMARK VINA RESULT:      -7.1      2.953      7.120
REMARK  13 active torsions:
REMARK  status: ('A' for Active; 'I' for Inactive)
REMARK    1  A    between atoms: O_2  and  C_3 
REMARK    2  A    between atoms: C_8  and  O_9 
REMARK    3  A    between atoms: O_9  and  C_10 
REMARK    4  A    between atoms: C_10  and  C_11 
REMARK    5  A    between atoms: C_11  and  C_12 
REMARK    6  A    between atoms: C_12  and  C_13 
REMARK    7  A    between atoms: C_13  and  C_14 
REMARK    8  A    between atoms: C_14  and  C_15 
REMARK    9  A    between atoms: C_15  and  C_16 
REMARK       I    between atoms: C_16  and  N_18 
REMARK   10  A    between atoms: N_18  and  O_19 
REMARK   11  A    between atoms: C_20  and  N_26 
REMARK   12  A    between atoms: N_26  and  C_27 
REMARK   13  A    between atoms: C_31  and  C_33 
ROOT
HETATM    1  C   UNK N   1      21.776  18.980   4.095  0.00  0.00     0.103 A 
HETATM    2  C   UNK N   1      22.613  19.730   3.235  0.00  0.00     0.070 A 
HETATM    3  C   UNK N   1      23.992  19.749   3.461  0.00  0.00     0.050 A 
HETATM    4  C   UNK N   1      24.516  18.939   4.466  0.00  0.00     0.038 A 
HETATM    5  C   UNK N   1      23.717  18.229   5.292  0.00  0.00     0.057 A 
HETATM    6  C   UNK N   1      22.362  18.271   5.183  0.00  0.00     0.103 A 
HETATM    7  C   UNK N   1      25.845  18.872   4.678  0.00  0.00     0.119 A 
HETATM    8  N   UNK N   1      26.657  19.712   3.964  0.00  0.00    -0.338 N 
ATOM      9  HN  UNK N   1      27.662  19.707   4.147  1.00  0.00     0.168 HD
HETATM   10  C   UNK N   1      26.159  20.552   3.017  0.00  0.00     0.182 A 
HETATM   11  N   UNK N   1      24.827  20.542   2.737  0.00  0.00    -0.351 N 
ATOM     12  HN  UNK N   1      24.456  21.128   1.988  1.00  0.00     0.166 HD
ENDROOT
BRANCH   6  13
HETATM   13  O   UNK N   1      21.644  17.686   6.164  0.00  0.00    -0.348 OA
BRANCH  13  14
HETATM   14  C   UNK N   1      21.325  16.327   6.142  0.00  0.00     0.176 C 
BRANCH  14  15
HETATM   15  C   UNK N   1      21.565  15.649   7.496  0.00  0.00     0.027 C 
BRANCH  15  16
HETATM   16  C   UNK N   1      20.387  15.831   8.449  0.00  0.00     0.002 C 
BRANCH  16  17
HETATM   17  C   UNK N   1      20.257  14.650   9.401  0.00  0.00     0.001 C 
BRANCH  17  18
HETATM   18  C   UNK N   1      21.283  13.603   9.033  0.00  0.00     0.009 C 
BRANCH  18  19
HETATM   19  C   UNK N   1      21.670  12.728  10.200  0.00  0.00     0.105 C 
BRANCH  19  20
HETATM   20  C   UNK N   1      23.145  12.828  10.381  0.00  0.00     0.240 C 
HETATM   21  O   UNK N   1      23.836  13.353   9.517  0.00  0.00    -0.271 OA
HETATM   22  N   UNK N   1      23.713  12.340  11.500  0.00  0.00    -0.237 N 
HETATM   23  H   UNK N   1      23.149  11.921  12.191  0.00  0.00     0.197 HD
BRANCH  22  24
HETATM   24  O   UNK N   1      25.038  12.418  11.683  0.00  0.00    -0.287 OA
HETATM   25  H   UNK N   1      25.517  11.886  12.337  0.00  0.00     0.244 HD
ENDBRANCH  22  24
ENDBRANCH  19  20
ENDBRANCH  18  19
ENDBRANCH  17  18
ENDBRANCH  16  17
ENDBRANCH  15  16
ENDBRANCH  14  15
ENDBRANCH  13  14
ENDBRANCH   6  13
BRANCH   1  26
HETATM   26  O   UNK N   1      20.440  19.020   3.878  0.00  0.00    -0.353 OA
HETATM   27  C   UNK N   1      19.860  19.323   2.670  0.00  0.00     0.210 C 
ENDBRANCH   1  26
BRANCH   7  28
HETATM   28  N   UNK N   1      26.333  17.912   5.642  0.00  0.00    -0.342 N 
HETATM   29  H   UNK N   1      25.687  17.456   6.227  0.00  0.00     0.167 HD
BRANCH  28  30
HETATM   30  C   UNK N   1      27.691  17.611   5.774  0.00  0.00     0.035 A 
HETATM   31  C   UNK N   1      28.258  16.498   5.145  0.00  0.00     0.029 A 
HETATM   32  C   UNK N   1      29.487  16.012   5.630  0.00  0.00     0.004 A 
HETATM   33  C   UNK N   1      30.051  16.578   6.797  0.00  0.00     0.021 A 
HETATM   34  C   UNK N   1      29.439  17.701   7.368  0.00  0.00     0.019 A 
HETATM   35  C   UNK N   1      28.332  18.203   6.812  0.00  0.00     0.050 A 
BRANCH  34  36
HETATM   36  C   UNK N   1      29.676  18.214   8.676  0.00  0.00    -0.078 C 
HETATM   37  C   UNK N   1      29.664  18.631   9.806  0.00  0.00     0.018 C 
ENDBRANCH  34  36
ENDBRANCH  28  30
ENDBRANCH   7  28
TORSDOF 13
ENDMDL
MODEL 4
REMARK VINA RESULT:      -6.9      2.209      3.498
REMARK  13 active torsions:
REMARK  status: ('A' for Active; 'I' for Inactive)
REMARK    1  A    between atoms: O_2  and  C_3 
REMARK    2  A    between atoms: C_8  and  O_9 
REMARK    3  A    between atoms: O_9  and  C_10 
REMARK    4  A    between atoms: C_10  and  C_11 
REMARK    5  A    between atoms: C_11  and  C_12 
REMARK    6  A    between atoms: C_12  and  C_13 
REMARK    7  A    between atoms: C_13  and  C_14 
REMARK    8  A    between atoms: C_14  and  C_15 
REMARK    9  A    between atoms: C_15  and  C_16 
REMARK       I    between atoms: C_16  and  N_18 
REMARK   10  A    between atoms: N_18  and  O_19 
REMARK   11  A    between atoms: C_20  and  N_26 
REMARK   12  A    between atoms: N_26  and  C_27 
REMARK   13  A    between atoms: C_31  and  C_33 
ROOT
HETATM    1  C   UNK N   1      21.440  19.815   2.629  0.00  0.00     0.103 A 
HETATM    2  C   UNK N   1      20.491  18.792   2.394  0.00  0.00     0.070 A 
HETATM    3  C   UNK N   1      20.638  17.556   3.029  0.00  0.00     0.050 A 
HETATM    4  C   UNK N   1      21.661  17.403   3.963  0.00  0.00     0.038 A 
HETATM    5  C   UNK N   1      22.572  18.376   4.183  0.00  0.00     0.057 A 
HETATM    6  C   UNK N   1      22.536  19.553   3.502  0.00  0.00     0.103 A 
HETATM    7  C   UNK N   1      21.803  16.252   4.651  0.00  0.00     0.119 A 
HETATM    8  N   UNK N   1      20.995  15.198   4.321  0.00  0.00    -0.338 N 
ATOM      9  HN  UNK N   1      21.122  14.305   4.800  1.00  0.00     0.168 HD
HETATM   10  C   UNK N   1      20.028  15.309   3.371  0.00  0.00     0.182 A 
HETATM   11  N   UNK N   1      19.823  16.504   2.752  0.00  0.00    -0.351 N 
ATOM     12  HN  UNK N   1      19.061  16.609   2.081  1.00  0.00     0.166 HD
ENDROOT
BRANCH   6  13
HETATM   13  O   UNK N   1      23.588  20.383   3.645  0.00  0.00    -0.348 OA
BRANCH  13  14
HETATM   14  C   UNK N   1      24.577  20.506   2.666  0.00  0.00     0.176 C 
BRANCH  14  15
HETATM   15  C   UNK N   1      25.978  20.199   3.209  0.00  0.00     0.027 C 
BRANCH  15  16
HETATM   16  C   UNK N   1      26.174  18.712   3.489  0.00  0.00     0.002 C 
BRANCH  16  17
HETATM   17  C   UNK N   1      26.286  18.439   4.983  0.00  0.00     0.001 C 
BRANCH  17  18
HETATM   18  C   UNK N   1      27.650  17.857   5.278  0.00  0.00     0.009 C 
BRANCH  18  19
HETATM   19  C   UNK N   1      28.462  18.717   6.214  0.00  0.00     0.105 C 
BRANCH  19  20
HETATM   20  C   UNK N   1      28.443  18.078   7.560  0.00  0.00     0.240 C 
HETATM   21  O   UNK N   1      29.216  17.165   7.818  0.00  0.00    -0.271 OA
HETATM   22  N   UNK N   1      27.571  18.512   8.491  0.00  0.00    -0.237 N 
HETATM   23  H   UNK N   1      26.954  19.249   8.275  0.00  0.00     0.197 HD
BRANCH  22  24
HETATM   24  O   UNK N   1      27.536  17.951   9.706  0.00  0.00    -0.287 OA
HETATM   25  H   UNK N   1      28.078  17.187   9.955  0.00  0.00     0.244 HD
ENDBRANCH  22  24
ENDBRANCH  19  20
ENDBRANCH  18  19
ENDBRANCH  17  18
ENDBRANCH  16  17
ENDBRANCH  15  16
ENDBRANCH  14  15
ENDBRANCH  13  14
ENDBRANCH   6  13
BRANCH   1  26
HETATM   26  O   UNK N   1      21.295  20.984   1.962  0.00  0.00    -0.353 OA
HETATM   27  C   UNK N   1      20.506  21.149   0.849  0.00  0.00     0.210 C 
ENDBRANCH   1  26
BRANCH   7  28
HETATM   28  N   UNK N   1      22.795  16.205   5.701  0.00  0.00    -0.342 N 
HETATM   29  H   UNK N   1      22.684  16.787   6.486  0.00  0.00     0.167 HD
BRANCH  28  30
HETATM   30  C   UNK N   1      23.908  15.363   5.639  0.00  0.00     0.035 A 
HETATM   31  C   UNK N   1      24.669  15.070   6.774  0.00  0.00     0.029 A 
HETATM   32  C   UNK N   1      25.976  14.580   6.594  0.00  0.00     0.004 A 
HETATM   33  C   UNK N   1      26.521  14.506   5.290  0.00  0.00     0.021 A 
HETATM   34  C   UNK N   1      25.698  14.799   4.196  0.00  0.00     0.019 A 
HETATM   35  C   UNK N   1      24.426  15.155   4.403  0.00  0.00     0.050 A 
BRANCH  34  36
HETATM   36  C   UNK N   1      26.133  15.067   2.866  0.00  0.00    -0.078 C 
HETATM   37  C   UNK N   1      26.305  15.381   1.715  0.00  0.00     0.018 C 
ENDBRANCH  34  36
ENDBRANCH  28  30
ENDBRANCH   7  28
TORSDOF 13
ENDMDL
MODEL 5
REMARK VINA RESULT:      -6.8      3.584      8.422
REMARK  13 active torsions:
REMARK  status: ('A' for Active; 'I' for Inactive)
REMARK    1  A    between atoms: O_2  and  C_3 
REMARK    2  A    between atoms: C_8  and  O_9 
REMARK    3  A    between atoms: O_9  and  C_10 
REMARK    4  A    between atoms: C_10  and  C_11 
REMARK    5  A    between atoms: C_11  and  C_12 
REMARK    6  A    between atoms: C_12  and  C_13 
REMARK    7  A    between atoms: C_13  and  C_14 
REMARK    8  A    between atoms: C_14  and  C_15 
REMARK    9  A    between atoms: C_15  and  C_16 
REMARK       I    between atoms: C_16  and  N_18 
REMARK   10  A    between atoms: N_18  and  O_19 
REMARK   11  A    between atoms: C_20  and  N_26 
REMARK   12  A    between atoms: N_26  and  C_27 
REMARK   13  A    between atoms: C_31  and  C_33 
ROOT
HETATM    1  C   UNK N   1      25.503  15.360   2.966  0.00  0.00     0.103 A 
HETATM    2  C   UNK N   1      26.777  14.997   2.470  0.00  0.00     0.070 A 
HETATM    3  C   UNK N   1      27.905  15.716   2.875  0.00  0.00     0.050 A 
HETATM    4  C   UNK N   1      27.753  16.707   3.842  0.00  0.00     0.038 A 
HETATM    5  C   UNK N   1      26.536  17.060   4.311  0.00  0.00     0.057 A 
HETATM    6  C   UNK N   1      25.399  16.465   3.860  0.00  0.00     0.103 A 
HETATM    7  C   UNK N   1      28.820  17.384   4.313  0.00  0.00     0.119 A 
HETATM    8  N   UNK N   1      30.037  17.158   3.730  0.00  0.00    -0.338 N 
ATOM      9  HN  UNK N   1      30.846  17.697   4.043  1.00  0.00     0.168 HD
HETATM   10  C   UNK N   1      30.197  16.235   2.744  0.00  0.00     0.182 A 
HETATM   11  N   UNK N   1      29.134  15.484   2.342  0.00  0.00    -0.351 N 
ATOM     12  HN  UNK N   1      29.260  14.750   1.644  1.00  0.00     0.166 HD
ENDROOT
BRANCH   6  13
HETATM   13  O   UNK N   1      24.224  17.008   4.238  0.00  0.00    -0.348 OA
BRANCH  13  14
HETATM   14  C   UNK N   1      23.506  16.533   5.337  0.00  0.00     0.176 C 
BRANCH  14  15
HETATM   15  C   UNK N   1      22.003  16.815   5.219  0.00  0.00     0.027 C 
BRANCH  15  16
HETATM   16  C   UNK N   1      21.408  16.242   3.935  0.00  0.00     0.002 C 
BRANCH  16  17
HETATM   17  C   UNK N   1      20.645  17.304   3.156  0.00  0.00     0.001 C 
BRANCH  17  18
HETATM   18  C   UNK N   1      21.176  18.669   3.531  0.00  0.00     0.009 C 
BRANCH  18  19
HETATM   19  C   UNK N   1      20.284  19.792   3.062  0.00  0.00     0.105 C 
BRANCH  19  20
HETATM   20  C   UNK N   1      20.988  20.510   1.963  0.00  0.00     0.240 C 
HETATM   21  O   UNK N   1      22.116  20.953   2.140  0.00  0.00    -0.271 OA
HETATM   22  N   UNK N   1      20.378  20.666   0.772  0.00  0.00    -0.237 N 
HETATM   23  H   UNK N   1      19.471  20.305   0.637  0.00  0.00     0.197 HD
BRANCH  22  24
HETATM   24  O   UNK N   1      20.992  21.309  -0.230  0.00  0.00    -0.287 OA
HETATM   25  H   UNK N   1      21.636  20.886  -0.818  0.00  0.00     0.244 HD
ENDBRANCH  22  24
ENDBRANCH  19  20
ENDBRANCH  18  19
ENDBRANCH  17  18
ENDBRANCH  16  17
ENDBRANCH  15  16
ENDBRANCH  14  15
ENDBRANCH  13  14
ENDBRANCH   6  13
BRANCH   1  26
HETATM   26  O   UNK N   1      24.426  14.673   2.519  0.00  0.00    -0.353 OA
HETATM   27  C   UNK N   1      24.084  14.545   1.194  0.00  0.00     0.210 C 
ENDBRANCH   1  26
BRANCH   7  28
HETATM   28  N   UNK N   1      28.614  18.300   5.411  0.00  0.00    -0.342 N 
HETATM   29  H   UNK N   1      28.284  19.207   5.218  0.00  0.00     0.167 HD
BRANCH  28  30
HETATM   30  C   UNK N   1      28.868  17.945   6.738  0.00  0.00     0.035 A 
HETATM   31  C   UNK N   1      27.982  18.277   7.768  0.00  0.00     0.029 A 
HETATM   32  C   UNK N   1      28.464  18.273   9.090  0.00  0.00     0.004 A 
HETATM   33  C   UNK N   1      29.840  18.052   9.332  0.00  0.00     0.021 A 
HETATM   34  C   UNK N   1      30.669  17.710   8.256  0.00  0.00     0.019 A 
HETATM   35  C   UNK N   1      30.151  17.614   7.028  0.00  0.00     0.050 A 
BRANCH  34  36
HETATM   36  C   UNK N   1      32.093  17.744   8.249  0.00  0.00    -0.078 C 
HETATM   37  C   UNK N   1      33.273  17.987   8.227  0.00  0.00     0.018 C 
ENDBRANCH  34  36
ENDBRANCH  28  30
ENDBRANCH   7  28
TORSDOF 13
ENDMDL
MODEL 6
REMARK VINA RESULT:      -6.8      2.515      3.666
REMARK  13 active torsions:
REMARK  status: ('A' for Active; 'I' for Inactive)
REMARK    1  A    between atoms: O_2  and  C_3 
REMARK    2  A    between atoms: C_8  and  O_9 
REMARK    3  A    between atoms: O_9  and  C_10 
REMARK    4  A    between atoms: C_10  and  C_11 
REMARK    5  A    between atoms: C_11  and  C_12 
REMARK    6  A    between atoms: C_12  and  C_13 
REMARK    7  A    between atoms: C_13  and  C_14 
REMARK    8  A    between atoms: C_14  and  C_15 
REMARK    9  A    between atoms: C_15  and  C_16 
REMARK       I    between atoms: C_16  and  N_18 
REMARK   10  A    between atoms: N_18  and  O_19 
REMARK   11  A    between atoms: C_20  and  N_26 
REMARK   12  A    between atoms: N_26  and  C_27 
REMARK   13  A    between atoms: C_31  and  C_33 
ROOT
HETATM    1  C   UNK N   1      22.268  17.819   4.581  0.00  0.00     0.103 A 
HETATM    2  C   UNK N   1      21.420  18.245   5.631  0.00  0.00     0.070 A 
HETATM    3  C   UNK N   1      21.167  17.385   6.704  0.00  0.00     0.050 A 
HETATM    4  C   UNK N   1      21.845  16.170   6.760  0.00  0.00     0.038 A 
HETATM    5  C   UNK N   1      22.649  15.759   5.755  0.00  0.00     0.057 A 
HETATM    6  C   UNK N   1      22.834  16.513   4.638  0.00  0.00     0.103 A 
HETATM    7  C   UNK N   1      21.685  15.336   7.807  0.00  0.00     0.119 A 
HETATM    8  N   UNK N   1      20.747  15.657   8.752  0.00  0.00    -0.338 N 
ATOM      9  HN  UNK N   1      20.581  15.012   9.526  1.00  0.00     0.168 HD
HETATM   10  C   UNK N   1      20.033  16.812   8.685  0.00  0.00     0.182 A 
HETATM   11  N   UNK N   1      20.272  17.698   7.679  0.00  0.00    -0.351 N 
ATOM     12  HN  UNK N   1      19.780  18.592   7.656  1.00  0.00     0.166 HD
ENDROOT
BRANCH   6  13
HETATM   13  O   UNK N   1      23.496  15.943   3.610  0.00  0.00    -0.348 OA
BRANCH  13  14
HETATM   14  C   UNK N   1      24.843  15.585   3.700  0.00  0.00     0.176 C 
BRANCH  14  15
HETATM   15  C   UNK N   1      25.778  16.706   3.231  0.00  0.00     0.027 C 
BRANCH  15  16
HETATM   16  C   UNK N   1      26.508  17.372   4.394  0.00  0.00     0.002 C 
BRANCH  16  17
HETATM   17  C   UNK N   1      27.925  17.768   4.006  0.00  0.00     0.001 C 
BRANCH  17  18
HETATM   18  C   UNK N   1      28.333  18.989   4.799  0.00  0.00     0.009 C 
BRANCH  18  19
HETATM   19  C   UNK N   1      27.430  20.172   4.556  0.00  0.00     0.105 C 
BRANCH  19  20
HETATM   20  C   UNK N   1      27.069  20.756   5.878  0.00  0.00     0.240 C 
HETATM   21  O   UNK N   1      27.029  21.971   6.024  0.00  0.00    -0.271 OA
HETATM   22  N   UNK N   1      26.784  19.939   6.911  0.00  0.00    -0.237 N 
HETATM   23  H   UNK N   1      26.817  18.963   6.784  0.00  0.00     0.197 HD
BRANCH  22  24
HETATM   24  O   UNK N   1      26.459  20.442   8.108  0.00  0.00    -0.287 OA
HETATM   25  H   UNK N   1      25.896  19.977   8.746  0.00  0.00     0.244 HD
ENDBRANCH  22  24
ENDBRANCH  19  20
ENDBRANCH  18  19
ENDBRANCH  17  18
ENDBRANCH  16  17
ENDBRANCH  15  16
ENDBRANCH  14  15
ENDBRANCH  13  14
ENDBRANCH   6  13
BRANCH   1  26
HETATM   26  O   UNK N   1      22.456  18.657   3.535  0.00  0.00    -0.353 OA
HETATM   27  C   UNK N   1      21.592  19.666   3.185  0.00  0.00     0.210 C 
ENDBRANCH   1  26
BRANCH   7  28
HETATM   28  N   UNK N   1      22.518  14.157   7.872  0.00  0.00    -0.342 N 
HETATM   29  H   UNK N   1      22.755  13.696   7.036  0.00  0.00     0.167 HD
BRANCH  28  30
HETATM   30  C   UNK N   1      22.998  13.648   9.081  0.00  0.00     0.035 A 
HETATM   31  C   UNK N   1      24.272  13.081   9.183  0.00  0.00     0.029 A 
HETATM   32  C   UNK N   1      24.539  12.231  10.273  0.00  0.00     0.004 A 
HETATM   33  C   UNK N   1      23.494  11.883  11.160  0.00  0.00     0.021 A 
HETATM   34  C   UNK N   1      22.246  12.499  11.010  0.00  0.00     0.019 A 
HETATM   35  C   UNK N   1      22.062  13.387  10.028  0.00  0.00     0.050 A 
BRANCH  34  36
HETATM   36  C   UNK N   1      21.020  12.070  11.597  0.00  0.00    -0.078 C 
HETATM   37  C   UNK N   1      19.892  11.832  11.944  0.00  0.00     0.018 C 
ENDBRANCH  34  36
ENDBRANCH  28  30
ENDBRANCH   7  28
TORSDOF 13
ENDMDL
MODEL 7
REMARK VINA RESULT:      -6.8      5.499      8.167
REMARK  13 active torsions:
REMARK  status: ('A' for Active; 'I' for Inactive)
REMARK    1  A    between atoms: O_2  and  C_3 
REMARK    2  A    between atoms: C_8  and  O_9 
REMARK    3  A    between atoms: O_9  and  C_10 
REMARK    4  A    between atoms: C_10  and  C_11 
REMARK    5  A    between atoms: C_11  and  C_12 
REMARK    6  A    between atoms: C_12  and  C_13 
REMARK    7  A    between atoms: C_13  and  C_14 
REMARK    8  A    between atoms: C_14  and  C_15 
REMARK    9  A    between atoms: C_15  and  C_16 
REMARK       I    between atoms: C_16  and  N_18 
REMARK   10  A    between atoms: N_18  and  O_19 
REMARK   11  A    between atoms: C_20  and  N_26 
REMARK   12  A    between atoms: N_26  and  C_27 
REMARK   13  A    between atoms: C_31  and  C_33 
ROOT
HETATM    1  C   UNK N   1      28.863  13.521   3.439  0.00  0.00     0.103 A 
HETATM    2  C   UNK N   1      27.702  13.433   4.244  0.00  0.00     0.070 A 
HETATM    3  C   UNK N   1      27.415  14.456   5.152  0.00  0.00     0.050 A 
HETATM    4  C   UNK N   1      28.227  15.588   5.163  0.00  0.00     0.038 A 
HETATM    5  C   UNK N   1      29.340  15.668   4.400  0.00  0.00     0.057 A 
HETATM    6  C   UNK N   1      29.721  14.648   3.586  0.00  0.00     0.103 A 
HETATM    7  C   UNK N   1      27.953  16.629   5.973  0.00  0.00     0.119 A 
HETATM    8  N   UNK N   1      26.930  16.496   6.873  0.00  0.00    -0.338 N 
ATOM      9  HN  UNK N   1      26.740  17.258   7.526  1.00  0.00     0.168 HD
HETATM   10  C   UNK N   1      26.160  15.376   6.918  0.00  0.00     0.182 A 
HETATM   11  N   UNK N   1      26.378  14.369   6.028  0.00  0.00    -0.351 N 
ATOM     12  HN  UNK N   1      25.767  13.551   6.020  1.00  0.00     0.166 HD
ENDROOT
BRANCH   6  13
HETATM   13  O   UNK N   1      30.938  14.736   3.011  0.00  0.00    -0.348 OA
BRANCH  13  14
HETATM   14  C   UNK N   1      32.063  15.172   3.716  0.00  0.00     0.176 C 
BRANCH  14  15
HETATM   15  C   UNK N   1      32.629  16.484   3.158  0.00  0.00     0.027 C 
BRANCH  15  16
HETATM   16  C   UNK N   1      32.820  17.537   4.246  0.00  0.00     0.002 C 
BRANCH  16  17
HETATM   17  C   UNK N   1      33.197  16.900   5.576  0.00  0.00     0.001 C 
BRANCH  17  18
HETATM   18  C   UNK N   1      32.465  17.613   6.690  0.00  0.00     0.009 C 
BRANCH  18  19
HETATM   19  C   UNK N   1      32.728  17.004   8.045  0.00  0.00     0.105 C 
BRANCH  19  20
HETATM   20  C   UNK N   1      33.962  17.629   8.599  0.00  0.00     0.240 C 
HETATM   21  O   UNK N   1      34.495  18.562   8.013  0.00  0.00    -0.271 OA
HETATM   22  N   UNK N   1      34.485  17.163   9.749  0.00  0.00    -0.237 N 
HETATM   23  H   UNK N   1      34.048  16.414  10.216  0.00  0.00     0.197 HD
BRANCH  22  24
HETATM   24  O   UNK N   1      35.594  17.710  10.264  0.00  0.00    -0.287 OA
HETATM   25  H   UNK N   1      35.684  18.657  10.450  0.00  0.00     0.244 HD
ENDBRANCH  22  24
ENDBRANCH  19  20
ENDBRANCH  18  19
ENDBRANCH  17  18
ENDBRANCH  16  17
ENDBRANCH  15  16
ENDBRANCH  14  15
ENDBRANCH  13  14
ENDBRANCH   6  13
BRANCH   1  26
HETATM   26  O   UNK N   1      29.137  12.492   2.604  0.00  0.00    -0.353 OA
HETATM   27  C   UNK N   1      28.471  12.252   1.425  0.00  0.00     0.210 C 
ENDBRANCH   1  26
BRANCH   7  28
HETATM   28  N   UNK N   1      28.752  17.826   5.838  0.00  0.00    -0.342 N 
HETATM   29  H   UNK N   1      29.724  17.736   5.711  0.00  0.00     0.167 HD
BRANCH  28  30
HETATM   30  C   UNK N   1      28.194  19.105   5.883  0.00  0.00     0.035 A 
HETATM   31  C   UNK N   1      27.932  19.748   7.097  0.00  0.00     0.029 A 
HETATM   32  C   UNK N   1      27.015  20.816   7.102  0.00  0.00     0.004 A 
HETATM   33  C   UNK N   1      26.302  21.132   5.921  0.00  0.00     0.021 A 
HETATM   34  C   UNK N   1      26.625  20.458   4.737  0.00  0.00     0.019 A 
HETATM   35  C   UNK N   1      27.583  19.526   4.747  0.00  0.00     0.050 A 
BRANCH  34  36
HETATM   36  C   UNK N   1      25.838  20.422   3.549  0.00  0.00    -0.078 C 
HETATM   37  C   UNK N   1      25.314  20.244   2.480  0.00  0.00     0.018 C 
ENDBRANCH  34  36
ENDBRANCH  28  30
ENDBRANCH   7  28
TORSDOF 13
ENDMDL
MODEL 8
REMARK VINA RESULT:      -6.7     12.947     15.888
REMARK  13 active torsions:
REMARK  status: ('A' for Active; 'I' for Inactive)
REMARK    1  A    between atoms: O_2  and  C_3 
REMARK    2  A    between atoms: C_8  and  O_9 
REMARK    3  A    between atoms: O_9  and  C_10 
REMARK    4  A    between atoms: C_10  and  C_11 
REMARK    5  A    between atoms: C_11  and  C_12 
REMARK    6  A    between atoms: C_12  and  C_13 
REMARK    7  A    between atoms: C_13  and  C_14 
REMARK    8  A    between atoms: C_14  and  C_15 
REMARK    9  A    between atoms: C_15  and  C_16 
REMARK       I    between atoms: C_16  and  N_18 
REMARK   10  A    between atoms: N_18  and  O_19 
REMARK   11  A    between atoms: C_20  and  N_26 
REMARK   12  A    between atoms: N_26  and  C_27 
REMARK   13  A    between atoms: C_31  and  C_33 
ROOT
HETATM    1  C   UNK N   1      29.587  29.604  -7.014  0.00  0.00     0.103 A 
HETATM    2  C   UNK N   1      29.333  30.367  -5.850  0.00  0.00     0.070 A 
HETATM    3  C   UNK N   1      28.165  30.137  -5.116  0.00  0.00     0.050 A 
HETATM    4  C   UNK N   1      27.335  29.085  -5.496  0.00  0.00     0.038 A 
HETATM    5  C   UNK N   1      27.573  28.361  -6.612  0.00  0.00     0.057 A 
HETATM    6  C   UNK N   1      28.634  28.625  -7.419  0.00  0.00     0.103 A 
HETATM    7  C   UNK N   1      26.232  28.782  -4.782  0.00  0.00     0.119 A 
HETATM    8  N   UNK N   1      25.884  29.608  -3.748  0.00  0.00    -0.338 N 
ATOM      9  HN  UNK N   1      25.026  29.419  -3.228  1.00  0.00     0.168 HD
HETATM   10  C   UNK N   1      26.651  30.675  -3.397  0.00  0.00     0.182 A 
HETATM   11  N   UNK N   1      27.817  30.917  -4.058  0.00  0.00    -0.351 N 
ATOM     12  HN  UNK N   1      28.425  31.681  -3.762  1.00  0.00     0.166 HD
ENDROOT
BRANCH   6  13
HETATM   13  O   UNK N   1      28.686  27.983  -8.604  0.00  0.00    -0.348 OA
BRANCH  13  14
HETATM   14  C   UNK N   1      28.413  26.618  -8.721  0.00  0.00     0.176 C 
BRANCH  14  15
HETATM   15  C   UNK N   1      29.596  25.746  -8.284  0.00  0.00     0.027 C 
BRANCH  15  16
HETATM   16  C   UNK N   1      29.240  24.836  -7.112  0.00  0.00     0.002 C 
BRANCH  16  17
HETATM   17  C   UNK N   1      29.744  25.406  -5.794  0.00  0.00     0.001 C 
BRANCH  17  18
HETATM   18  C   UNK N   1      30.511  24.335  -5.053  0.00  0.00     0.009 C 
BRANCH  18  19
HETATM   19  C   UNK N   1      30.775  24.697  -3.612  0.00  0.00     0.105 C 
BRANCH  19  20
HETATM   20  C   UNK N   1      30.904  23.431  -2.836  0.00  0.00     0.240 C 
HETATM   21  O   UNK N   1      30.411  23.342  -1.720  0.00  0.00    -0.271 OA
HETATM   22  N   UNK N   1      31.562  22.386  -3.373  0.00  0.00    -0.237 N 
HETATM   23  H   UNK N   1      31.953  22.465  -4.273  0.00  0.00     0.197 HD
BRANCH  22  24
HETATM   24  O   UNK N   1      31.690  21.239  -2.693  0.00  0.00    -0.287 OA
HETATM   25  H   UNK N   1      31.996  21.197  -1.774  0.00  0.00     0.244 HD
ENDBRANCH  22  24
ENDBRANCH  19  20
ENDBRANCH  18  19
ENDBRANCH  17  18
ENDBRANCH  16  17
ENDBRANCH  15  16
ENDBRANCH  14  15
ENDBRANCH  13  14
ENDBRANCH   6  13
BRANCH   1  26
HETATM   26  O   UNK N   1      30.703  29.883  -7.727  0.00  0.00    -0.353 OA
HETATM   27  C   UNK N   1      30.752  30.771  -8.774  0.00  0.00     0.210 C 
ENDBRANCH   1  26
BRANCH   7  28
HETATM   28  N   UNK N   1      25.489  27.597  -5.148  0.00  0.00    -0.342 N 
HETATM   29  H   UNK N   1      24.777  27.673  -5.822  0.00  0.00     0.167 HD
BRANCH  28  30
HETATM   30  C   UNK N   1      25.746  26.349  -4.576  0.00  0.00     0.035 A 
HETATM   31  C   UNK N   1      26.607  26.207  -3.483  0.00  0.00     0.029 A 
HETATM   32  C   UNK N   1      27.145  24.933  -3.219  0.00  0.00     0.004 A 
HETATM   33  C   UNK N   1      26.901  23.871  -4.120  0.00  0.00     0.021 A 
HETATM   34  C   UNK N   1      26.017  24.078  -5.186  0.00  0.00     0.019 A 
HETATM   35  C   UNK N   1      25.436  25.272  -5.340  0.00  0.00     0.050 A 
BRANCH  34  36
HETATM   36  C   UNK N   1      25.880  23.249  -6.338  0.00  0.00    -0.078 C 
HETATM   37  C   UNK N   1      25.801  22.386  -7.174  0.00  0.00     0.018 C 
ENDBRANCH  34  36
ENDBRANCH  28  30
ENDBRANCH   7  28
TORSDOF 13
ENDMDL
MODEL 9
REMARK VINA RESULT:      -6.7      3.184      7.689
REMARK  13 active torsions:
REMARK  status: ('A' for Active; 'I' for Inactive)
REMARK    1  A    between atoms: O_2  and  C_3 
REMARK    2  A    between atoms: C_8  and  O_9 
REMARK    3  A    between atoms: O_9  and  C_10 
REMARK    4  A    between atoms: C_10  and  C_11 
REMARK    5  A    between atoms: C_11  and  C_12 
REMARK    6  A    between atoms: C_12  and  C_13 
REMARK    7  A    between atoms: C_13  and  C_14 
REMARK    8  A    between atoms: C_14  and  C_15 
REMARK    9  A    between atoms: C_15  and  C_16 
REMARK       I    between atoms: C_16  and  N_18 
REMARK   10  A    between atoms: N_18  and  O_19 
REMARK   11  A    between atoms: C_20  and  N_26 
REMARK   12  A    between atoms: N_26  and  C_27 
REMARK   13  A    between atoms: C_31  and  C_33 
ROOT
HETATM    1  C   UNK N   1      23.196  18.607   3.897  0.00  0.00     0.103 A 
HETATM    2  C   UNK N   1      24.179  19.551   3.518  0.00  0.00     0.070 A 
HETATM    3  C   UNK N   1      25.430  19.532   4.141  0.00  0.00     0.050 A 
HETATM    4  C   UNK N   1      25.710  18.510   5.045  0.00  0.00     0.038 A 
HETATM    5  C   UNK N   1      24.770  17.612   5.413  0.00  0.00     0.057 A 
HETATM    6  C   UNK N   1      23.504  17.663   4.920  0.00  0.00     0.103 A 
HETATM    7  C   UNK N   1      26.924  18.410   5.622  0.00  0.00     0.119 A 
HETATM    8  N   UNK N   1      27.834  19.406   5.391  0.00  0.00    -0.338 N 
ATOM      9  HN  UNK N   1      28.741  19.369   5.858  1.00  0.00     0.168 HD
HETATM   10  C   UNK N   1      27.560  20.444   4.555  0.00  0.00     0.182 A 
HETATM   11  N   UNK N   1      26.368  20.486   3.897  0.00  0.00    -0.351 N 
ATOM     12  HN  UNK N   1      26.180  21.231   3.225  1.00  0.00     0.166 HD
ENDROOT
BRANCH   6  13
HETATM   13  O   UNK N   1      22.586  16.852   5.483  0.00  0.00    -0.348 OA
BRANCH  13  14
HETATM   14  C   UNK N   1      22.922  15.923   6.471  0.00  0.00     0.176 C 
BRANCH  14  15
HETATM   15  C   UNK N   1      21.752  14.998   6.826  0.00  0.00     0.027 C 
BRANCH  15  16
HETATM   16  C   UNK N   1      20.881  15.573   7.940  0.00  0.00     0.002 C 
BRANCH  16  17
HETATM   17  C   UNK N   1      21.152  14.882   9.269  0.00  0.00     0.001 C 
BRANCH  17  18
HETATM   18  C   UNK N   1      21.274  13.393   9.035  0.00  0.00     0.009 C 
BRANCH  18  19
HETATM   19  C   UNK N   1      21.641  12.633  10.286  0.00  0.00     0.105 C 
BRANCH  19  20
HETATM   20  C   UNK N   1      23.128  12.572  10.368  0.00  0.00     0.240 C 
HETATM   21  O   UNK N   1      23.803  12.643   9.350  0.00  0.00    -0.271 OA
HETATM   22  N   UNK N   1      23.723  12.442  11.569  0.00  0.00    -0.237 N 
HETATM   23  H   UNK N   1      23.172  12.388  12.384  0.00  0.00     0.197 HD
BRANCH  22  24
HETATM   24  O   UNK N   1      25.057  12.383  11.666  0.00  0.00    -0.287 OA
HETATM   25  H   UNK N   1      25.543  11.563  11.845  0.00  0.00     0.244 HD
ENDBRANCH  22  24
ENDBRANCH  19  20
ENDBRANCH  18  19
ENDBRANCH  17  18
ENDBRANCH  16  17
ENDBRANCH  15  16
ENDBRANCH  14  15
ENDBRANCH  13  14
ENDBRANCH   6  13
BRANCH   1  26
HETATM   26  O   UNK N   1      21.980  18.682   3.308  0.00  0.00    -0.353 OA
HETATM   27  C   UNK N   1      20.922  19.407   3.803  0.00  0.00     0.210 C 
ENDBRANCH   1  26
BRANCH   7  28
HETATM   28  N   UNK N   1      27.194  17.252   6.443  0.00  0.00    -0.342 N 
HETATM   29  H   UNK N   1      26.664  16.435   6.301  0.00  0.00     0.167 HD
BRANCH  28  30
HETATM   30  C   UNK N   1      28.180  17.252   7.433  0.00  0.00     0.035 A 
HETATM   31  C   UNK N   1      28.001  17.925   8.645  0.00  0.00     0.029 A 
HETATM   32  C   UNK N   1      29.141  18.241   9.408  0.00  0.00     0.004 A 
HETATM   33  C   UNK N   1      30.428  17.979   8.882  0.00  0.00     0.021 A 
HETATM   34  C   UNK N   1      30.535  17.288   7.669  0.00  0.00     0.019 A 
HETATM   35  C   UNK N   1      29.427  16.905   7.027  0.00  0.00     0.050 A 
BRANCH  34  36
HETATM   36  C   UNK N   1      31.700  17.199   6.853  0.00  0.00    -0.078 C 
HETATM   37  C   UNK N   1      32.561  17.003   6.034  0.00  0.00     0.018 C 
ENDBRANCH  34  36
ENDBRANCH  28  30
ENDBRANCH   7  28
TORSDOF 13
ENDMDL
