MODEL 1
REMARK VINA RESULT:      -8.4      0.000      0.000
REMARK  10 active torsions:
REMARK  status: ('A' for Active; 'I' for Inactive)
REMARK    1  A    between atoms: C_2  and  C_3 
REMARK    2  A    between atoms: C_2  and  N_17 
REMARK    3  A    between atoms: C_6  and  C_9 
REMARK       I    between atoms: C_9  and  N_11 
REMARK    4  A    between atoms: N_11  and  C_12 
REMARK    5  A    between atoms: C_12  and  C_13 
REMARK    6  A    between atoms: C_13  and  C_14 
REMARK    7  A    between atoms: C_14  and  O_16 
REMARK    8  A    between atoms: C_18  and  C_31 
REMARK    9  A    between atoms: C_20  and  C_23 
REMARK   10  A    between atoms: C_36  and  O_41 
ROOT
HETATM    1  N   UNK N   1      28.748  15.818   4.909  0.00  0.00    -0.282 N 
HETATM    2  C   UNK N   1      28.563  17.159   5.146  0.00  0.00     0.064 A 
HETATM    3  C   UNK N   1      29.559  17.600   6.017  0.00  0.00     0.064 A 
HETATM    4  C   UNK N   1      30.317  16.471   6.266  0.00  0.00     0.060 A 
HETATM    5  N   UNK N   1      29.806  15.429   5.600  0.00  0.00    -0.297 N 
ATOM      6  HN  UNK N   1      30.177  14.477   5.622  1.00  0.00     0.187 HD
ENDROOT
BRANCH   1   7
HETATM    7  C   UNK N   1      27.995  14.868   4.037  0.00  0.00     0.137 C 
HETATM    8  C   UNK N   1      27.899  15.383   2.608  0.00  0.00     0.039 C 
BRANCH   7   9
HETATM    9  C   UNK N   1      26.565  14.500   4.511  0.00  0.00    -0.034 A 
HETATM   10  C   UNK N   1      26.259  14.095   5.826  0.00  0.00     0.010 A 
HETATM   11  C   UNK N   1      24.946  13.802   6.214  0.00  0.00     0.017 A 
HETATM   12  C   UNK N   1      23.889  13.920   5.301  0.00  0.00     0.032 A 
HETATM   13  C   UNK N   1      24.185  14.318   3.991  0.00  0.00     0.017 A 
HETATM   14  C   UNK N   1      25.499  14.594   3.600  0.00  0.00     0.010 A 
BRANCH  12  15
HETATM   15  C   UNK N   1      22.492  13.590   5.744  0.00  0.00     0.251 C 
HETATM   16  O   UNK N   1      22.095  12.443   5.607  0.00  0.00    -0.268 OA
HETATM   17  N   UNK N   1      21.635  14.503   6.284  0.00  0.00    -0.356 N 
HETATM   18  H   UNK N   1      20.725  14.198   6.503  0.00  0.00     0.162 HD
BRANCH  17  19
HETATM   19  C   UNK N   1      21.961  15.881   6.563  0.00  0.00     0.133 C 
BRANCH  19  20
HETATM   20  C   UNK N   1      20.721  16.753   6.466  0.00  0.00     0.129 C 
BRANCH  20  21
HETATM   21  C   UNK N   1      20.552  17.590   7.690  0.00  0.00     0.140 C 
HETATM   22  O   UNK N   1      20.319  17.057   8.761  0.00  0.00    -0.650 OA
BRANCH  21  23
HETATM   23  O   UNK N   1      20.673  18.929   7.619  0.00  0.00    -0.776 OA
HETATM   24  H   UNK N   1      20.927  19.419   8.376  0.00  0.00     0.167 HD
ENDBRANCH  21  23
ENDBRANCH  20  21
ENDBRANCH  19  20
ENDBRANCH  17  19
ENDBRANCH  12  15
ENDBRANCH   7   9
ENDBRANCH   1   7
BRANCH   2  25
HETATM   25  C   UNK N   1      27.500  18.077   4.617  0.00  0.00    -0.007 A 
HETATM   26  C   UNK N   1      27.809  19.290   3.993  0.00  0.00     0.014 A 
HETATM   27  C   UNK N   1      26.809  20.115   3.471  0.00  0.00     0.013 A 
HETATM   28  C   UNK N   1      25.470  19.745   3.581  0.00  0.00    -0.023 A 
HETATM   29  C   UNK N   1      24.471  20.576   3.066  0.00  0.00     0.049 A 
HETATM   30  C   UNK N   1      25.127  18.536   4.220  0.00  0.00    -0.025 A 
HETATM   31  C   UNK N   1      23.124  20.222   3.185  0.00  0.00     0.069 A 
HETATM   32  C   UNK N   1      22.781  19.016   3.828  0.00  0.00     0.037 A 
HETATM   33  C   UNK N   1      23.780  18.176   4.340  0.00  0.00     0.015 A 
HETATM   34  C   UNK N   1      26.141  17.708   4.728  0.00  0.00     0.026 A 
BRANCH  31  35
HETATM   35  O   UNK N   1      22.183  21.055   2.680  0.00  0.00    -0.356 OA
HETATM   36  C   UNK N   1      20.881  20.676   2.445  0.00  0.00     0.210 C 
ENDBRANCH  31  35
ENDBRANCH   2  25
BRANCH   4  37
HETATM   37  C   UNK N   1      31.541  16.357   7.079  0.00  0.00    -0.005 A 
HETATM   38  C   UNK N   1      32.392  17.453   7.296  0.00  0.00     0.037 A 
HETATM   39  C   UNK N   1      33.562  17.292   8.051  0.00  0.00     0.036 A 
HETATM   40  C   UNK N   1      33.885  16.042   8.590  0.00  0.00     0.047 A 
HETATM   41 Cl   UNK N   1      34.630  18.651   8.322  0.00  0.00    -0.084 Cl
HETATM   42  C   UNK N   1      33.041  14.951   8.376  0.00  0.00     0.036 A 
HETATM   43  C   UNK N   1      31.878  15.109   7.624  0.00  0.00     0.037 A 
HETATM   44 Cl   UNK N   1      33.438  13.383   9.046  0.00  0.00    -0.084 Cl
ENDBRANCH   4  37
TORSDOF 10
ENDMDL
MODEL 2
REMARK VINA RESULT:      -8.3      2.022      2.588
REMARK  10 active torsions:
REMARK  status: ('A' for Active; 'I' for Inactive)
REMARK    1  A    between atoms: C_2  and  C_3 
REMARK    2  A    between atoms: C_2  and  N_17 
REMARK    3  A    between atoms: C_6  and  C_9 
REMARK       I    between atoms: C_9  and  N_11 
REMARK    4  A    between atoms: N_11  and  C_12 
REMARK    5  A    between atoms: C_12  and  C_13 
REMARK    6  A    between atoms: C_13  and  C_14 
REMARK    7  A    between atoms: C_14  and  O_16 
REMARK    8  A    between atoms: C_18  and  C_31 
REMARK    9  A    between atoms: C_20  and  C_23 
REMARK   10  A    between atoms: C_36  and  O_41 
ROOT
HETATM    1  N   UNK N   1      29.132  15.420   4.637  0.00  0.00    -0.282 N 
HETATM    2  C   UNK N   1      28.552  16.519   5.223  0.00  0.00     0.064 A 
HETATM    3  C   UNK N   1      29.369  16.950   6.269  0.00  0.00     0.064 A 
HETATM    4  C   UNK N   1      30.430  16.064   6.259  0.00  0.00     0.060 A 
HETATM    5  N   UNK N   1      30.257  15.164   5.283  0.00  0.00    -0.297 N 
ATOM      6  HN  UNK N   1      30.896  14.397   5.071  1.00  0.00     0.187 HD
ENDROOT
BRANCH   1   7
HETATM    7  C   UNK N   1      28.700  14.595   3.470  0.00  0.00     0.137 C 
HETATM    8  C   UNK N   1      29.037  15.279   2.152  0.00  0.00     0.039 C 
BRANCH   7   9
HETATM    9  C   UNK N   1      27.201  14.199   3.436  0.00  0.00    -0.034 A 
HETATM   10  C   UNK N   1      26.571  13.448   4.448  0.00  0.00     0.010 A 
HETATM   11  C   UNK N   1      25.206  13.141   4.387  0.00  0.00     0.017 A 
HETATM   12  C   UNK N   1      24.420  13.588   3.316  0.00  0.00     0.032 A 
HETATM   13  C   UNK N   1      25.042  14.332   2.304  0.00  0.00     0.017 A 
HETATM   14  C   UNK N   1      26.408  14.624   2.357  0.00  0.00     0.010 A 
BRANCH  12  15
HETATM   15  C   UNK N   1      22.961  13.236   3.273  0.00  0.00     0.251 C 
HETATM   16  O   UNK N   1      22.649  12.084   3.010  0.00  0.00    -0.268 OA
HETATM   17  N   UNK N   1      21.960  14.132   3.504  0.00  0.00    -0.356 N 
HETATM   18  H   UNK N   1      21.034  13.813   3.409  0.00  0.00     0.162 HD
BRANCH  17  19
HETATM   19  C   UNK N   1      22.154  15.512   3.878  0.00  0.00     0.133 C 
BRANCH  19  20
HETATM   20  C   UNK N   1      21.483  16.436   2.876  0.00  0.00     0.129 C 
BRANCH  20  21
HETATM   21  C   UNK N   1      20.788  15.662   1.807  0.00  0.00     0.140 C 
HETATM   22  O   UNK N   1      21.394  15.339   0.799  0.00  0.00    -0.650 OA
BRANCH  21  23
HETATM   23  O   UNK N   1      19.499  15.302   1.958  0.00  0.00    -0.776 OA
HETATM   24  H   UNK N   1      19.066  14.810   1.288  0.00  0.00     0.167 HD
ENDBRANCH  21  23
ENDBRANCH  20  21
ENDBRANCH  19  20
ENDBRANCH  17  19
ENDBRANCH  12  15
ENDBRANCH   7   9
ENDBRANCH   1   7
BRANCH   2  25
HETATM   25  C   UNK N   1      27.264  17.208   4.879  0.00  0.00    -0.007 A 
HETATM   26  C   UNK N   1      26.030  16.761   5.363  0.00  0.00     0.014 A 
HETATM   27  C   UNK N   1      24.844  17.438   5.064  0.00  0.00     0.013 A 
HETATM   28  C   UNK N   1      24.871  18.572   4.255  0.00  0.00    -0.023 A 
HETATM   29  C   UNK N   1      23.683  19.242   3.951  0.00  0.00     0.049 A 
HETATM   30  C   UNK N   1      26.099  19.036   3.739  0.00  0.00    -0.025 A 
HETATM   31  C   UNK N   1      23.697  20.371   3.127  0.00  0.00     0.069 A 
HETATM   32  C   UNK N   1      24.923  20.831   2.608  0.00  0.00     0.037 A 
HETATM   33  C   UNK N   1      26.119  20.167   2.916  0.00  0.00     0.015 A 
HETATM   34  C   UNK N   1      27.286  18.357   4.057  0.00  0.00     0.026 A 
BRANCH  31  35
HETATM   35  O   UNK N   1      22.525  20.991   2.848  0.00  0.00    -0.356 OA
HETATM   36  C   UNK N   1      21.319  20.332   2.772  0.00  0.00     0.210 C 
ENDBRANCH  31  35
ENDBRANCH   2  25
BRANCH   4  37
HETATM   37  C   UNK N   1      31.631  16.072   7.114  0.00  0.00    -0.005 A 
HETATM   38  C   UNK N   1      32.415  17.224   7.280  0.00  0.00     0.037 A 
HETATM   39  C   UNK N   1      33.566  17.178   8.080  0.00  0.00     0.036 A 
HETATM   40  C   UNK N   1      33.935  15.985   8.713  0.00  0.00     0.047 A 
HETATM   41 Cl   UNK N   1      34.553  18.607   8.288  0.00  0.00    -0.084 Cl
HETATM   42  C   UNK N   1      33.156  14.838   8.550  0.00  0.00     0.036 A 
HETATM   43  C   UNK N   1      32.013  14.883   7.754  0.00  0.00     0.037 A 
HETATM   44 Cl   UNK N   1      33.611  13.343   9.338  0.00  0.00    -0.084 Cl
ENDBRANCH   4  37
TORSDOF 10
ENDMDL
MODEL 3
REMARK VINA RESULT:      -8.3      3.163      6.035
REMARK  10 active torsions:
REMARK  status: ('A' for Active; 'I' for Inactive)
REMARK    1  A    between atoms: C_2  and  C_3 
REMARK    2  A    between atoms: C_2  and  N_17 
REMARK    3  A    between atoms: C_6  and  C_9 
REMARK       I    between atoms: C_9  and  N_11 
REMARK    4  A    between atoms: N_11  and  C_12 
REMARK    5  A    between atoms: C_12  and  C_13 
REMARK    6  A    between atoms: C_13  and  C_14 
REMARK    7  A    between atoms: C_14  and  O_16 
REMARK    8  A    between atoms: C_18  and  C_31 
REMARK    9  A    between atoms: C_20  and  C_23 
REMARK   10  A    between atoms: C_36  and  O_41 
ROOT
HETATM    1  N   UNK N   1      25.537  15.617   5.940  0.00  0.00    -0.282 N 
HETATM    2  C   UNK N   1      26.220  14.829   5.046  0.00  0.00     0.064 A 
HETATM    3  C   UNK N   1      27.586  15.084   5.177  0.00  0.00     0.064 A 
HETATM    4  C   UNK N   1      27.657  16.040   6.174  0.00  0.00     0.060 A 
HETATM    5  N   UNK N   1      26.425  16.340   6.600  0.00  0.00    -0.297 N 
ATOM      6  HN  UNK N   1      26.204  17.024   7.326  1.00  0.00     0.187 HD
ENDROOT
BRANCH   1   7
HETATM    7  C   UNK N   1      24.077  15.717   6.235  0.00  0.00     0.137 C 
HETATM    8  C   UNK N   1      23.533  14.408   6.791  0.00  0.00     0.039 C 
BRANCH   7   9
HETATM    9  C   UNK N   1      23.173  16.149   5.051  0.00  0.00    -0.034 A 
HETATM   10  C   UNK N   1      23.344  17.352   4.338  0.00  0.00     0.010 A 
HETATM   11  C   UNK N   1      22.519  17.684   3.256  0.00  0.00     0.017 A 
HETATM   12  C   UNK N   1      21.503  16.813   2.839  0.00  0.00     0.032 A 
HETATM   13  C   UNK N   1      21.324  15.616   3.546  0.00  0.00     0.017 A 
HETATM   14  C   UNK N   1      22.136  15.294   4.637  0.00  0.00     0.010 A 
BRANCH  12  15
HETATM   15  C   UNK N   1      20.629  17.200   1.682  0.00  0.00     0.251 C 
HETATM   16  O   UNK N   1      20.629  16.487   0.689  0.00  0.00    -0.268 OA
HETATM   17  N   UNK N   1      19.837  18.310   1.670  0.00  0.00    -0.356 N 
HETATM   18  H   UNK N   1      19.333  18.501   0.846  0.00  0.00     0.162 HD
BRANCH  17  19
HETATM   19  C   UNK N   1      19.679  19.225   2.774  0.00  0.00     0.133 C 
BRANCH  19  20
HETATM   20  C   UNK N   1      20.362  20.548   2.473  0.00  0.00     0.129 C 
BRANCH  20  21
HETATM   21  C   UNK N   1      21.096  20.495   1.175  0.00  0.00     0.140 C 
HETATM   22  O   UNK N   1      22.313  20.423   1.168  0.00  0.00    -0.650 OA
BRANCH  21  23
HETATM   23  O   UNK N   1      20.418  20.507   0.011  0.00  0.00    -0.776 OA
HETATM   24  H   UNK N   1      20.825  20.197  -0.774  0.00  0.00     0.167 HD
ENDBRANCH  21  23
ENDBRANCH  20  21
ENDBRANCH  19  20
ENDBRANCH  17  19
ENDBRANCH  12  15
ENDBRANCH   7   9
ENDBRANCH   1   7
BRANCH   2  25
HETATM   25  C   UNK N   1      25.685  13.839   4.052  0.00  0.00    -0.007 A 
HETATM   26  C   UNK N   1      25.708  12.460   4.290  0.00  0.00     0.014 A 
HETATM   27  C   UNK N   1      25.170  11.556   3.370  0.00  0.00     0.013 A 
HETATM   28  C   UNK N   1      24.610  12.018   2.180  0.00  0.00    -0.023 A 
HETATM   29  C   UNK N   1      24.081  11.110   1.259  0.00  0.00     0.049 A 
HETATM   30  C   UNK N   1      24.590  13.400   1.906  0.00  0.00    -0.025 A 
HETATM   31  C   UNK N   1      23.533  11.561   0.055  0.00  0.00     0.069 A 
HETATM   32  C   UNK N   1      23.517  12.943  -0.222  0.00  0.00     0.037 A 
HETATM   33  C   UNK N   1      24.040  13.857   0.702  0.00  0.00     0.015 A 
HETATM   34  C   UNK N   1      25.120  14.302   2.842  0.00  0.00     0.026 A 
BRANCH  31  35
HETATM   35  O   UNK N   1      23.035  10.652  -0.817  0.00  0.00    -0.356 OA
HETATM   36  C   UNK N   1      23.707   9.509  -1.187  0.00  0.00     0.210 C 
ENDBRANCH  31  35
ENDBRANCH   2  25
BRANCH   4  37
HETATM   37  C   UNK N   1      28.862  16.645   6.770  0.00  0.00    -0.005 A 
HETATM   38  C   UNK N   1      30.127  16.519   6.173  0.00  0.00     0.037 A 
HETATM   39  C   UNK N   1      31.252  17.086   6.791  0.00  0.00     0.036 A 
HETATM   40  C   UNK N   1      31.116  17.776   8.001  0.00  0.00     0.047 A 
HETATM   41 Cl   UNK N   1      32.832  16.930   6.058  0.00  0.00    -0.084 Cl
HETATM   42  C   UNK N   1      29.860  17.903   8.595  0.00  0.00     0.036 A 
HETATM   43  C   UNK N   1      28.742  17.339   7.983  0.00  0.00     0.037 A 
HETATM   44 Cl   UNK N   1      29.682  18.764  10.108  0.00  0.00    -0.084 Cl
ENDBRANCH   4  37
TORSDOF 10
ENDMDL
MODEL 4
REMARK VINA RESULT:      -8.1      5.552      9.698
REMARK  10 active torsions:
REMARK  status: ('A' for Active; 'I' for Inactive)
REMARK    1  A    between atoms: C_2  and  C_3 
REMARK    2  A    between atoms: C_2  and  N_17 
REMARK    3  A    between atoms: C_6  and  C_9 
REMARK       I    between atoms: C_9  and  N_11 
REMARK    4  A    between atoms: N_11  and  C_12 
REMARK    5  A    between atoms: C_12  and  C_13 
REMARK    6  A    between atoms: C_13  and  C_14 
REMARK    7  A    between atoms: C_14  and  O_16 
REMARK    8  A    between atoms: C_18  and  C_31 
REMARK    9  A    between atoms: C_20  and  C_23 
REMARK   10  A    between atoms: C_36  and  O_41 
ROOT
HETATM    1  N   UNK N   1      26.213  16.631   3.563  0.00  0.00    -0.282 N 
HETATM    2  C   UNK N   1      27.193  15.762   3.149  0.00  0.00     0.064 A 
HETATM    3  C   UNK N   1      26.602  14.752   2.388  0.00  0.00     0.064 A 
HETATM    4  C   UNK N   1      25.258  15.076   2.381  0.00  0.00     0.060 A 
HETATM    5  N   UNK N   1      25.058  16.191   3.093  0.00  0.00    -0.297 N 
ATOM      6  HN  UNK N   1      24.152  16.635   3.249  1.00  0.00     0.187 HD
ENDROOT
BRANCH   1   7
HETATM    7  C   UNK N   1      26.300  17.887   4.367  0.00  0.00     0.137 C 
HETATM    8  C   UNK N   1      26.732  19.067   3.508  0.00  0.00     0.039 C 
BRANCH   7   9
HETATM    9  C   UNK N   1      27.224  17.834   5.611  0.00  0.00    -0.034 A 
HETATM   10  C   UNK N   1      28.202  18.807   5.898  0.00  0.00     0.010 A 
HETATM   11  C   UNK N   1      28.993  18.731   7.051  0.00  0.00     0.017 A 
HETATM   12  C   UNK N   1      28.821  17.684   7.967  0.00  0.00     0.032 A 
HETATM   13  C   UNK N   1      27.853  16.710   7.686  0.00  0.00     0.017 A 
HETATM   14  C   UNK N   1      27.076  16.777   6.526  0.00  0.00     0.010 A 
BRANCH  12  15
HETATM   15  C   UNK N   1      29.690  17.624   9.190  0.00  0.00     0.251 C 
HETATM   16  O   UNK N   1      29.164  17.762  10.284  0.00  0.00    -0.268 OA
HETATM   17  N   UNK N   1      31.039  17.431   9.150  0.00  0.00    -0.356 N 
HETATM   18  H   UNK N   1      31.527  17.450  10.004  0.00  0.00     0.162 HD
BRANCH  17  19
HETATM   19  C   UNK N   1      31.806  17.198   7.950  0.00  0.00     0.133 C 
BRANCH  19  20
HETATM   20  C   UNK N   1      33.269  16.967   8.288  0.00  0.00     0.129 C 
BRANCH  20  21
HETATM   21  C   UNK N   1      34.133  18.040   7.713  0.00  0.00     0.140 C 
HETATM   22  O   UNK N   1      34.458  18.992   8.403  0.00  0.00    -0.650 OA
BRANCH  21  23
HETATM   23  O   UNK N   1      34.569  17.953   6.442  0.00  0.00    -0.776 OA
HETATM   24  H   UNK N   1      34.892  18.715   6.002  0.00  0.00     0.167 HD
ENDBRANCH  21  23
ENDBRANCH  20  21
ENDBRANCH  19  20
ENDBRANCH  17  19
ENDBRANCH  12  15
ENDBRANCH   7   9
ENDBRANCH   1   7
BRANCH   2  25
HETATM   25  C   UNK N   1      28.669  15.797   3.420  0.00  0.00    -0.007 A 
HETATM   26  C   UNK N   1      29.528  16.675   2.749  0.00  0.00     0.014 A 
HETATM   27  C   UNK N   1      30.893  16.721   3.043  0.00  0.00     0.013 A 
HETATM   28  C   UNK N   1      31.430  15.871   4.008  0.00  0.00    -0.023 A 
HETATM   29  C   UNK N   1      32.798  15.914   4.293  0.00  0.00     0.049 A 
HETATM   30  C   UNK N   1      30.592  14.964   4.688  0.00  0.00    -0.025 A 
HETATM   31  C   UNK N   1      33.350  15.054   5.247  0.00  0.00     0.069 A 
HETATM   32  C   UNK N   1      32.513  14.144   5.923  0.00  0.00     0.037 A 
HETATM   33  C   UNK N   1      31.140  14.103   5.645  0.00  0.00     0.015 A 
HETATM   34  C   UNK N   1      29.220  14.935   4.395  0.00  0.00     0.026 A 
BRANCH  31  35
HETATM   35  O   UNK N   1      34.681  15.119   5.492  0.00  0.00    -0.356 OA
HETATM   36  C   UNK N   1      35.311  14.370   6.459  0.00  0.00     0.210 C 
ENDBRANCH  31  35
ENDBRANCH   2  25
BRANCH   4  37
HETATM   37  C   UNK N   1      24.159  14.387   1.680  0.00  0.00    -0.005 A 
HETATM   38  C   UNK N   1      22.859  14.913   1.642  0.00  0.00     0.037 A 
HETATM   39  C   UNK N   1      21.837  14.208   0.988  0.00  0.00     0.036 A 
HETATM   40  C   UNK N   1      22.112  12.981   0.374  0.00  0.00     0.047 A 
HETATM   41 Cl   UNK N   1      20.212  14.854   0.940  0.00  0.00    -0.084 Cl
HETATM   42  C   UNK N   1      23.404  12.456   0.411  0.00  0.00     0.036 A 
HETATM   43  C   UNK N   1      24.420  13.155   1.061  0.00  0.00     0.037 A 
HETATM   44 Cl   UNK N   1      23.755  10.922  -0.355  0.00  0.00    -0.084 Cl
ENDBRANCH   4  37
TORSDOF 10
ENDMDL
MODEL 5
REMARK VINA RESULT:      -8.1      2.625      4.639
REMARK  10 active torsions:
REMARK  status: ('A' for Active; 'I' for Inactive)
REMARK    1  A    between atoms: C_2  and  C_3 
REMARK    2  A    between atoms: C_2  and  N_17 
REMARK    3  A    between atoms: C_6  and  C_9 
REMARK       I    between atoms: C_9  and  N_11 
REMARK    4  A    between atoms: N_11  and  C_12 
REMARK    5  A    between atoms: C_12  and  C_13 
REMARK    6  A    between atoms: C_13  and  C_14 
REMARK    7  A    between atoms: C_14  and  O_16 
REMARK    8  A    between atoms: C_18  and  C_31 
REMARK    9  A    between atoms: C_20  and  C_23 
REMARK   10  A    between atoms: C_36  and  O_41 
ROOT
HETATM    1  N   UNK N   1      26.739  14.424   4.635  0.00  0.00    -0.282 N 
HETATM    2  C   UNK N   1      26.237  15.428   5.428  0.00  0.00     0.064 A 
HETATM    3  C   UNK N   1      27.295  16.237   5.846  0.00  0.00     0.064 A 
HETATM    4  C   UNK N   1      28.411  15.664   5.265  0.00  0.00     0.060 A 
HETATM    5  N   UNK N   1      28.049  14.586   4.560  0.00  0.00    -0.297 N 
ATOM      6  HN  UNK N   1      28.687  13.980   4.042  1.00  0.00     0.187 HD
ENDROOT
BRANCH   1   7
HETATM    7  C   UNK N   1      26.047  13.317   3.911  0.00  0.00     0.137 C 
HETATM    8  C   UNK N   1      26.898  12.789   2.764  0.00  0.00     0.039 C 
BRANCH   7   9
HETATM    9  C   UNK N   1      24.639  13.646   3.353  0.00  0.00    -0.034 A 
HETATM   10  C   UNK N   1      23.446  13.121   3.888  0.00  0.00     0.010 A 
HETATM   11  C   UNK N   1      22.194  13.472   3.368  0.00  0.00     0.017 A 
HETATM   12  C   UNK N   1      22.092  14.376   2.300  0.00  0.00     0.032 A 
HETATM   13  C   UNK N   1      23.275  14.899   1.760  0.00  0.00     0.017 A 
HETATM   14  C   UNK N   1      24.525  14.534   2.269  0.00  0.00     0.010 A 
BRANCH  12  15
HETATM   15  C   UNK N   1      20.738  14.727   1.757  0.00  0.00     0.251 C 
HETATM   16  O   UNK N   1      20.271  14.033   0.865  0.00  0.00    -0.268 OA
HETATM   17  N   UNK N   1      19.997  15.783   2.198  0.00  0.00    -0.356 N 
HETATM   18  H   UNK N   1      19.139  15.957   1.748  0.00  0.00     0.162 HD
BRANCH  17  19
HETATM   19  C   UNK N   1      20.374  16.666   3.275  0.00  0.00     0.133 C 
BRANCH  19  20
HETATM   20  C   UNK N   1      20.810  18.016   2.731  0.00  0.00     0.129 C 
BRANCH  20  21
HETATM   21  C   UNK N   1      19.692  19.004   2.778  0.00  0.00     0.140 C 
HETATM   22  O   UNK N   1      19.903  20.141   3.167  0.00  0.00    -0.650 OA
BRANCH  21  23
HETATM   23  O   UNK N   1      18.457  18.651   2.374  0.00  0.00    -0.776 OA
HETATM   24  H   UNK N   1      17.780  18.504   3.006  0.00  0.00     0.167 HD
ENDBRANCH  21  23
ENDBRANCH  20  21
ENDBRANCH  19  20
ENDBRANCH  17  19
ENDBRANCH  12  15
ENDBRANCH   7   9
ENDBRANCH   1   7
BRANCH   2  25
HETATM   25  C   UNK N   1      24.819  15.692   5.840  0.00  0.00    -0.007 A 
HETATM   26  C   UNK N   1      24.069  16.740   5.295  0.00  0.00     0.014 A 
HETATM   27  C   UNK N   1      22.736  16.947   5.663  0.00  0.00     0.013 A 
HETATM   28  C   UNK N   1      22.131  16.113   6.601  0.00  0.00    -0.023 A 
HETATM   29  C   UNK N   1      20.801  16.328   6.972  0.00  0.00     0.049 A 
HETATM   30  C   UNK N   1      22.868  15.059   7.180  0.00  0.00    -0.025 A 
HETATM   31  C   UNK N   1      20.190  15.508   7.925  0.00  0.00     0.069 A 
HETATM   32  C   UNK N   1      20.928  14.458   8.507  0.00  0.00     0.037 A 
HETATM   33  C   UNK N   1      22.260  14.234   8.133  0.00  0.00     0.015 A 
HETATM   34  C   UNK N   1      24.202  14.851   6.794  0.00  0.00     0.026 A 
BRANCH  31  35
HETATM   35  O   UNK N   1      18.902  15.750   8.265  0.00  0.00    -0.356 OA
HETATM   36  C   UNK N   1      18.508  16.827   9.027  0.00  0.00     0.210 C 
ENDBRANCH  31  35
ENDBRANCH   2  25
BRANCH   4  37
HETATM   37  C   UNK N   1      29.807  16.133   5.319  0.00  0.00    -0.005 A 
HETATM   38  C   UNK N   1      30.684  15.976   4.234  0.00  0.00     0.037 A 
HETATM   39  C   UNK N   1      32.013  16.410   4.339  0.00  0.00     0.036 A 
HETATM   40  C   UNK N   1      32.468  17.001   5.524  0.00  0.00     0.047 A 
HETATM   41 Cl   UNK N   1      33.114  16.213   2.994  0.00  0.00    -0.084 Cl
HETATM   42  C   UNK N   1      31.598  17.158   6.604  0.00  0.00     0.036 A 
HETATM   43  C   UNK N   1      30.277  16.725   6.501  0.00  0.00     0.037 A 
HETATM   44 Cl   UNK N   1      32.159  17.896   8.089  0.00  0.00    -0.084 Cl
ENDBRANCH   4  37
TORSDOF 10
ENDMDL
MODEL 6
REMARK VINA RESULT:      -8.1      1.004      1.960
REMARK  10 active torsions:
REMARK  status: ('A' for Active; 'I' for Inactive)
REMARK    1  A    between atoms: C_2  and  C_3 
REMARK    2  A    between atoms: C_2  and  N_17 
REMARK    3  A    between atoms: C_6  and  C_9 
REMARK       I    between atoms: C_9  and  N_11 
REMARK    4  A    between atoms: N_11  and  C_12 
REMARK    5  A    between atoms: C_12  and  C_13 
REMARK    6  A    between atoms: C_13  and  C_14 
REMARK    7  A    between atoms: C_14  and  O_16 
REMARK    8  A    between atoms: C_18  and  C_31 
REMARK    9  A    between atoms: C_20  and  C_23 
REMARK   10  A    between atoms: C_36  and  O_41 
ROOT
HETATM    1  N   UNK N   1      29.247  15.755   4.878  0.00  0.00    -0.282 N 
HETATM    2  C   UNK N   1      28.983  17.063   5.204  0.00  0.00     0.064 A 
HETATM    3  C   UNK N   1      29.918  17.485   6.150  0.00  0.00     0.064 A 
HETATM    4  C   UNK N   1      30.722  16.377   6.351  0.00  0.00     0.060 A 
HETATM    5  N   UNK N   1      30.293  15.365   5.587  0.00  0.00    -0.297 N 
ATOM      6  HN  UNK N   1      30.710  14.434   5.557  1.00  0.00     0.187 HD
ENDROOT
BRANCH   1   7
HETATM    7  C   UNK N   1      28.580  14.839   3.906  0.00  0.00     0.137 C 
HETATM    8  C   UNK N   1      28.657  15.385   2.487  0.00  0.00     0.039 C 
BRANCH   7   9
HETATM    9  C   UNK N   1      27.099  14.490   4.207  0.00  0.00    -0.034 A 
HETATM   10  C   UNK N   1      26.056  14.647   3.273  0.00  0.00     0.010 A 
HETATM   11  C   UNK N   1      24.738  14.290   3.583  0.00  0.00     0.017 A 
HETATM   12  C   UNK N   1      24.421  13.747   4.836  0.00  0.00     0.032 A 
HETATM   13  C   UNK N   1      25.453  13.592   5.771  0.00  0.00     0.017 A 
HETATM   14  C   UNK N   1      26.765  13.965   5.467  0.00  0.00     0.010 A 
BRANCH  12  15
HETATM   15  C   UNK N   1      22.997  13.382   5.143  0.00  0.00     0.251 C 
HETATM   16  O   UNK N   1      22.544  12.354   4.662  0.00  0.00    -0.268 OA
HETATM   17  N   UNK N   1      22.174  14.139   5.923  0.00  0.00    -0.356 N 
HETATM   18  H   UNK N   1      21.244  13.837   6.030  0.00  0.00     0.162 HD
BRANCH  17  19
HETATM   19  C   UNK N   1      22.564  15.348   6.608  0.00  0.00     0.133 C 
BRANCH  19  20
HETATM   20  C   UNK N   1      21.345  16.062   7.167  0.00  0.00     0.129 C 
BRANCH  20  21
HETATM   21  C   UNK N   1      20.155  15.162   7.190  0.00  0.00     0.140 C 
HETATM   22  O   UNK N   1      19.308  15.252   6.317  0.00  0.00    -0.650 OA
BRANCH  21  23
HETATM   23  O   UNK N   1      20.021  14.239   8.161  0.00  0.00    -0.776 OA
HETATM   24  H   UNK N   1      19.850  13.344   7.940  0.00  0.00     0.167 HD
ENDBRANCH  21  23
ENDBRANCH  20  21
ENDBRANCH  19  20
ENDBRANCH  17  19
ENDBRANCH  12  15
ENDBRANCH   7   9
ENDBRANCH   1   7
BRANCH   2  25
HETATM   25  C   UNK N   1      27.899  17.967   4.695  0.00  0.00    -0.007 A 
HETATM   26  C   UNK N   1      28.180  19.191   4.078  0.00  0.00     0.014 A 
HETATM   27  C   UNK N   1      27.159  20.002   3.576  0.00  0.00     0.013 A 
HETATM   28  C   UNK N   1      25.828  19.608   3.697  0.00  0.00    -0.023 A 
HETATM   29  C   UNK N   1      24.808  20.425   3.201  0.00  0.00     0.049 A 
HETATM   30  C   UNK N   1      25.514  18.387   4.330  0.00  0.00    -0.025 A 
HETATM   31  C   UNK N   1      23.469  20.047   3.333  0.00  0.00     0.069 A 
HETATM   32  C   UNK N   1      23.155  18.830   3.969  0.00  0.00     0.037 A 
HETATM   33  C   UNK N   1      24.174  18.003   4.462  0.00  0.00     0.015 A 
HETATM   34  C   UNK N   1      26.547  17.574   4.819  0.00  0.00     0.026 A 
BRANCH  31  35
HETATM   35  O   UNK N   1      22.508  20.867   2.846  0.00  0.00    -0.356 OA
HETATM   36  C   UNK N   1      21.173  20.533   2.807  0.00  0.00     0.210 C 
ENDBRANCH  31  35
ENDBRANCH   2  25
BRANCH   4  37
HETATM   37  C   UNK N   1      31.915  16.261   7.209  0.00  0.00    -0.005 A 
HETATM   38  C   UNK N   1      32.229  15.072   7.884  0.00  0.00     0.037 A 
HETATM   39  C   UNK N   1      33.358  15.015   8.714  0.00  0.00     0.036 A 
HETATM   40  C   UNK N   1      34.172  16.143   8.871  0.00  0.00     0.047 A 
HETATM   41 Cl   UNK N   1      33.756  13.538   9.563  0.00  0.00    -0.084 Cl
HETATM   42  C   UNK N   1      33.861  17.327   8.201  0.00  0.00     0.036 A 
HETATM   43  C   UNK N   1      32.738  17.385   7.377  0.00  0.00     0.037 A 
HETATM   44 Cl   UNK N   1      34.874  18.742   8.393  0.00  0.00    -0.084 Cl
ENDBRANCH   4  37
TORSDOF 10
ENDMDL
MODEL 7
REMARK VINA RESULT:      -8.1      2.210      2.615
REMARK  10 active torsions:
REMARK  status: ('A' for Active; 'I' for Inactive)
REMARK    1  A    between atoms: C_2  and  C_3 
REMARK    2  A    between atoms: C_2  and  N_17 
REMARK    3  A    between atoms: C_6  and  C_9 
REMARK       I    between atoms: C_9  and  N_11 
REMARK    4  A    between atoms: N_11  and  C_12 
REMARK    5  A    between atoms: C_12  and  C_13 
REMARK    6  A    between atoms: C_13  and  C_14 
REMARK    7  A    between atoms: C_14  and  O_16 
REMARK    8  A    between atoms: C_18  and  C_31 
REMARK    9  A    between atoms: C_20  and  C_23 
REMARK   10  A    between atoms: C_36  and  O_41 
ROOT
HETATM    1  N   UNK N   1      28.412  15.690   5.325  0.00  0.00    -0.282 N 
HETATM    2  C   UNK N   1      28.383  17.064   5.317  0.00  0.00     0.064 A 
HETATM    3  C   UNK N   1      29.517  17.538   5.978  0.00  0.00     0.064 A 
HETATM    4  C   UNK N   1      30.191  16.393   6.360  0.00  0.00     0.060 A 
HETATM    5  N   UNK N   1      29.507  15.313   5.964  0.00  0.00    -0.297 N 
ATOM      6  HN  UNK N   1      29.787  14.346   6.131  1.00  0.00     0.187 HD
ENDROOT
BRANCH   1   7
HETATM    7  C   UNK N   1      27.471  14.691   4.738  0.00  0.00     0.137 C 
HETATM    8  C   UNK N   1      27.161  15.010   3.282  0.00  0.00     0.039 C 
BRANCH   7   9
HETATM    9  C   UNK N   1      26.126  14.504   5.486  0.00  0.00    -0.034 A 
HETATM   10  C   UNK N   1      25.957  14.753   6.862  0.00  0.00     0.010 A 
HETATM   11  C   UNK N   1      24.714  14.598   7.486  0.00  0.00     0.017 A 
HETATM   12  C   UNK N   1      23.589  14.202   6.749  0.00  0.00     0.032 A 
HETATM   13  C   UNK N   1      23.750  13.948   5.381  0.00  0.00     0.017 A 
HETATM   14  C   UNK N   1      24.995  14.086   4.762  0.00  0.00     0.010 A 
BRANCH  12  15
HETATM   15  C   UNK N   1      22.270  14.035   7.448  0.00  0.00     0.251 C 
HETATM   16  O   UNK N   1      21.255  14.387   6.865  0.00  0.00    -0.268 OA
HETATM   17  N   UNK N   1      22.140  13.519   8.703  0.00  0.00    -0.356 N 
HETATM   18  H   UNK N   1      21.236  13.491   9.092  0.00  0.00     0.162 HD
BRANCH  17  19
HETATM   19  C   UNK N   1      23.226  13.009   9.505  0.00  0.00     0.133 C 
BRANCH  19  20
HETATM   20  C   UNK N   1      22.700  12.087  10.593  0.00  0.00     0.129 C 
BRANCH  20  21
HETATM   21  C   UNK N   1      23.619  12.059  11.768  0.00  0.00     0.140 C 
HETATM   22  O   UNK N   1      23.172  11.849  12.883  0.00  0.00    -0.650 OA
BRANCH  21  23
HETATM   23  O   UNK N   1      24.942  12.246  11.600  0.00  0.00    -0.776 OA
HETATM   24  H   UNK N   1      25.373  12.962  12.024  0.00  0.00     0.167 HD
ENDBRANCH  21  23
ENDBRANCH  20  21
ENDBRANCH  19  20
ENDBRANCH  17  19
ENDBRANCH  12  15
ENDBRANCH   7   9
ENDBRANCH   1   7
BRANCH   2  25
HETATM   25  C   UNK N   1      27.353  17.986   4.734  0.00  0.00    -0.007 A 
HETATM   26  C   UNK N   1      27.704  19.149   4.040  0.00  0.00     0.014 A 
HETATM   27  C   UNK N   1      26.733  19.977   3.471  0.00  0.00     0.013 A 
HETATM   28  C   UNK N   1      25.382  19.661   3.601  0.00  0.00    -0.023 A 
HETATM   29  C   UNK N   1      24.412  20.496   3.038  0.00  0.00     0.049 A 
HETATM   30  C   UNK N   1      24.997  18.505   4.310  0.00  0.00    -0.025 A 
HETATM   31  C   UNK N   1      23.053  20.197   3.177  0.00  0.00     0.069 A 
HETATM   32  C   UNK N   1      22.669  19.045   3.890  0.00  0.00     0.037 A 
HETATM   33  C   UNK N   1      23.638  18.201   4.451  0.00  0.00     0.015 A 
HETATM   34  C   UNK N   1      25.981  17.673   4.867  0.00  0.00     0.026 A 
BRANCH  31  35
HETATM   35  O   UNK N   1      22.142  21.033   2.623  0.00  0.00    -0.356 OA
HETATM   36  C   UNK N   1      21.128  20.607   1.795  0.00  0.00     0.210 C 
ENDBRANCH  31  35
ENDBRANCH   2  25
BRANCH   4  37
HETATM   37  C   UNK N   1      31.491  16.289   7.047  0.00  0.00    -0.005 A 
HETATM   38  C   UNK N   1      32.307  17.411   7.262  0.00  0.00     0.037 A 
HETATM   39  C   UNK N   1      33.551  17.261   7.894  0.00  0.00     0.036 A 
HETATM   40  C   UNK N   1      33.980  15.996   8.310  0.00  0.00     0.047 A 
HETATM   41 Cl   UNK N   1      34.576  18.653   8.163  0.00  0.00    -0.084 Cl
HETATM   42  C   UNK N   1      33.170  14.879   8.096  0.00  0.00     0.036 A 
HETATM   43  C   UNK N   1      31.935  15.027   7.467  0.00  0.00     0.037 A 
HETATM   44 Cl   UNK N   1      33.701  13.293   8.613  0.00  0.00    -0.084 Cl
ENDBRANCH   4  37
TORSDOF 10
ENDMDL
MODEL 8
REMARK VINA RESULT:      -8.1      5.686     10.672
REMARK  10 active torsions:
REMARK  status: ('A' for Active; 'I' for Inactive)
REMARK    1  A    between atoms: C_2  and  C_3 
REMARK    2  A    between atoms: C_2  and  N_17 
REMARK    3  A    between atoms: C_6  and  C_9 
REMARK       I    between atoms: C_9  and  N_11 
REMARK    4  A    between atoms: N_11  and  C_12 
REMARK    5  A    between atoms: C_12  and  C_13 
REMARK    6  A    between atoms: C_13  and  C_14 
REMARK    7  A    between atoms: C_14  and  O_16 
REMARK    8  A    between atoms: C_18  and  C_31 
REMARK    9  A    between atoms: C_20  and  C_23 
REMARK   10  A    between atoms: C_36  and  O_41 
ROOT
HETATM    1  N   UNK N   1      31.745  17.103   4.946  0.00  0.00    -0.282 N 
HETATM    2  C   UNK N   1      31.570  17.219   6.304  0.00  0.00     0.064 A 
HETATM    3  C   UNK N   1      30.231  17.523   6.557  0.00  0.00     0.064 A 
HETATM    4  C   UNK N   1      29.652  17.573   5.303  0.00  0.00     0.060 A 
HETATM    5  N   UNK N   1      30.577  17.327   4.368  0.00  0.00    -0.297 N 
ATOM      6  HN  UNK N   1      30.408  17.315   3.361  1.00  0.00     0.187 HD
ENDROOT
BRANCH   1   7
HETATM    7  C   UNK N   1      32.958  16.763   4.145  0.00  0.00     0.137 C 
HETATM    8  C   UNK N   1      32.613  16.553   2.678  0.00  0.00     0.039 C 
BRANCH   7   9
HETATM    9  C   UNK N   1      33.768  15.532   4.629  0.00  0.00    -0.034 A 
HETATM   10  C   UNK N   1      34.938  15.626   5.410  0.00  0.00     0.010 A 
HETATM   11  C   UNK N   1      35.618  14.484   5.848  0.00  0.00     0.017 A 
HETATM   12  C   UNK N   1      35.141  13.204   5.532  0.00  0.00     0.032 A 
HETATM   13  C   UNK N   1      33.981  13.102   4.753  0.00  0.00     0.017 A 
HETATM   14  C   UNK N   1      33.312  14.244   4.301  0.00  0.00     0.010 A 
BRANCH  12  15
HETATM   15  C   UNK N   1      35.897  11.997   6.008  0.00  0.00     0.251 C 
HETATM   16  O   UNK N   1      36.753  11.521   5.278  0.00  0.00    -0.268 OA
HETATM   17  N   UNK N   1      35.677  11.393   7.211  0.00  0.00    -0.356 N 
HETATM   18  H   UNK N   1      36.193  10.580   7.414  0.00  0.00     0.162 HD
BRANCH  17  19
HETATM   19  C   UNK N   1      34.744  11.855   8.211  0.00  0.00     0.133 C 
BRANCH  19  20
HETATM   20  C   UNK N   1      33.407  11.151   8.061  0.00  0.00     0.129 C 
BRANCH  20  21
HETATM   21  C   UNK N   1      32.855  10.751   9.389  0.00  0.00     0.140 C 
HETATM   22  O   UNK N   1      31.814  10.118   9.448  0.00  0.00    -0.650 OA
BRANCH  21  23
HETATM   23  O   UNK N   1      33.510  11.071  10.521  0.00  0.00    -0.776 OA
HETATM   24  H   UNK N   1      33.260  10.681  11.336  0.00  0.00     0.167 HD
ENDBRANCH  21  23
ENDBRANCH  20  21
ENDBRANCH  19  20
ENDBRANCH  17  19
ENDBRANCH  12  15
ENDBRANCH   7   9
ENDBRANCH   1   7
BRANCH   2  25
HETATM   25  C   UNK N   1      32.578  17.073   7.407  0.00  0.00    -0.007 A 
HETATM   26  C   UNK N   1      33.550  18.047   7.659  0.00  0.00     0.014 A 
HETATM   27  C   UNK N   1      34.456  17.912   8.714  0.00  0.00     0.013 A 
HETATM   28  C   UNK N   1      34.416  16.784   9.531  0.00  0.00    -0.023 A 
HETATM   29  C   UNK N   1      35.329  16.648  10.581  0.00  0.00     0.049 A 
HETATM   30  C   UNK N   1      33.457  15.778   9.290  0.00  0.00    -0.025 A 
HETATM   31  C   UNK N   1      35.307  15.513  11.396  0.00  0.00     0.069 A 
HETATM   32  C   UNK N   1      34.353  14.506  11.152  0.00  0.00     0.037 A 
HETATM   33  C   UNK N   1      33.431  14.641  10.105  0.00  0.00     0.015 A 
HETATM   34  C   UNK N   1      32.543  15.930   8.236  0.00  0.00     0.026 A 
BRANCH  31  35
HETATM   35  O   UNK N   1      36.212  15.413  12.399  0.00  0.00    -0.356 OA
HETATM   36  C   UNK N   1      36.236  14.371  13.298  0.00  0.00     0.210 C 
ENDBRANCH  31  35
ENDBRANCH   2  25
BRANCH   4  37
HETATM   37  C   UNK N   1      28.235  17.801   4.963  0.00  0.00    -0.005 A 
HETATM   38  C   UNK N   1      27.825  18.902   4.196  0.00  0.00     0.037 A 
HETATM   39  C   UNK N   1      26.463  19.096   3.922  0.00  0.00     0.036 A 
HETATM   40  C   UNK N   1      25.512  18.194   4.412  0.00  0.00     0.047 A 
HETATM   41 Cl   UNK N   1      25.942  20.469   2.971  0.00  0.00    -0.084 Cl
HETATM   42  C   UNK N   1      25.918  17.097   5.175  0.00  0.00     0.036 A 
HETATM   43  C   UNK N   1      27.271  16.905   5.449  0.00  0.00     0.037 A 
HETATM   44 Cl   UNK N   1      24.735  15.965   5.791  0.00  0.00    -0.084 Cl
ENDBRANCH   4  37
TORSDOF 10
ENDMDL
MODEL 9
REMARK VINA RESULT:      -8.0      5.831     10.875
REMARK  10 active torsions:
REMARK  status: ('A' for Active; 'I' for Inactive)
REMARK    1  A    between atoms: C_2  and  C_3 
REMARK    2  A    between atoms: C_2  and  N_17 
REMARK    3  A    between atoms: C_6  and  C_9 
REMARK       I    between atoms: C_9  and  N_11 
REMARK    4  A    between atoms: N_11  and  C_12 
REMARK    5  A    between atoms: C_12  and  C_13 
REMARK    6  A    between atoms: C_13  and  C_14 
REMARK    7  A    between atoms: C_14  and  O_16 
REMARK    8  A    between atoms: C_18  and  C_31 
REMARK    9  A    between atoms: C_20  and  C_23 
REMARK   10  A    between atoms: C_36  and  O_41 
ROOT
HETATM    1  N   UNK N   1      31.548  17.071   5.486  0.00  0.00    -0.282 N 
HETATM    2  C   UNK N   1      31.269  16.788   6.802  0.00  0.00     0.064 A 
HETATM    3  C   UNK N   1      29.980  17.236   7.092  0.00  0.00     0.064 A 
HETATM    4  C   UNK N   1      29.534  17.780   5.901  0.00  0.00     0.060 A 
HETATM    5  N   UNK N   1      30.489  17.673   4.970  0.00  0.00    -0.297 N 
ATOM      6  HN  UNK N   1      30.413  18.006   4.008  1.00  0.00     0.187 HD
ENDROOT
BRANCH   1   7
HETATM    7  C   UNK N   1      32.759  16.783   4.662  0.00  0.00     0.137 C 
HETATM    8  C   UNK N   1      32.450  16.870   3.174  0.00  0.00     0.039 C 
BRANCH   7   9
HETATM    9  C   UNK N   1      33.454  15.422   4.929  0.00  0.00    -0.034 A 
HETATM   10  C   UNK N   1      32.853  14.175   4.669  0.00  0.00     0.010 A 
HETATM   11  C   UNK N   1      33.533  12.973   4.899  0.00  0.00     0.017 A 
HETATM   12  C   UNK N   1      34.849  12.979   5.386  0.00  0.00     0.032 A 
HETATM   13  C   UNK N   1      35.451  14.216   5.651  0.00  0.00     0.017 A 
HETATM   14  C   UNK N   1      34.765  15.415   5.437  0.00  0.00     0.010 A 
BRANCH  12  15
HETATM   15  C   UNK N   1      35.550  11.675   5.632  0.00  0.00     0.251 C 
HETATM   16  O   UNK N   1      36.032  11.085   4.677  0.00  0.00    -0.268 OA
HETATM   17  N   UNK N   1      35.673  11.104   6.864  0.00  0.00    -0.356 N 
HETATM   18  H   UNK N   1      36.113  10.225   6.916  0.00  0.00     0.162 HD
BRANCH  17  19
HETATM   19  C   UNK N   1      35.210  11.691   8.099  0.00  0.00     0.133 C 
BRANCH  19  20
HETATM   20  C   UNK N   1      34.480  10.658   8.940  0.00  0.00     0.129 C 
BRANCH  20  21
HETATM   21  C   UNK N   1      33.022  10.631   8.619  0.00  0.00     0.140 C 
HETATM   22  O   UNK N   1      32.658  10.446   7.470  0.00  0.00    -0.650 OA
BRANCH  21  23
HETATM   23  O   UNK N   1      32.109  10.792   9.595  0.00  0.00    -0.776 OA
HETATM   24  H   UNK N   1      31.197  10.683   9.408  0.00  0.00     0.167 HD
ENDBRANCH  21  23
ENDBRANCH  20  21
ENDBRANCH  19  20
ENDBRANCH  17  19
ENDBRANCH  12  15
ENDBRANCH   7   9
ENDBRANCH   1   7
BRANCH   2  25
HETATM   25  C   UNK N   1      32.135  16.124   7.833  0.00  0.00    -0.007 A 
HETATM   26  C   UNK N   1      31.960  14.786   8.200  0.00  0.00     0.014 A 
HETATM   27  C   UNK N   1      32.801  14.174   9.134  0.00  0.00     0.013 A 
HETATM   28  C   UNK N   1      33.828  14.900   9.733  0.00  0.00    -0.023 A 
HETATM   29  C   UNK N   1      34.661  14.287  10.673  0.00  0.00     0.049 A 
HETATM   30  C   UNK N   1      34.016  16.256   9.395  0.00  0.00    -0.025 A 
HETATM   31  C   UNK N   1      35.683  15.011  11.292  0.00  0.00     0.069 A 
HETATM   32  C   UNK N   1      35.869  16.367  10.958  0.00  0.00     0.037 A 
HETATM   33  C   UNK N   1      35.040  16.984  10.011  0.00  0.00     0.015 A 
HETATM   34  C   UNK N   1      33.175  16.858   8.446  0.00  0.00     0.026 A 
BRANCH  31  35
HETATM   35  O   UNK N   1      36.467  14.386  12.203  0.00  0.00    -0.356 OA
HETATM   36  C   UNK N   1      35.979  13.524  13.159  0.00  0.00     0.210 C 
ENDBRANCH  31  35
ENDBRANCH   2  25
BRANCH   4  37
HETATM   37  C   UNK N   1      28.210  18.356   5.603  0.00  0.00    -0.005 A 
HETATM   38  C   UNK N   1      27.274  17.685   4.800  0.00  0.00     0.037 A 
HETATM   39  C   UNK N   1      26.037  18.284   4.518  0.00  0.00     0.036 A 
HETATM   40  C   UNK N   1      25.735  19.549   5.035  0.00  0.00     0.047 A 
HETATM   41 Cl   UNK N   1      24.866  17.459   3.514  0.00  0.00    -0.084 Cl
HETATM   42  C   UNK N   1      26.664  20.218   5.833  0.00  0.00     0.036 A 
HETATM   43  C   UNK N   1      27.894  19.624   6.113  0.00  0.00     0.037 A 
HETATM   44 Cl   UNK N   1      26.293  21.800   6.483  0.00  0.00    -0.084 Cl
ENDBRANCH   4  37
TORSDOF 10
ENDMDL
