MODEL 1
REMARK VINA RESULT:      -7.9      0.000      0.000
REMARK  7 active torsions:
REMARK  status: ('A' for Active; 'I' for Inactive)
REMARK       I    between atoms: N_2  and  C_3 
REMARK    1  A    between atoms: C_3  and  C_5 
REMARK    2  A    between atoms: C_5  and  N_6 
REMARK    3  A    between atoms: C_9  and  O_12 
REMARK    4  A    between atoms: O_12  and  C_13 
REMARK    5  A    between atoms: C_18  and  O_19 
REMARK    6  A    between atoms: C_26  and  N_27 
REMARK    7  A    between atoms: N_27  and  C_28 
ROOT
HETATM    1  C   UNK N   1      32.298  15.116   3.510  0.00  0.00     0.103 A 
HETATM    2  C   UNK N   1      31.160  15.931   3.498  0.00  0.00     0.057 A 
HETATM    3  C   UNK N   1      29.934  15.486   3.051  0.00  0.00     0.038 A 
HETATM    4  C   UNK N   1      29.806  14.185   2.565  0.00  0.00     0.050 A 
HETATM    5  C   UNK N   1      30.926  13.337   2.548  0.00  0.00     0.070 A 
HETATM    6  C   UNK N   1      32.181  13.783   3.020  0.00  0.00     0.103 A 
HETATM    7  N   UNK N   1      28.595  13.758   2.120  0.00  0.00    -0.351 N 
ATOM      8  HN  UNK N   1      28.492  12.808   1.763  1.00  0.00     0.166 HD
HETATM    9  C   UNK N   1      27.515  14.592   2.146  0.00  0.00     0.182 A 
HETATM   10  N   UNK N   1      27.632  15.863   2.626  0.00  0.00    -0.338 N 
ATOM     11  HN  UNK N   1      26.815  16.474   2.635  1.00  0.00     0.168 HD
HETATM   12  C   UNK N   1      28.822  16.328   3.091  0.00  0.00     0.119 A 
ENDROOT
BRANCH   1  13
HETATM   13  O   UNK N   1      33.472  15.628   3.995  0.00  0.00    -0.343 OA
BRANCH  13  14
HETATM   14  C   UNK N   1      33.578  16.037   5.320  0.00  0.00     0.132 C 
HETATM   15  C   UNK N   1      33.642  17.536   5.554  0.00  0.00     0.062 C 
HETATM   16  C   UNK N   1      33.532  17.774   7.080  0.00  0.00     0.275 C 
HETATM   17  N   UNK N   1      34.500  16.987   7.876  0.00  0.00     0.097 N 
HETATM   18  C   UNK N   1      34.442  15.573   7.493  0.00  0.00     0.275 C 
HETATM   19  C   UNK N   1      34.765  15.421   6.031  0.00  0.00     0.062 C 
BRANCH  17  20
HETATM   20  C   UNK N   1      34.066  17.097   9.275  0.00  0.00     0.374 C 
BRANCH  20  21
HETATM   21  C   UNK N   1      35.006  16.484  10.296  0.00  0.00     0.245 C 
HETATM   22  N   UNK N   1      34.559  15.468  11.071  0.00  0.00    -0.364 N 
HETATM   23  C   UNK N   1      35.408  14.816  12.037  0.00  0.00     0.149 C 
HETATM   24  H   UNK N   1      33.628  15.164  10.971  0.00  0.00     0.161 HD
HETATM   25  O   UNK N   1      36.160  16.880  10.407  0.00  0.00    -0.272 OA
ENDBRANCH  20  21
ENDBRANCH  17  20
ENDBRANCH  13  14
ENDBRANCH   1  13
BRANCH   6  26
HETATM   26  O   UNK N   1      33.220  12.909   2.975  0.00  0.00    -0.353 OA
HETATM   27  C   UNK N   1      34.145  12.829   1.959  0.00  0.00     0.210 C 
ENDBRANCH   6  26
BRANCH  12  28
HETATM   28  N   UNK N   1      28.990  17.655   3.595  0.00  0.00    -0.339 N 
HETATM   29  H   UNK N   1      29.464  18.248   2.969  0.00  0.00     0.167 HD
BRANCH  28  30
HETATM   30  C   UNK N   1      28.620  18.305   4.809  0.00  0.00     0.074 A 
HETATM   31  C   UNK N   1      28.921  17.626   5.997  0.00  0.00     0.033 A 
HETATM   32  C   UNK N   1      28.597  18.165   7.241  0.00  0.00     0.004 A 
HETATM   33  C   UNK N   1      27.958  19.399   7.315  0.00  0.00     0.027 A 
HETATM   34  C   UNK N   1      27.635  20.091   6.147  0.00  0.00     0.074 A 
HETATM   35  C   UNK N   1      27.955  19.554   4.889  0.00  0.00     0.164 A 
HETATM   36 Cl   UNK N   1      26.820  21.639   6.273  0.00  0.00    -0.081 Cl
HETATM   37  F   UNK N   1      27.595  20.246   3.786  0.00  0.00    -0.202 F 
ENDBRANCH  28  30
ENDBRANCH  12  28
TORSDOF 7
ENDMDL
MODEL 2
REMARK VINA RESULT:      -7.8      7.255      9.359
REMARK  7 active torsions:
REMARK  status: ('A' for Active; 'I' for Inactive)
REMARK       I    between atoms: N_2  and  C_3 
REMARK    1  A    between atoms: C_3  and  C_5 
REMARK    2  A    between atoms: C_5  and  N_6 
REMARK    3  A    between atoms: C_9  and  O_12 
REMARK    4  A    between atoms: O_12  and  C_13 
REMARK    5  A    between atoms: C_18  and  O_19 
REMARK    6  A    between atoms: C_26  and  N_27 
REMARK    7  A    between atoms: N_27  and  C_28 
ROOT
HETATM    1  C   UNK N   1      23.020  16.534   5.671  0.00  0.00     0.103 A 
HETATM    2  C   UNK N   1      22.515  15.646   6.628  0.00  0.00     0.057 A 
HETATM    3  C   UNK N   1      21.419  15.943   7.410  0.00  0.00     0.038 A 
HETATM    4  C   UNK N   1      20.788  17.179   7.274  0.00  0.00     0.050 A 
HETATM    5  C   UNK N   1      21.269  18.104   6.334  0.00  0.00     0.070 A 
HETATM    6  C   UNK N   1      22.382  17.799   5.519  0.00  0.00     0.103 A 
HETATM    7  N   UNK N   1      19.712  17.464   8.055  0.00  0.00    -0.351 N 
ATOM      8  HN  UNK N   1      19.244  18.366   7.962  1.00  0.00     0.166 HD
HETATM    9  C   UNK N   1      19.254  16.554   8.962  0.00  0.00     0.182 A 
HETATM   10  N   UNK N   1      19.863  15.341   9.095  0.00  0.00    -0.338 N 
ATOM     11  HN  UNK N   1      19.509  14.673   9.780  1.00  0.00     0.168 HD
HETATM   12  C   UNK N   1      20.935  15.009   8.327  0.00  0.00     0.119 A 
ENDROOT
BRANCH   1  13
HETATM   13  O   UNK N   1      24.098  16.151   4.917  0.00  0.00    -0.343 OA
BRANCH  13  14
HETATM   14  C   UNK N   1      25.380  16.586   5.236  0.00  0.00     0.132 C 
HETATM   15  C   UNK N   1      26.162  17.242   4.112  0.00  0.00     0.062 C 
HETATM   16  C   UNK N   1      27.450  17.841   4.729  0.00  0.00     0.275 C 
HETATM   17  N   UNK N   1      28.228  16.874   5.534  0.00  0.00     0.097 N 
HETATM   18  C   UNK N   1      27.360  16.209   6.511  0.00  0.00     0.275 C 
HETATM   19  C   UNK N   1      26.249  15.481   5.802  0.00  0.00     0.062 C 
BRANCH  17  20
HETATM   20  C   UNK N   1      29.222  17.663   6.274  0.00  0.00     0.374 C 
BRANCH  20  21
HETATM   21  C   UNK N   1      30.420  16.883   6.785  0.00  0.00     0.245 C 
HETATM   22  N   UNK N   1      30.707  16.917   8.108  0.00  0.00    -0.364 N 
HETATM   23  C   UNK N   1      31.808  16.173   8.667  0.00  0.00     0.149 C 
HETATM   24  H   UNK N   1      30.147  17.463   8.705  0.00  0.00     0.161 HD
HETATM   25  O   UNK N   1      31.106  16.212   6.025  0.00  0.00    -0.272 OA
ENDBRANCH  20  21
ENDBRANCH  17  20
ENDBRANCH  13  14
ENDBRANCH   1  13
BRANCH   6  26
HETATM   26  O   UNK N   1      22.792  18.741   4.629  0.00  0.00    -0.353 OA
HETATM   27  C   UNK N   1      22.123  19.088   3.478  0.00  0.00     0.210 C 
ENDBRANCH   6  26
BRANCH  12  28
HETATM   28  N   UNK N   1      21.607  13.753   8.439  0.00  0.00    -0.339 N 
HETATM   29  H   UNK N   1      21.368  13.124   7.721  0.00  0.00     0.167 HD
BRANCH  28  30
HETATM   30  C   UNK N   1      22.547  13.213   9.365  0.00  0.00     0.074 A 
HETATM   31  C   UNK N   1      23.876  13.132   8.928  0.00  0.00     0.033 A 
HETATM   32  C   UNK N   1      24.877  12.613   9.748  0.00  0.00     0.004 A 
HETATM   33  C   UNK N   1      24.559  12.160  11.026  0.00  0.00     0.027 A 
HETATM   34  C   UNK N   1      23.242  12.217  11.481  0.00  0.00     0.074 A 
HETATM   35  C   UNK N   1      22.226  12.735  10.660  0.00  0.00     0.164 A 
HETATM   36 Cl   UNK N   1      22.872  11.628  13.091  0.00  0.00    -0.081 Cl
HETATM   37  F   UNK N   1      20.960  12.742  11.134  0.00  0.00    -0.202 F 
ENDBRANCH  28  30
ENDBRANCH  12  28
TORSDOF 7
ENDMDL
MODEL 3
REMARK VINA RESULT:      -7.6      7.704     10.480
REMARK  7 active torsions:
REMARK  status: ('A' for Active; 'I' for Inactive)
REMARK       I    between atoms: N_2  and  C_3 
REMARK    1  A    between atoms: C_3  and  C_5 
REMARK    2  A    between atoms: C_5  and  N_6 
REMARK    3  A    between atoms: C_9  and  O_12 
REMARK    4  A    between atoms: O_12  and  C_13 
REMARK    5  A    between atoms: C_18  and  O_19 
REMARK    6  A    between atoms: C_26  and  N_27 
REMARK    7  A    between atoms: N_27  and  C_28 
ROOT
HETATM    1  C   UNK N   1      21.157  15.609   3.264  0.00  0.00     0.103 A 
HETATM    2  C   UNK N   1      21.832  16.792   3.584  0.00  0.00     0.057 A 
HETATM    3  C   UNK N   1      21.509  18.007   3.017  0.00  0.00     0.038 A 
HETATM    4  C   UNK N   1      20.489  18.078   2.069  0.00  0.00     0.050 A 
HETATM    5  C   UNK N   1      19.794  16.911   1.710  0.00  0.00     0.070 A 
HETATM    6  C   UNK N   1      20.110  15.667   2.299  0.00  0.00     0.103 A 
HETATM    7  N   UNK N   1      20.183  19.279   1.511  0.00  0.00    -0.351 N 
ATOM      8  HN  UNK N   1      19.438  19.340   0.817  1.00  0.00     0.166 HD
HETATM    9  C   UNK N   1      20.866  20.404   1.872  0.00  0.00     0.182 A 
HETATM   10  N   UNK N   1      21.860  20.342   2.804  0.00  0.00    -0.338 N 
ATOM     11  HN  UNK N   1      22.361  21.193   3.060  1.00  0.00     0.168 HD
HETATM   12  C   UNK N   1      22.192  19.164   3.395  0.00  0.00     0.119 A 
ENDROOT
BRANCH   1  13
HETATM   13  O   UNK N   1      21.524  14.448   3.892  0.00  0.00    -0.343 OA
BRANCH  13  14
HETATM   14  C   UNK N   1      21.561  14.371   5.281  0.00  0.00     0.132 C 
HETATM   15  C   UNK N   1      22.214  13.130   5.863  0.00  0.00     0.062 C 
HETATM   16  C   UNK N   1      22.348  13.348   7.391  0.00  0.00     0.275 C 
HETATM   17  N   UNK N   1      21.082  13.742   8.048  0.00  0.00     0.097 N 
HETATM   18  C   UNK N   1      20.472  14.872   7.341  0.00  0.00     0.275 C 
HETATM   19  C   UNK N   1      20.190  14.495   5.912  0.00  0.00     0.062 C 
BRANCH  17  20
HETATM   20  C   UNK N   1      21.444  14.192   9.398  0.00  0.00     0.374 C 
BRANCH  20  21
HETATM   21  C   UNK N   1      21.745  13.086  10.393  0.00  0.00     0.245 C 
HETATM   22  N   UNK N   1      23.021  12.910  10.810  0.00  0.00    -0.364 N 
HETATM   23  C   UNK N   1      23.373  11.902  11.779  0.00  0.00     0.149 C 
HETATM   24  H   UNK N   1      23.728  13.488  10.443  0.00  0.00     0.161 HD
HETATM   25  O   UNK N   1      20.851  12.376  10.835  0.00  0.00    -0.272 OA
ENDBRANCH  20  21
ENDBRANCH  17  20
ENDBRANCH  13  14
ENDBRANCH   1  13
BRANCH   6  26
HETATM   26  O   UNK N   1      19.395  14.581   1.906  0.00  0.00    -0.353 OA
HETATM   27  C   UNK N   1      19.789  13.680   0.944  0.00  0.00     0.210 C 
ENDBRANCH   6  26
BRANCH  12  28
HETATM   28  N   UNK N   1      23.231  19.055   4.370  0.00  0.00    -0.339 N 
HETATM   29  H   UNK N   1      22.889  18.913   5.282  0.00  0.00     0.167 HD
BRANCH  28  30
HETATM   30  C   UNK N   1      24.654  19.106   4.309  0.00  0.00     0.074 A 
HETATM   31  C   UNK N   1      25.210  20.215   3.658  0.00  0.00     0.033 A 
HETATM   32  C   UNK N   1      26.591  20.363   3.532  0.00  0.00     0.004 A 
HETATM   33  C   UNK N   1      27.442  19.394   4.056  0.00  0.00     0.027 A 
HETATM   34  C   UNK N   1      26.915  18.273   4.698  0.00  0.00     0.074 A 
HETATM   35  C   UNK N   1      25.524  18.114   4.826  0.00  0.00     0.164 A 
HETATM   36 Cl   UNK N   1      28.012  17.064   5.338  0.00  0.00    -0.081 Cl
HETATM   37  F   UNK N   1      25.060  16.997   5.429  0.00  0.00    -0.202 F 
ENDBRANCH  28  30
ENDBRANCH  12  28
TORSDOF 7
ENDMDL
MODEL 4
REMARK VINA RESULT:      -7.4      6.686      9.613
REMARK  7 active torsions:
REMARK  status: ('A' for Active; 'I' for Inactive)
REMARK       I    between atoms: N_2  and  C_3 
REMARK    1  A    between atoms: C_3  and  C_5 
REMARK    2  A    between atoms: C_5  and  N_6 
REMARK    3  A    between atoms: C_9  and  O_12 
REMARK    4  A    between atoms: O_12  and  C_13 
REMARK    5  A    between atoms: C_18  and  O_19 
REMARK    6  A    between atoms: C_26  and  N_27 
REMARK    7  A    between atoms: N_27  and  C_28 
ROOT
HETATM    1  C   UNK N   1      22.281  17.981   4.912  0.00  0.00     0.103 A 
HETATM    2  C   UNK N   1      23.654  18.026   5.183  0.00  0.00     0.057 A 
HETATM    3  C   UNK N   1      24.517  18.860   4.504  0.00  0.00     0.038 A 
HETATM    4  C   UNK N   1      24.028  19.682   3.489  0.00  0.00     0.050 A 
HETATM    5  C   UNK N   1      22.658  19.659   3.177  0.00  0.00     0.070 A 
HETATM    6  C   UNK N   1      21.767  18.818   3.880  0.00  0.00     0.103 A 
HETATM    7  N   UNK N   1      24.888  20.496   2.821  0.00  0.00    -0.351 N 
ATOM      8  HN  UNK N   1      24.539  21.100   2.077  1.00  0.00     0.166 HD
HETATM    9  C   UNK N   1      26.215  20.509   3.138  0.00  0.00     0.182 A 
HETATM   10  N   UNK N   1      26.698  19.713   4.134  0.00  0.00    -0.338 N 
ATOM     11  HN  UNK N   1      27.693  19.733   4.355  1.00  0.00     0.168 HD
HETATM   12  C   UNK N   1      25.872  18.891   4.835  0.00  0.00     0.119 A 
ENDROOT
BRANCH   1  13
HETATM   13  O   UNK N   1      21.489  17.142   5.651  0.00  0.00    -0.343 OA
BRANCH  13  14
HETATM   14  C   UNK N   1      22.050  16.131   6.425  0.00  0.00     0.132 C 
HETATM   15  C   UNK N   1      22.504  14.890   5.676  0.00  0.00     0.062 C 
HETATM   16  C   UNK N   1      23.286  14.004   6.677  0.00  0.00     0.275 C 
HETATM   17  N   UNK N   1      22.549  13.729   7.930  0.00  0.00     0.097 N 
HETATM   18  C   UNK N   1      22.052  14.980   8.513  0.00  0.00     0.275 C 
HETATM   19  C   UNK N   1      21.134  15.672   7.541  0.00  0.00     0.062 C 
BRANCH  17  20
HETATM   20  C   UNK N   1      23.526  13.151   8.862  0.00  0.00     0.374 C 
BRANCH  20  21
HETATM   21  C   UNK N   1      22.935  12.499  10.099  0.00  0.00     0.245 C 
HETATM   22  N   UNK N   1      23.653  12.504  11.247  0.00  0.00    -0.364 N 
HETATM   23  C   UNK N   1      23.140  11.934  12.468  0.00  0.00     0.149 C 
HETATM   24  H   UNK N   1      24.550  12.910  11.249  0.00  0.00     0.161 HD
HETATM   25  O   UNK N   1      21.820  11.995  10.074  0.00  0.00    -0.272 OA
ENDBRANCH  20  21
ENDBRANCH  17  20
ENDBRANCH  13  14
ENDBRANCH   1  13
BRANCH   6  26
HETATM   26  O   UNK N   1      20.456  18.849   3.527  0.00  0.00    -0.353 OA
HETATM   27  C   UNK N   1      19.840  19.882   2.859  0.00  0.00     0.210 C 
ENDBRANCH   6  26
BRANCH  12  28
HETATM   28  N   UNK N   1      26.338  18.036   5.881  0.00  0.00    -0.339 N 
HETATM   29  H   UNK N   1      25.611  17.548   6.331  0.00  0.00     0.167 HD
BRANCH  28  30
HETATM   30  C   UNK N   1      27.626  17.736   6.413  0.00  0.00     0.074 A 
HETATM   31  C   UNK N   1      28.332  16.698   5.789  0.00  0.00     0.033 A 
HETATM   32  C   UNK N   1      29.597  16.315   6.232  0.00  0.00     0.004 A 
HETATM   33  C   UNK N   1      30.178  16.969   7.316  0.00  0.00     0.027 A 
HETATM   34  C   UNK N   1      29.493  17.997   7.962  0.00  0.00     0.074 A 
HETATM   35  C   UNK N   1      28.215  18.387   7.525  0.00  0.00     0.164 A 
HETATM   36 Cl   UNK N   1      30.246  18.793   9.331  0.00  0.00    -0.081 Cl
HETATM   37  F   UNK N   1      27.578  19.368   8.202  0.00  0.00    -0.202 F 
ENDBRANCH  28  30
ENDBRANCH  12  28
TORSDOF 7
ENDMDL
MODEL 5
REMARK VINA RESULT:      -7.4      6.160      7.776
REMARK  7 active torsions:
REMARK  status: ('A' for Active; 'I' for Inactive)
REMARK       I    between atoms: N_2  and  C_3 
REMARK    1  A    between atoms: C_3  and  C_5 
REMARK    2  A    between atoms: C_5  and  N_6 
REMARK    3  A    between atoms: C_9  and  O_12 
REMARK    4  A    between atoms: O_12  and  C_13 
REMARK    5  A    between atoms: C_18  and  O_19 
REMARK    6  A    between atoms: C_26  and  N_27 
REMARK    7  A    between atoms: N_27  and  C_28 
ROOT
HETATM    1  C   UNK N   1      25.306  16.713   4.912  0.00  0.00     0.103 A 
HETATM    2  C   UNK N   1      24.509  15.913   5.739  0.00  0.00     0.057 A 
HETATM    3  C   UNK N   1      23.232  16.275   6.113  0.00  0.00     0.038 A 
HETATM    4  C   UNK N   1      22.703  17.490   5.680  0.00  0.00     0.050 A 
HETATM    5  C   UNK N   1      23.475  18.329   4.859  0.00  0.00     0.070 A 
HETATM    6  C   UNK N   1      24.778  17.956   4.460  0.00  0.00     0.103 A 
HETATM    7  N   UNK N   1      21.446  17.841   6.060  0.00  0.00    -0.351 N 
ATOM      8  HN  UNK N   1      21.052  18.729   5.748  1.00  0.00     0.166 HD
HETATM    9  C   UNK N   1      20.708  17.015   6.856  0.00  0.00     0.182 A 
HETATM   10  N   UNK N   1      21.216  15.821   7.276  0.00  0.00    -0.338 N 
ATOM     11  HN  UNK N   1      20.651  15.217   7.873  1.00  0.00     0.168 HD
HETATM   12  C   UNK N   1      22.465  15.426   6.912  0.00  0.00     0.119 A 
ENDROOT
BRANCH   1  13
HETATM   13  O   UNK N   1      26.555  16.268   4.568  0.00  0.00    -0.343 OA
BRANCH  13  14
HETATM   14  C   UNK N   1      27.621  16.378   5.455  0.00  0.00     0.132 C 
HETATM   15  C   UNK N   1      27.724  17.689   6.215  0.00  0.00     0.062 C 
HETATM   16  C   UNK N   1      28.826  17.517   7.290  0.00  0.00     0.275 C 
HETATM   17  N   UNK N   1      30.110  17.018   6.750  0.00  0.00     0.097 N 
HETATM   18  C   UNK N   1      29.888  15.819   5.936  0.00  0.00     0.275 C 
HETATM   19  C   UNK N   1      28.962  16.137   4.793  0.00  0.00     0.062 C 
BRANCH  17  20
HETATM   20  C   UNK N   1      30.922  16.633   7.912  0.00  0.00     0.374 C 
BRANCH  20  21
HETATM   21  C   UNK N   1      32.370  17.085   7.871  0.00  0.00     0.245 C 
HETATM   22  N   UNK N   1      33.105  17.031   9.006  0.00  0.00    -0.364 N 
HETATM   23  C   UNK N   1      34.496  17.411   9.032  0.00  0.00     0.149 C 
HETATM   24  H   UNK N   1      32.679  16.721   9.838  0.00  0.00     0.161 HD
HETATM   25  O   UNK N   1      32.880  17.471   6.827  0.00  0.00    -0.272 OA
ENDBRANCH  20  21
ENDBRANCH  17  20
ENDBRANCH  13  14
ENDBRANCH   1  13
BRANCH   6  26
HETATM   26  O   UNK N   1      25.466  18.815   3.663  0.00  0.00    -0.353 OA
HETATM   27  C   UNK N   1      25.052  20.081   3.320  0.00  0.00     0.210 C 
ENDBRANCH   6  26
BRANCH  12  28
HETATM   28  N   UNK N   1      23.038  14.188   7.336  0.00  0.00    -0.339 N 
HETATM   29  H   UNK N   1      23.470  13.692   6.603  0.00  0.00     0.167 HD
BRANCH  28  30
HETATM   30  C   UNK N   1      23.120  13.514   8.590  0.00  0.00     0.074 A 
HETATM   31  C   UNK N   1      24.403  13.150   9.020  0.00  0.00     0.033 A 
HETATM   32  C   UNK N   1      24.600  12.480  10.226  0.00  0.00     0.004 A 
HETATM   33  C   UNK N   1      23.506  12.158  11.025  0.00  0.00     0.027 A 
HETATM   34  C   UNK N   1      22.216  12.498  10.616  0.00  0.00     0.074 A 
HETATM   35  C   UNK N   1      22.008  13.170   9.400  0.00  0.00     0.164 A 
HETATM   36 Cl   UNK N   1      20.858  12.068  11.639  0.00  0.00    -0.081 Cl
HETATM   37  F   UNK N   1      20.739  13.450   9.031  0.00  0.00    -0.202 F 
ENDBRANCH  28  30
ENDBRANCH  12  28
TORSDOF 7
ENDMDL
MODEL 6
REMARK VINA RESULT:      -7.3      6.850      9.444
REMARK  7 active torsions:
REMARK  status: ('A' for Active; 'I' for Inactive)
REMARK       I    between atoms: N_2  and  C_3 
REMARK    1  A    between atoms: C_3  and  C_5 
REMARK    2  A    between atoms: C_5  and  N_6 
REMARK    3  A    between atoms: C_9  and  O_12 
REMARK    4  A    between atoms: O_12  and  C_13 
REMARK    5  A    between atoms: C_18  and  O_19 
REMARK    6  A    between atoms: C_26  and  N_27 
REMARK    7  A    between atoms: N_27  and  C_28 
ROOT
HETATM    1  C   UNK N   1      22.967  18.317   4.788  0.00  0.00     0.103 A 
HETATM    2  C   UNK N   1      22.626  17.104   5.397  0.00  0.00     0.057 A 
HETATM    3  C   UNK N   1      21.402  16.497   5.209  0.00  0.00     0.038 A 
HETATM    4  C   UNK N   1      20.443  17.111   4.403  0.00  0.00     0.050 A 
HETATM    5  C   UNK N   1      20.740  18.336   3.783  0.00  0.00     0.070 A 
HETATM    6  C   UNK N   1      21.998  18.953   3.959  0.00  0.00     0.103 A 
HETATM    7  N   UNK N   1      19.237  16.509   4.230  0.00  0.00    -0.351 N 
ATOM      8  HN  UNK N   1      18.530  16.951   3.642  1.00  0.00     0.166 HD
HETATM    9  C   UNK N   1      18.965  15.318   4.837  0.00  0.00     0.182 A 
HETATM   10  N   UNK N   1      19.900  14.709   5.620  0.00  0.00    -0.338 N 
ATOM     11  HN  UNK N   1      19.679  13.820   6.068  1.00  0.00     0.168 HD
HETATM   12  C   UNK N   1      21.123  15.271   5.813  0.00  0.00     0.119 A 
ENDROOT
BRANCH   1  13
HETATM   13  O   UNK N   1      24.214  18.839   5.007  0.00  0.00    -0.343 OA
BRANCH  13  14
HETATM   14  C   UNK N   1      25.356  18.089   4.743  0.00  0.00     0.132 C 
HETATM   15  C   UNK N   1      26.661  18.647   5.284  0.00  0.00     0.062 C 
HETATM   16  C   UNK N   1      27.750  17.566   5.077  0.00  0.00     0.275 C 
HETATM   17  N   UNK N   1      27.828  17.059   3.689  0.00  0.00     0.097 N 
HETATM   18  C   UNK N   1      26.499  16.656   3.219  0.00  0.00     0.275 C 
HETATM   19  C   UNK N   1      25.558  17.829   3.264  0.00  0.00     0.062 C 
BRANCH  17  20
HETATM   20  C   UNK N   1      28.676  15.861   3.737  0.00  0.00     0.374 C 
BRANCH  20  21
HETATM   21  C   UNK N   1      30.163  16.124   3.885  0.00  0.00     0.245 C 
HETATM   22  N   UNK N   1      30.817  16.765   2.888  0.00  0.00    -0.364 N 
HETATM   23  C   UNK N   1      32.221  17.078   2.977  0.00  0.00     0.149 C 
HETATM   24  H   UNK N   1      30.319  17.027   2.080  0.00  0.00     0.161 HD
HETATM   25  O   UNK N   1      30.765  15.786   4.897  0.00  0.00    -0.272 OA
ENDBRANCH  20  21
ENDBRANCH  17  20
ENDBRANCH  13  14
ENDBRANCH   1  13
BRANCH   6  26
HETATM   26  O   UNK N   1      22.217  20.136   3.328  0.00  0.00    -0.353 OA
HETATM   27  C   UNK N   1      21.334  20.751   2.469  0.00  0.00     0.210 C 
ENDBRANCH   6  26
BRANCH  12  28
HETATM   28  N   UNK N   1      22.130  14.670   6.630  0.00  0.00    -0.339 N 
HETATM   29  H   UNK N   1      23.018  14.663   6.206  0.00  0.00     0.167 HD
BRANCH  28  30
HETATM   30  C   UNK N   1      22.126  14.078   7.928  0.00  0.00     0.074 A 
HETATM   31  C   UNK N   1      20.927  14.161   8.647  0.00  0.00     0.033 A 
HETATM   32  C   UNK N   1      20.813  13.624   9.929  0.00  0.00     0.004 A 
HETATM   33  C   UNK N   1      21.907  12.994  10.515  0.00  0.00     0.027 A 
HETATM   34  C   UNK N   1      23.117  12.908   9.825  0.00  0.00     0.074 A 
HETATM   35  C   UNK N   1      23.242  13.449   8.535  0.00  0.00     0.164 A 
HETATM   36 Cl   UNK N   1      24.480  12.118  10.594  0.00  0.00    -0.081 Cl
HETATM   37  F   UNK N   1      24.442  13.368   7.919  0.00  0.00    -0.202 F 
ENDBRANCH  28  30
ENDBRANCH  12  28
TORSDOF 7
ENDMDL
MODEL 7
REMARK VINA RESULT:      -7.2      6.808      9.218
REMARK  7 active torsions:
REMARK  status: ('A' for Active; 'I' for Inactive)
REMARK       I    between atoms: N_2  and  C_3 
REMARK    1  A    between atoms: C_3  and  C_5 
REMARK    2  A    between atoms: C_5  and  N_6 
REMARK    3  A    between atoms: C_9  and  O_12 
REMARK    4  A    between atoms: O_12  and  C_13 
REMARK    5  A    between atoms: C_18  and  O_19 
REMARK    6  A    between atoms: C_26  and  N_27 
REMARK    7  A    between atoms: N_27  and  C_28 
ROOT
HETATM    1  C   UNK N   1      22.725  19.172   3.704  0.00  0.00     0.103 A 
HETATM    2  C   UNK N   1      22.523  18.132   4.617  0.00  0.00     0.057 A 
HETATM    3  C   UNK N   1      21.372  17.372   4.634  0.00  0.00     0.038 A 
HETATM    4  C   UNK N   1      20.348  17.651   3.729  0.00  0.00     0.050 A 
HETATM    5  C   UNK N   1      20.505  18.695   2.802  0.00  0.00     0.070 A 
HETATM    6  C   UNK N   1      21.689  19.465   2.771  0.00  0.00     0.103 A 
HETATM    7  N   UNK N   1      19.214  16.901   3.758  0.00  0.00    -0.351 N 
ATOM      8  HN  UNK N   1      18.460  17.098   3.099  1.00  0.00     0.166 HD
HETATM    9  C   UNK N   1      19.077  15.888   4.662  0.00  0.00     0.182 A 
HETATM   10  N   UNK N   1      20.077  15.607   5.544  0.00  0.00    -0.338 N 
ATOM     11  HN  UNK N   1      19.957  14.848   6.215  1.00  0.00     0.168 HD
HETATM   12  C   UNK N   1      21.232  16.324   5.544  0.00  0.00     0.119 A 
ENDROOT
BRANCH   1  13
HETATM   13  O   UNK N   1      23.909  19.861   3.739  0.00  0.00    -0.343 OA
BRANCH  13  14
HETATM   14  C   UNK N   1      25.025  19.328   4.375  0.00  0.00     0.132 C 
HETATM   15  C   UNK N   1      25.986  20.330   4.991  0.00  0.00     0.062 C 
HETATM   16  C   UNK N   1      27.019  19.531   5.825  0.00  0.00     0.275 C 
HETATM   17  N   UNK N   1      27.672  18.437   5.073  0.00  0.00     0.097 N 
HETATM   18  C   UNK N   1      26.664  17.596   4.420  0.00  0.00     0.275 C 
HETATM   19  C   UNK N   1      25.838  18.423   3.471  0.00  0.00     0.062 C 
BRANCH  17  20
HETATM   20  C   UNK N   1      28.372  17.616   6.070  0.00  0.00     0.374 C 
BRANCH  20  21
HETATM   21  C   UNK N   1      29.861  17.441   5.835  0.00  0.00     0.245 C 
HETATM   22  N   UNK N   1      30.624  16.927   6.829  0.00  0.00    -0.364 N 
HETATM   23  C   UNK N   1      32.038  16.700   6.663  0.00  0.00     0.149 C 
HETATM   24  H   UNK N   1      30.200  16.699   7.688  0.00  0.00     0.161 HD
HETATM   25  O   UNK N   1      30.369  17.734   4.760  0.00  0.00    -0.272 OA
ENDBRANCH  20  21
ENDBRANCH  17  20
ENDBRANCH  13  14
ENDBRANCH   1  13
BRANCH   6  26
HETATM   26  O   UNK N   1      21.774  20.458   1.847  0.00  0.00    -0.353 OA
HETATM   27  C   UNK N   1      20.705  21.017   1.185  0.00  0.00     0.210 C 
ENDBRANCH   6  26
BRANCH  12  28
HETATM   28  N   UNK N   1      22.302  16.067   6.456  0.00  0.00    -0.339 N 
HETATM   29  H   UNK N   1      22.938  16.816   6.525  0.00  0.00     0.167 HD
BRANCH  28  30
HETATM   30  C   UNK N   1      22.648  14.962   7.288  0.00  0.00     0.074 A 
HETATM   31  C   UNK N   1      23.816  14.267   6.946  0.00  0.00     0.033 A 
HETATM   32  C   UNK N   1      24.244  13.165   7.685  0.00  0.00     0.004 A 
HETATM   33  C   UNK N   1      23.503  12.737   8.783  0.00  0.00     0.027 A 
HETATM   34  C   UNK N   1      22.330  13.404   9.138  0.00  0.00     0.074 A 
HETATM   35  C   UNK N   1      21.888  14.513   8.397  0.00  0.00     0.164 A 
HETATM   36 Cl   UNK N   1      21.412  12.835  10.519  0.00  0.00    -0.081 Cl
HETATM   37  F   UNK N   1      20.731  15.108   8.760  0.00  0.00    -0.202 F 
ENDBRANCH  28  30
ENDBRANCH  12  28
TORSDOF 7
ENDMDL
MODEL 8
REMARK VINA RESULT:      -7.2      3.176      5.392
REMARK  7 active torsions:
REMARK  status: ('A' for Active; 'I' for Inactive)
REMARK       I    between atoms: N_2  and  C_3 
REMARK    1  A    between atoms: C_3  and  C_5 
REMARK    2  A    between atoms: C_5  and  N_6 
REMARK    3  A    between atoms: C_9  and  O_12 
REMARK    4  A    between atoms: O_12  and  C_13 
REMARK    5  A    between atoms: C_18  and  O_19 
REMARK    6  A    between atoms: C_26  and  N_27 
REMARK    7  A    between atoms: N_27  and  C_28 
ROOT
HETATM    1  C   UNK N   1      29.659  17.230   7.391  0.00  0.00     0.103 A 
HETATM    2  C   UNK N   1      29.120  17.550   6.140  0.00  0.00     0.057 A 
HETATM    3  C   UNK N   1      28.193  18.557   5.967  0.00  0.00     0.038 A 
HETATM    4  C   UNK N   1      27.746  19.281   7.072  0.00  0.00     0.050 A 
HETATM    5  C   UNK N   1      28.252  18.984   8.348  0.00  0.00     0.070 A 
HETATM    6  C   UNK N   1      29.213  17.965   8.528  0.00  0.00     0.103 A 
HETATM    7  N   UNK N   1      26.826  20.266   6.892  0.00  0.00    -0.351 N 
ATOM      8  HN  UNK N   1      26.494  20.801   7.694  1.00  0.00     0.166 HD
HETATM    9  C   UNK N   1      26.346  20.545   5.645  0.00  0.00     0.182 A 
HETATM   10  N   UNK N   1      26.785  19.845   4.561  0.00  0.00    -0.338 N 
ATOM     11  HN  UNK N   1      26.413  20.065   3.637  1.00  0.00     0.168 HD
HETATM   12  C   UNK N   1      27.711  18.858   4.693  0.00  0.00     0.119 A 
ENDROOT
BRANCH   1  13
HETATM   13  O   UNK N   1      30.594  16.233   7.472  0.00  0.00    -0.343 OA
BRANCH  13  14
HETATM   14  C   UNK N   1      31.774  16.418   8.186  0.00  0.00     0.132 C 
HETATM   15  C   UNK N   1      32.752  17.427   7.611  0.00  0.00     0.062 C 
HETATM   16  C   UNK N   1      33.871  17.639   8.660  0.00  0.00     0.275 C 
HETATM   17  N   UNK N   1      34.493  16.381   9.129  0.00  0.00     0.097 N 
HETATM   18  C   UNK N   1      33.460  15.430   9.552  0.00  0.00     0.275 C 
HETATM   19  C   UNK N   1      32.536  15.127   8.403  0.00  0.00     0.062 C 
BRANCH  17  20
HETATM   20  C   UNK N   1      35.295  16.734  10.307  0.00  0.00     0.374 C 
BRANCH  20  21
HETATM   21  C   UNK N   1      36.136  15.608  10.881  0.00  0.00     0.245 C 
HETATM   22  N   UNK N   1      35.781  15.068  12.071  0.00  0.00    -0.364 N 
HETATM   23  C   UNK N   1      36.513  13.973  12.658  0.00  0.00     0.149 C 
HETATM   24  H   UNK N   1      35.001  15.432  12.548  0.00  0.00     0.161 HD
HETATM   25  O   UNK N   1      37.105  15.172  10.273  0.00  0.00    -0.272 OA
ENDBRANCH  20  21
ENDBRANCH  17  20
ENDBRANCH  13  14
ENDBRANCH   1  13
BRANCH   6  26
HETATM   26  O   UNK N   1      29.661  17.733   9.790  0.00  0.00    -0.353 OA
HETATM   27  C   UNK N   1      29.166  16.773  10.642  0.00  0.00     0.210 C 
ENDBRANCH   6  26
BRANCH  12  28
HETATM   28  N   UNK N   1      28.192  18.097   3.584  0.00  0.00    -0.339 N 
HETATM   29  H   UNK N   1      28.852  18.584   3.040  0.00  0.00     0.167 HD
BRANCH  28  30
HETATM   30  C   UNK N   1      27.925  16.784   3.095  0.00  0.00     0.074 A 
HETATM   31  C   UNK N   1      26.575  16.434   2.957  0.00  0.00     0.033 A 
HETATM   32  C   UNK N   1      26.198  15.173   2.495  0.00  0.00     0.004 A 
HETATM   33  C   UNK N   1      27.174  14.237   2.166  0.00  0.00     0.027 A 
HETATM   34  C   UNK N   1      28.525  14.555   2.306  0.00  0.00     0.074 A 
HETATM   35  C   UNK N   1      28.914  15.822   2.774  0.00  0.00     0.164 A 
HETATM   36 Cl   UNK N   1      29.731  13.350   1.895  0.00  0.00    -0.081 Cl
HETATM   37  F   UNK N   1      30.234  16.073   2.922  0.00  0.00    -0.202 F 
ENDBRANCH  28  30
ENDBRANCH  12  28
TORSDOF 7
ENDMDL
MODEL 9
REMARK VINA RESULT:      -7.2      7.476     11.042
REMARK  7 active torsions:
REMARK  status: ('A' for Active; 'I' for Inactive)
REMARK       I    between atoms: N_2  and  C_3 
REMARK    1  A    between atoms: C_3  and  C_5 
REMARK    2  A    between atoms: C_5  and  N_6 
REMARK    3  A    between atoms: C_9  and  O_12 
REMARK    4  A    between atoms: O_12  and  C_13 
REMARK    5  A    between atoms: C_18  and  O_19 
REMARK    6  A    between atoms: C_26  and  N_27 
REMARK    7  A    between atoms: N_27  and  C_28 
ROOT
HETATM    1  C   UNK N   1      20.852  14.548   7.367  0.00  0.00     0.103 A 
HETATM    2  C   UNK N   1      22.082  13.890   7.250  0.00  0.00     0.057 A 
HETATM    3  C   UNK N   1      22.749  13.366   8.338  0.00  0.00     0.038 A 
HETATM    4  C   UNK N   1      22.207  13.507   9.614  0.00  0.00     0.050 A 
HETATM    5  C   UNK N   1      20.980  14.173   9.778  0.00  0.00     0.070 A 
HETATM    6  C   UNK N   1      20.285  14.696   8.666  0.00  0.00     0.103 A 
HETATM    7  N   UNK N   1      22.876  12.994  10.681  0.00  0.00    -0.351 N 
ATOM      8  HN  UNK N   1      22.486  13.093  11.618  1.00  0.00     0.166 HD
HETATM    9  C   UNK N   1      24.065  12.348  10.506  0.00  0.00     0.182 A 
HETATM   10  N   UNK N   1      24.597  12.201   9.259  0.00  0.00    -0.338 N 
ATOM     11  HN  UNK N   1      25.488  11.717   9.147  1.00  0.00     0.168 HD
HETATM   12  C   UNK N   1      23.957  12.690   8.164  0.00  0.00     0.119 A 
ENDROOT
BRANCH   1  13
HETATM   13  O   UNK N   1      20.243  15.017   6.233  0.00  0.00    -0.343 OA
BRANCH  13  14
HETATM   14  C   UNK N   1      20.781  16.088   5.526  0.00  0.00     0.132 C 
HETATM   15  C   UNK N   1      21.616  15.733   4.308  0.00  0.00     0.062 C 
HETATM   16  C   UNK N   1      21.923  17.052   3.555  0.00  0.00     0.275 C 
HETATM   17  N   UNK N   1      22.507  18.105   4.415  0.00  0.00     0.097 N 
HETATM   18  C   UNK N   1      21.692  18.289   5.620  0.00  0.00     0.275 C 
HETATM   19  C   UNK N   1      21.620  17.001   6.396  0.00  0.00     0.062 C 
BRANCH  17  20
HETATM   20  C   UNK N   1      22.452  19.348   3.635  0.00  0.00     0.374 C 
BRANCH  20  21
HETATM   21  C   UNK N   1      23.796  19.989   3.340  0.00  0.00     0.245 C 
HETATM   22  N   UNK N   1      24.905  19.487   3.933  0.00  0.00    -0.364 N 
HETATM   23  C   UNK N   1      26.217  20.024   3.671  0.00  0.00     0.149 C 
HETATM   24  H   UNK N   1      24.813  18.732   4.558  0.00  0.00     0.161 HD
HETATM   25  O   UNK N   1      23.888  20.929   2.561  0.00  0.00    -0.272 OA
ENDBRANCH  20  21
ENDBRANCH  17  20
ENDBRANCH  13  14
ENDBRANCH   1  13
BRANCH   6  26
HETATM   26  O   UNK N   1      19.103  15.326   8.897  0.00  0.00    -0.353 OA
HETATM   27  C   UNK N   1      18.925  16.690   8.929  0.00  0.00     0.210 C 
ENDBRANCH   6  26
BRANCH  12  28
HETATM   28  N   UNK N   1      24.483  12.563   6.841  0.00  0.00    -0.339 N 
HETATM   29  H   UNK N   1      23.976  11.928   6.285  0.00  0.00     0.167 HD
BRANCH  28  30
HETATM   30  C   UNK N   1      25.581  13.157   6.152  0.00  0.00     0.074 A 
HETATM   31  C   UNK N   1      26.345  12.304   5.345  0.00  0.00     0.033 A 
HETATM   32  C   UNK N   1      27.447  12.776   4.633  0.00  0.00     0.004 A 
HETATM   33  C   UNK N   1      27.804  14.118   4.721  0.00  0.00     0.027 A 
HETATM   34  C   UNK N   1      27.068  14.987   5.526  0.00  0.00     0.074 A 
HETATM   35  C   UNK N   1      25.958  14.519   6.251  0.00  0.00     0.164 A 
HETATM   36 Cl   UNK N   1      27.549  16.670   5.626  0.00  0.00    -0.081 Cl
HETATM   37  F   UNK N   1      25.294  15.392   7.041  0.00  0.00    -0.202 F 
ENDBRANCH  28  30
ENDBRANCH  12  28
TORSDOF 7
ENDMDL
