MODEL 1
REMARK VINA RESULT:      -7.5      0.000      0.000
REMARK  6 active torsions:
REMARK  status: ('A' for Active; 'I' for Inactive)
REMARK    1  A    between atoms: C_2  and  C_3 
REMARK    2  A    between atoms: C_2  and  N_21 
REMARK    3  A    between atoms: C_3  and  C_4 
REMARK    4  A    between atoms: C_3  and  C_12 
REMARK    5  A    between atoms: C_3  and  O_20 
REMARK    6  A    between atoms: C_4  and  N_5 
ROOT
HETATM    1  C   UNK N   1      35.024  11.399  14.332  0.00  0.00     0.126 C 
ENDROOT
BRANCH   1   2
HETATM    2  C   UNK N   1      36.290  11.845  13.511  0.00  0.00     0.131 C 
HETATM    3  C   UNK N   1      37.585  11.944  14.328  0.00  0.00     0.036 C 
BRANCH   2   4
HETATM    4  N   UNK N   1      36.065  13.082  12.711  0.00  0.00    -0.302 N 
HETATM    5  C   UNK N   1      36.372  14.295  13.269  0.00  0.00     0.187 A 
HETATM    6  N   UNK N   1      36.186  15.455  12.589  0.00  0.00    -0.351 N 
HETATM    7  C   UNK N   1      35.673  15.457  11.338  0.00  0.00     0.050 A 
ATOM      8  HN  UNK N   1      36.436  16.341  13.029  1.00  0.00     0.166 HD
HETATM    9  C   UNK N   1      35.473  16.665  10.664  0.00  0.00     0.054 A 
HETATM   10  C   UNK N   1      35.343  14.240  10.717  0.00  0.00     0.059 A 
HETATM   11  C   UNK N   1      34.933  16.665   9.374  0.00  0.00     0.036 A 
HETATM   12  C   UNK N   1      34.598  15.458   8.755  0.00  0.00     0.025 A 
HETATM   13 Cl   UNK N   1      34.679  18.179   8.534  0.00  0.00    -0.084 Cl
HETATM   14  C   UNK N   1      34.806  14.246   9.421  0.00  0.00     0.021 A 
HETATM   15  C   UNK N   1      35.564  13.045  11.417  0.00  0.00     0.261 A 
HETATM   16  O   UNK N   1      35.321  11.980  10.875  0.00  0.00    -0.267 OA
ENDBRANCH   2   4
ENDBRANCH   1   2
BRANCH   1  17
HETATM   17  C   UNK N   1      34.842   9.891  14.082  0.00  0.00     0.195 C 
BRANCH  17  18
HETATM   18  N   UNK N   1      34.444   9.528  12.728  0.00  0.00    -0.284 N 
HETATM   19  C   UNK N   1      35.131   8.750  11.882  0.00  0.00     0.201 A 
HETATM   20  N   UNK N   1      34.500   8.710  10.690  0.00  0.00    -0.346 N 
HETATM   21  C   UNK N   1      33.417   9.504  10.854  0.00  0.00     0.198 A 
ATOM     22  HN  UNK N   1      34.777   8.196   9.854  1.00  0.00     0.167 HD
HETATM   23  N   UNK N   1      33.389  10.010  12.101  0.00  0.00    -0.293 N 
ATOM     24  HN  UNK N   1      32.687  10.643  12.487  1.00  0.00     0.188 HD
ENDBRANCH  17  18
ENDBRANCH   1  17
BRANCH   1  25
HETATM   25  C   UNK N   1      35.153  11.698  15.843  0.00  0.00     0.018 A 
HETATM   26  C   UNK N   1      34.823  12.995  16.287  0.00  0.00     0.016 A 
HETATM   27  C   UNK N   1      34.909  13.349  17.633  0.00  0.00     0.043 A 
HETATM   28  C   UNK N   1      35.324  12.411  18.575  0.00  0.00     0.119 A 
HETATM   29  C   UNK N   1      35.647  11.118  18.170  0.00  0.00     0.085 A 
HETATM   30  F   UNK N   1      35.414  12.756  19.881  0.00  0.00    -0.206 F 
HETATM   31  C   UNK N   1      35.563  10.747  16.823  0.00  0.00     0.128 A 
HETATM   32  F   UNK N   1      35.903   9.476  16.502  0.00  0.00    -0.205 F 
ENDBRANCH   1  25
BRANCH   1  33
HETATM   33  O   UNK N   1      33.909  12.101  13.857  0.00  0.00    -0.381 OA
HETATM   34  H   UNK N   1      32.993  12.417  13.790  0.00  0.00     0.211 HD
ENDBRANCH   1  33
TORSDOF 6
ENDMDL
MODEL 2
REMARK VINA RESULT:      -7.4      3.406      7.046
REMARK  6 active torsions:
REMARK  status: ('A' for Active; 'I' for Inactive)
REMARK    1  A    between atoms: C_2  and  C_3 
REMARK    2  A    between atoms: C_2  and  N_21 
REMARK    3  A    between atoms: C_3  and  C_4 
REMARK    4  A    between atoms: C_3  and  C_12 
REMARK    5  A    between atoms: C_3  and  O_20 
REMARK    6  A    between atoms: C_4  and  N_5 
ROOT
HETATM    1  C   UNK N   1      35.311  12.416  11.338  0.00  0.00     0.126 C 
ENDROOT
BRANCH   1   2
HETATM    2  C   UNK N   1      36.616  12.158  12.177  0.00  0.00     0.131 C 
HETATM    3  C   UNK N   1      37.555  11.093  11.596  0.00  0.00     0.036 C 
BRANCH   2   4
HETATM    4  N   UNK N   1      36.345  11.903  13.620  0.00  0.00    -0.302 N 
HETATM    5  C   UNK N   1      36.363  10.611  14.079  0.00  0.00     0.187 A 
HETATM    6  N   UNK N   1      36.120  10.318  15.381  0.00  0.00    -0.351 N 
HETATM    7  C   UNK N   1      35.836  11.293  16.275  0.00  0.00     0.050 A 
ATOM      8  HN  UNK N   1      36.153   9.347  15.692  1.00  0.00     0.166 HD
HETATM    9  C   UNK N   1      35.572  10.965  17.609  0.00  0.00     0.054 A 
HETATM   10  C   UNK N   1      35.808  12.635  15.860  0.00  0.00     0.059 A 
HETATM   11  C   UNK N   1      35.268  11.973  18.529  0.00  0.00     0.036 A 
HETATM   12  C   UNK N   1      35.233  13.309  18.119  0.00  0.00     0.025 A 
HETATM   13 Cl   UNK N   1      34.934  11.560  20.197  0.00  0.00    -0.084 Cl
HETATM   14  C   UNK N   1      35.507  13.642  16.789  0.00  0.00     0.021 A 
HETATM   15  C   UNK N   1      36.086  12.930  14.517  0.00  0.00     0.261 A 
HETATM   16  O   UNK N   1      36.105  14.094  14.152  0.00  0.00    -0.267 OA
ENDBRANCH   2   4
ENDBRANCH   1   2
BRANCH   1  17
HETATM   17  C   UNK N   1      35.696  13.386  10.206  0.00  0.00     0.195 C 
BRANCH  17  18
HETATM   18  N   UNK N   1      35.373  14.785  10.449  0.00  0.00    -0.284 N 
HETATM   19  C   UNK N   1      34.515  15.535   9.745  0.00  0.00     0.201 A 
HETATM   20  N   UNK N   1      34.540  16.803  10.203  0.00  0.00    -0.346 N 
HETATM   21  C   UNK N   1      35.456  16.785  11.198  0.00  0.00     0.198 A 
ATOM     22  HN  UNK N   1      33.991  17.597   9.873  1.00  0.00     0.167 HD
HETATM   23  N   UNK N   1      35.970  15.550  11.342  0.00  0.00    -0.293 N 
ATOM     24  HN  UNK N   1      36.683  15.261  12.013  1.00  0.00     0.188 HD
ENDBRANCH  17  18
ENDBRANCH   1  17
BRANCH   1  25
HETATM   25  C   UNK N   1      34.696  11.117  10.769  0.00  0.00     0.018 A 
HETATM   26  C   UNK N   1      34.975  10.792   9.425  0.00  0.00     0.016 A 
HETATM   27  C   UNK N   1      34.464   9.638   8.832  0.00  0.00     0.043 A 
HETATM   28  C   UNK N   1      33.661   8.773   9.572  0.00  0.00     0.119 A 
HETATM   29  C   UNK N   1      33.375   9.061  10.905  0.00  0.00     0.085 A 
HETATM   30  F   UNK N   1      33.158   7.656   8.995  0.00  0.00    -0.206 F 
HETATM   31  C   UNK N   1      33.883  10.213  11.514  0.00  0.00     0.128 A 
HETATM   32  F   UNK N   1      33.555  10.433  12.809  0.00  0.00    -0.205 F 
ENDBRANCH   1  25
BRANCH   1  33
HETATM   33  O   UNK N   1      34.351  13.008  12.169  0.00  0.00    -0.381 OA
HETATM   34  H   UNK N   1      33.969  13.577  12.857  0.00  0.00     0.211 HD
ENDBRANCH   1  33
TORSDOF 6
ENDMDL
MODEL 3
REMARK VINA RESULT:      -7.3      5.967      9.673
REMARK  6 active torsions:
REMARK  status: ('A' for Active; 'I' for Inactive)
REMARK    1  A    between atoms: C_2  and  C_3 
REMARK    2  A    between atoms: C_2  and  N_21 
REMARK    3  A    between atoms: C_3  and  C_4 
REMARK    4  A    between atoms: C_3  and  C_12 
REMARK    5  A    between atoms: C_3  and  O_20 
REMARK    6  A    between atoms: C_4  and  N_5 
ROOT
HETATM    1  C   UNK N   1      32.334  16.361   7.541  0.00  0.00     0.126 C 
ENDROOT
BRANCH   1   2
HETATM    2  C   UNK N   1      33.895  16.173   7.571  0.00  0.00     0.131 C 
HETATM    3  C   UNK N   1      34.442  15.168   6.548  0.00  0.00     0.036 C 
BRANCH   2   4
HETATM    4  N   UNK N   1      34.427  15.893   8.934  0.00  0.00    -0.302 N 
HETATM    5  C   UNK N   1      34.939  16.930   9.670  0.00  0.00     0.187 A 
HETATM    6  N   UNK N   1      35.441  16.735  10.915  0.00  0.00    -0.351 N 
HETATM    7  C   UNK N   1      35.469  15.503  11.472  0.00  0.00     0.050 A 
ATOM      8  HN  UNK N   1      35.803  17.531  11.441  1.00  0.00     0.166 HD
HETATM    9  C   UNK N   1      36.007  15.323  12.750  0.00  0.00     0.054 A 
HETATM   10  C   UNK N   1      34.954  14.404  10.763  0.00  0.00     0.059 A 
HETATM   11  C   UNK N   1      36.045  14.047  13.320  0.00  0.00     0.036 A 
HETATM   12  C   UNK N   1      35.540  12.950  12.616  0.00  0.00     0.025 A 
HETATM   13 Cl   UNK N   1      36.723  13.824  14.917  0.00  0.00    -0.084 Cl
HETATM   14  C   UNK N   1      34.991  13.127  11.342  0.00  0.00     0.021 A 
HETATM   15  C   UNK N   1      34.413  14.620   9.487  0.00  0.00     0.261 A 
HETATM   16  O   UNK N   1      33.926  13.683   8.877  0.00  0.00    -0.267 OA
ENDBRANCH   2   4
ENDBRANCH   1   2
BRANCH   1  17
HETATM   17  C   UNK N   1      32.025  17.637   8.345  0.00  0.00     0.195 C 
BRANCH  17  18
HETATM   18  N   UNK N   1      30.677  17.717   8.890  0.00  0.00    -0.284 N 
HETATM   19  C   UNK N   1      29.774  18.673   8.635  0.00  0.00     0.201 A 
HETATM   20  N   UNK N   1      28.672  18.468   9.385  0.00  0.00    -0.346 N 
HETATM   21  C   UNK N   1      28.957  17.360  10.108  0.00  0.00     0.198 A 
ATOM     22  HN  UNK N   1      27.816  19.022   9.403  1.00  0.00     0.167 HD
HETATM   23  N   UNK N   1      30.188  16.906   9.808  0.00  0.00    -0.293 N 
ATOM     24  HN  UNK N   1      30.653  16.093  10.213  1.00  0.00     0.188 HD
ENDBRANCH  17  18
ENDBRANCH   1  17
BRANCH   1  25
HETATM   25  C   UNK N   1      31.768  16.461   6.105  0.00  0.00     0.018 A 
HETATM   26  C   UNK N   1      30.637  15.681   5.788  0.00  0.00     0.016 A 
HETATM   27  C   UNK N   1      30.062  15.713   4.518  0.00  0.00     0.043 A 
HETATM   28  C   UNK N   1      30.602  16.532   3.530  0.00  0.00     0.119 A 
HETATM   29  C   UNK N   1      31.713  17.323   3.815  0.00  0.00     0.085 A 
HETATM   30  F   UNK N   1      30.048  16.559   2.294  0.00  0.00    -0.206 F 
HETATM   31  C   UNK N   1      32.299  17.303   5.085  0.00  0.00     0.128 A 
HETATM   32  F   UNK N   1      33.383  18.090   5.285  0.00  0.00    -0.205 F 
ENDBRANCH   1  25
BRANCH   1  33
HETATM   33  O   UNK N   1      31.735  15.252   8.153  0.00  0.00    -0.381 OA
HETATM   34  H   UNK N   1      31.537  14.581   8.826  0.00  0.00     0.211 HD
ENDBRANCH   1  33
TORSDOF 6
ENDMDL
MODEL 4
REMARK VINA RESULT:      -7.1      9.364     12.758
REMARK  6 active torsions:
REMARK  status: ('A' for Active; 'I' for Inactive)
REMARK    1  A    between atoms: C_2  and  C_3 
REMARK    2  A    between atoms: C_2  and  N_21 
REMARK    3  A    between atoms: C_3  and  C_4 
REMARK    4  A    between atoms: C_3  and  C_12 
REMARK    5  A    between atoms: C_3  and  O_20 
REMARK    6  A    between atoms: C_4  and  N_5 
ROOT
HETATM    1  C   UNK N   1      27.731  17.684   5.249  0.00  0.00     0.126 C 
ENDROOT
BRANCH   1   2
HETATM    2  C   UNK N   1      28.724  17.060   4.201  0.00  0.00     0.131 C 
HETATM    3  C   UNK N   1      28.066  16.164   3.144  0.00  0.00     0.036 C 
BRANCH   2   4
HETATM    4  N   UNK N   1      29.890  16.378   4.830  0.00  0.00    -0.302 N 
HETATM    5  C   UNK N   1      29.692  15.182   5.468  0.00  0.00     0.187 A 
HETATM    6  N   UNK N   1      30.715  14.517   6.063  0.00  0.00    -0.351 N 
HETATM    7  C   UNK N   1      31.970  15.021   6.060  0.00  0.00     0.050 A 
ATOM      8  HN  UNK N   1      30.535  13.623   6.518  1.00  0.00     0.166 HD
HETATM    9  C   UNK N   1      33.005  14.328   6.695  0.00  0.00     0.054 A 
HETATM   10  C   UNK N   1      32.231  16.243   5.418  0.00  0.00     0.059 A 
HETATM   11  C   UNK N   1      34.299  14.855   6.700  0.00  0.00     0.036 A 
HETATM   12  C   UNK N   1      34.562  16.073   6.068  0.00  0.00     0.025 A 
HETATM   13 Cl   UNK N   1      35.593  13.987   7.498  0.00  0.00    -0.084 Cl
HETATM   14  C   UNK N   1      33.533  16.766   5.423  0.00  0.00     0.021 A 
HETATM   15  C   UNK N   1      31.172  16.910   4.784  0.00  0.00     0.261 A 
HETATM   16  O   UNK N   1      31.391  17.951   4.188  0.00  0.00    -0.267 OA
ENDBRANCH   2   4
ENDBRANCH   1   2
BRANCH   1  17
HETATM   17  C   UNK N   1      28.563  18.615   6.150  0.00  0.00     0.195 C 
BRANCH  17  18
HETATM   18  N   UNK N   1      28.694  18.185   7.535  0.00  0.00    -0.284 N 
HETATM   19  C   UNK N   1      29.813  17.744   8.126  0.00  0.00     0.201 A 
HETATM   20  N   UNK N   1      29.535  17.351   9.386  0.00  0.00    -0.346 N 
HETATM   21  C   UNK N   1      28.206  17.562   9.521  0.00  0.00     0.198 A 
ATOM     22  HN  UNK N   1      30.182  16.979  10.081  1.00  0.00     0.167 HD
HETATM   23  N   UNK N   1      27.692  18.067   8.383  0.00  0.00    -0.293 N 
ATOM     24  HN  UNK N   1      26.716  18.310   8.212  1.00  0.00     0.188 HD
ENDBRANCH  17  18
ENDBRANCH   1  17
BRANCH   1  25
HETATM   25  C   UNK N   1      26.564  18.453   4.586  0.00  0.00     0.018 A 
HETATM   26  C   UNK N   1      25.257  17.961   4.784  0.00  0.00     0.016 A 
HETATM   27  C   UNK N   1      24.148  18.594   4.224  0.00  0.00     0.043 A 
HETATM   28  C   UNK N   1      24.317  19.742   3.454  0.00  0.00     0.119 A 
HETATM   29  C   UNK N   1      25.594  20.258   3.248  0.00  0.00     0.085 A 
HETATM   30  F   UNK N   1      23.240  20.354   2.904  0.00  0.00    -0.206 F 
HETATM   31  C   UNK N   1      26.716  19.635   3.805  0.00  0.00     0.128 A 
HETATM   32  F   UNK N   1      27.927  20.187   3.554  0.00  0.00    -0.205 F 
ENDBRANCH   1  25
BRANCH   1  33
HETATM   33  O   UNK N   1      27.174  16.650   6.013  0.00  0.00    -0.381 OA
HETATM   34  H   UNK N   1      27.004  15.753   6.343  0.00  0.00     0.211 HD
ENDBRANCH   1  33
TORSDOF 6
ENDMDL
MODEL 5
REMARK VINA RESULT:      -7.0      6.511      9.167
REMARK  6 active torsions:
REMARK  status: ('A' for Active; 'I' for Inactive)
REMARK    1  A    between atoms: C_2  and  C_3 
REMARK    2  A    between atoms: C_2  and  N_21 
REMARK    3  A    between atoms: C_3  and  C_4 
REMARK    4  A    between atoms: C_3  and  C_12 
REMARK    5  A    between atoms: C_3  and  O_20 
REMARK    6  A    between atoms: C_4  and  N_5 
ROOT
HETATM    1  C   UNK N   1      32.641  16.603   8.136  0.00  0.00     0.126 C 
ENDROOT
BRANCH   1   2
HETATM    2  C   UNK N   1      32.997  15.987   6.733  0.00  0.00     0.131 C 
HETATM    3  C   UNK N   1      34.279  16.538   6.094  0.00  0.00     0.036 C 
BRANCH   2   4
HETATM    4  N   UNK N   1      31.861  16.024   5.769  0.00  0.00    -0.302 N 
HETATM    5  C   UNK N   1      31.593  17.193   5.106  0.00  0.00     0.187 A 
HETATM    6  N   UNK N   1      30.569  17.287   4.221  0.00  0.00    -0.351 N 
HETATM    7  C   UNK N   1      29.763  16.230   3.970  0.00  0.00     0.050 A 
ATOM      8  HN  UNK N   1      30.404  18.169   3.736  1.00  0.00     0.166 HD
HETATM    9  C   UNK N   1      28.704  16.355   3.066  0.00  0.00     0.054 A 
HETATM   10  C   UNK N   1      29.995  15.006   4.619  0.00  0.00     0.059 A 
HETATM   11  C   UNK N   1      27.866  15.265   2.816  0.00  0.00     0.036 A 
HETATM   12  C   UNK N   1      28.088  14.047   3.464  0.00  0.00     0.025 A 
HETATM   13 Cl   UNK N   1      26.537  15.425   1.688  0.00  0.00    -0.084 Cl
HETATM   14  C   UNK N   1      29.153  13.914   4.361  0.00  0.00     0.021 A 
HETATM   15  C   UNK N   1      31.071  14.911   5.513  0.00  0.00     0.261 A 
HETATM   16  O   UNK N   1      31.309  13.843   6.053  0.00  0.00    -0.267 OA
ENDBRANCH   2   4
ENDBRANCH   1   2
BRANCH   1  17
HETATM   17  C   UNK N   1      31.238  16.085   8.504  0.00  0.00     0.195 C 
BRANCH  17  18
HETATM   18  N   UNK N   1      30.235  17.117   8.733  0.00  0.00    -0.284 N 
HETATM   19  C   UNK N   1      29.200  17.408   7.934  0.00  0.00     0.201 A 
HETATM   20  N   UNK N   1      28.538  18.477   8.421  0.00  0.00    -0.346 N 
HETATM   21  C   UNK N   1      29.226  18.822   9.534  0.00  0.00     0.198 A 
ATOM     22  HN  UNK N   1      27.707  18.925   8.036  1.00  0.00     0.167 HD
HETATM   23  N   UNK N   1      30.269  17.991   9.719  0.00  0.00    -0.293 N 
ATOM     24  HN  UNK N   1      30.952  18.030  10.476  1.00  0.00     0.188 HD
ENDBRANCH  17  18
ENDBRANCH   1  17
BRANCH   1  25
HETATM   25  C   UNK N   1      33.670  16.238   9.230  0.00  0.00     0.018 A 
HETATM   26  C   UNK N   1      33.469  15.041   9.949  0.00  0.00     0.016 A 
HETATM   27  C   UNK N   1      34.349  14.635  10.951  0.00  0.00     0.043 A 
HETATM   28  C   UNK N   1      35.461  15.415  11.258  0.00  0.00     0.119 A 
HETATM   29  C   UNK N   1      35.693  16.598  10.559  0.00  0.00     0.085 A 
HETATM   30  F   UNK N   1      36.313  15.026  12.236  0.00  0.00    -0.206 F 
HETATM   31  C   UNK N   1      34.820  17.017   9.550  0.00  0.00     0.128 A 
HETATM   32  F   UNK N   1      35.104  18.182   8.921  0.00  0.00    -0.205 F 
ENDBRANCH   1  25
BRANCH   1  33
HETATM   33  O   UNK N   1      32.622  17.999   8.023  0.00  0.00    -0.381 OA
HETATM   34  H   UNK N   1      32.314  18.888   7.785  0.00  0.00     0.211 HD
ENDBRANCH   1  33
TORSDOF 6
ENDMDL
MODEL 6
REMARK VINA RESULT:      -7.0     10.036     12.836
REMARK  6 active torsions:
REMARK  status: ('A' for Active; 'I' for Inactive)
REMARK    1  A    between atoms: C_2  and  C_3 
REMARK    2  A    between atoms: C_2  and  N_21 
REMARK    3  A    between atoms: C_3  and  C_4 
REMARK    4  A    between atoms: C_3  and  C_12 
REMARK    5  A    between atoms: C_3  and  O_20 
REMARK    6  A    between atoms: C_4  and  N_5 
ROOT
HETATM    1  C   UNK N   1      29.677  16.478   5.027  0.00  0.00     0.126 C 
ENDROOT
BRANCH   1   2
HETATM    2  C   UNK N   1      29.052  17.726   5.753  0.00  0.00     0.131 C 
HETATM    3  C   UNK N   1      29.187  17.716   7.281  0.00  0.00     0.036 C 
BRANCH   2   4
HETATM    4  N   UNK N   1      27.647  18.003   5.341  0.00  0.00    -0.302 N 
HETATM    5  C   UNK N   1      26.655  17.157   5.764  0.00  0.00     0.187 A 
HETATM    6  N   UNK N   1      25.358  17.356   5.418  0.00  0.00    -0.351 N 
HETATM    7  C   UNK N   1      24.998  18.393   4.627  0.00  0.00     0.050 A 
ATOM      8  HN  UNK N   1      24.643  16.714   5.759  1.00  0.00     0.166 HD
HETATM    9  C   UNK N   1      23.658  18.568   4.269  0.00  0.00     0.054 A 
HETATM   10  C   UNK N   1      25.974  19.293   4.169  0.00  0.00     0.059 A 
HETATM   11  C   UNK N   1      23.289  19.635   3.444  0.00  0.00     0.036 A 
HETATM   12  C   UNK N   1      24.257  20.529   2.980  0.00  0.00     0.025 A 
HETATM   13 Cl   UNK N   1      21.612  19.850   2.993  0.00  0.00    -0.084 Cl
HETATM   14  C   UNK N   1      25.597  20.364   3.344  0.00  0.00     0.021 A 
HETATM   15  C   UNK N   1      27.308  19.094   4.553  0.00  0.00     0.261 A 
HETATM   16  O   UNK N   1      28.160  19.891   4.196  0.00  0.00    -0.267 OA
ENDBRANCH   2   4
ENDBRANCH   1   2
BRANCH   1  17
HETATM   17  C   UNK N   1      29.390  16.650   3.524  0.00  0.00     0.195 C 
BRANCH  17  18
HETATM   18  N   UNK N   1      28.645  15.561   2.905  0.00  0.00    -0.284 N 
HETATM   19  C   UNK N   1      27.363  15.596   2.520  0.00  0.00     0.201 A 
HETATM   20  N   UNK N   1      26.991  14.379   2.072  0.00  0.00    -0.346 N 
HETATM   21  C   UNK N   1      28.096  13.614   2.217  0.00  0.00     0.198 A 
ATOM     22  HN  UNK N   1      26.081  14.100   1.706  1.00  0.00     0.167 HD
HETATM   23  N   UNK N   1      29.107  14.338   2.734  0.00  0.00    -0.293 N 
ATOM     24  HN  UNK N   1      30.047  14.005   2.950  1.00  0.00     0.188 HD
ENDBRANCH  17  18
ENDBRANCH   1  17
BRANCH   1  25
HETATM   25  C   UNK N   1      31.194  16.330   5.287  0.00  0.00     0.018 A 
HETATM   26  C   UNK N   1      31.628  15.209   6.024  0.00  0.00     0.016 A 
HETATM   27  C   UNK N   1      32.978  14.997   6.303  0.00  0.00     0.043 A 
HETATM   28  C   UNK N   1      33.933  15.901   5.844  0.00  0.00     0.119 A 
HETATM   29  C   UNK N   1      33.537  17.013   5.104  0.00  0.00     0.085 A 
HETATM   30  F   UNK N   1      35.244  15.700   6.120  0.00  0.00    -0.206 F 
HETATM   31  C   UNK N   1      32.187  17.238   4.815  0.00  0.00     0.128 A 
HETATM   32  F   UNK N   1      31.876  18.345   4.100  0.00  0.00    -0.205 F 
ENDBRANCH   1  25
BRANCH   1  33
HETATM   33  O   UNK N   1      29.052  15.319   5.505  0.00  0.00    -0.381 OA
HETATM   34  H   UNK N   1      28.800  14.607   6.114  0.00  0.00     0.211 HD
ENDBRANCH   1  33
TORSDOF 6
ENDMDL
MODEL 7
REMARK VINA RESULT:      -7.0     20.569     24.036
REMARK  6 active torsions:
REMARK  status: ('A' for Active; 'I' for Inactive)
REMARK    1  A    between atoms: C_2  and  C_3 
REMARK    2  A    between atoms: C_2  and  N_21 
REMARK    3  A    between atoms: C_3  and  C_4 
REMARK    4  A    between atoms: C_3  and  C_12 
REMARK    5  A    between atoms: C_3  and  O_20 
REMARK    6  A    between atoms: C_4  and  N_5 
ROOT
HETATM    1  C   UNK N   1      27.106  25.533  -6.235  0.00  0.00     0.126 C 
ENDROOT
BRANCH   1   2
HETATM    2  C   UNK N   1      26.845  24.186  -5.467  0.00  0.00     0.131 C 
HETATM    3  C   UNK N   1      25.708  24.241  -4.438  0.00  0.00     0.036 C 
BRANCH   2   4
HETATM    4  N   UNK N   1      28.078  23.600  -4.871  0.00  0.00    -0.302 N 
HETATM    5  C   UNK N   1      28.418  23.937  -3.587  0.00  0.00     0.187 A 
HETATM    6  N   UNK N   1      29.532  23.438  -2.994  0.00  0.00    -0.351 N 
HETATM    7  C   UNK N   1      30.359  22.598  -3.656  0.00  0.00     0.050 A 
ATOM      8  HN  UNK N   1      29.749  23.701  -2.033  1.00  0.00     0.166 HD
HETATM    9  C   UNK N   1      31.510  22.111  -3.031  0.00  0.00     0.054 A 
HETATM   10  C   UNK N   1      30.057  22.216  -4.974  0.00  0.00     0.059 A 
HETATM   11  C   UNK N   1      32.369  21.250  -3.721  0.00  0.00     0.036 A 
HETATM   12  C   UNK N   1      32.077  20.872  -5.034  0.00  0.00     0.025 A 
HETATM   13 Cl   UNK N   1      33.813  20.644  -2.938  0.00  0.00    -0.084 Cl
HETATM   14  C   UNK N   1      30.921  21.349  -5.660  0.00  0.00     0.021 A 
HETATM   15  C   UNK N   1      28.890  22.716  -5.570  0.00  0.00     0.261 A 
HETATM   16  O   UNK N   1      28.594  22.361  -6.699  0.00  0.00    -0.267 OA
ENDBRANCH   2   4
ENDBRANCH   1   2
BRANCH   1  17
HETATM   17  C   UNK N   1      26.146  25.552  -7.439  0.00  0.00     0.195 C 
BRANCH  17  18
HETATM   18  N   UNK N   1      26.309  24.452  -8.380  0.00  0.00    -0.284 N 
HETATM   19  C   UNK N   1      25.406  23.501  -8.652  0.00  0.00     0.201 A 
HETATM   20  N   UNK N   1      25.937  22.601  -9.504  0.00  0.00    -0.346 N 
HETATM   21  C   UNK N   1      27.197  23.044  -9.720  0.00  0.00     0.198 A 
ATOM     22  HN  UNK N   1      25.490  21.773  -9.898  1.00  0.00     0.167 HD
HETATM   23  N   UNK N   1      27.424  24.174  -9.025  0.00  0.00    -0.293 N 
ATOM     24  HN  UNK N   1      28.292  24.711  -9.003  1.00  0.00     0.188 HD
ENDBRANCH  17  18
ENDBRANCH   1  17
BRANCH   1  25
HETATM   25  C   UNK N   1      26.901  26.781  -5.345  0.00  0.00     0.018 A 
HETATM   26  C   UNK N   1      28.040  27.353  -4.743  0.00  0.00     0.016 A 
HETATM   27  C   UNK N   1      27.946  28.480  -3.927  0.00  0.00     0.043 A 
HETATM   28  C   UNK N   1      26.706  29.069  -3.695  0.00  0.00     0.119 A 
HETATM   29  C   UNK N   1      25.563  28.534  -4.284  0.00  0.00     0.085 A 
HETATM   30  F   UNK N   1      26.612  30.160  -2.897  0.00  0.00    -0.206 F 
HETATM   31  C   UNK N   1      25.642  27.405  -5.107  0.00  0.00     0.128 A 
HETATM   32  F   UNK N   1      24.488  26.935  -5.636  0.00  0.00    -0.205 F 
ENDBRANCH   1  25
BRANCH   1  33
HETATM   33  O   UNK N   1      28.434  25.547  -6.681  0.00  0.00    -0.381 OA
HETATM   34  H   UNK N   1      29.249  25.257  -7.121  0.00  0.00     0.211 HD
ENDBRANCH   1  33
TORSDOF 6
ENDMDL
MODEL 8
REMARK VINA RESULT:      -6.9      6.937     10.756
REMARK  6 active torsions:
REMARK  status: ('A' for Active; 'I' for Inactive)
REMARK    1  A    between atoms: C_2  and  C_3 
REMARK    2  A    between atoms: C_2  and  N_21 
REMARK    3  A    between atoms: C_3  and  C_4 
REMARK    4  A    between atoms: C_3  and  C_12 
REMARK    5  A    between atoms: C_3  and  O_20 
REMARK    6  A    between atoms: C_4  and  N_5 
ROOT
HETATM    1  C   UNK N   1      30.685  16.651   5.867  0.00  0.00     0.126 C 
ENDROOT
BRANCH   1   2
HETATM    2  C   UNK N   1      32.119  17.264   5.667  0.00  0.00     0.131 C 
HETATM    3  C   UNK N   1      32.533  17.471   4.204  0.00  0.00     0.036 C 
BRANCH   2   4
HETATM    4  N   UNK N   1      33.179  16.541   6.426  0.00  0.00    -0.302 N 
HETATM    5  C   UNK N   1      33.905  15.570   5.786  0.00  0.00     0.187 A 
HETATM    6  N   UNK N   1      34.879  14.877   6.427  0.00  0.00    -0.351 N 
HETATM    7  C   UNK N   1      35.160  15.108   7.730  0.00  0.00     0.050 A 
ATOM      8  HN  UNK N   1      35.409  14.169   5.919  1.00  0.00     0.166 HD
HETATM    9  C   UNK N   1      36.156  14.369   8.374  0.00  0.00     0.054 A 
HETATM   10  C   UNK N   1      34.449  16.095   8.433  0.00  0.00     0.059 A 
HETATM   11  C   UNK N   1      36.439  14.603   9.723  0.00  0.00     0.036 A 
HETATM   12  C   UNK N   1      35.729  15.579  10.428  0.00  0.00     0.025 A 
HETATM   13 Cl   UNK N   1      37.683  13.673  10.529  0.00  0.00    -0.084 Cl
HETATM   14  C   UNK N   1      34.739  16.328   9.785  0.00  0.00     0.021 A 
HETATM   15  C   UNK N   1      33.461  16.825   7.755  0.00  0.00     0.261 A 
HETATM   16  O   UNK N   1      32.864  17.713   8.341  0.00  0.00    -0.267 OA
ENDBRANCH   2   4
ENDBRANCH   1   2
BRANCH   1  17
HETATM   17  C   UNK N   1      29.720  17.834   6.067  0.00  0.00     0.195 C 
BRANCH  17  18
HETATM   18  N   UNK N   1      29.228  18.011   7.427  0.00  0.00    -0.284 N 
HETATM   19  C   UNK N   1      27.944  18.085   7.802  0.00  0.00     0.201 A 
HETATM   20  N   UNK N   1      27.872  18.341   9.124  0.00  0.00    -0.346 N 
HETATM   21  C   UNK N   1      29.162  18.430   9.522  0.00  0.00     0.198 A 
ATOM     22  HN  UNK N   1      27.033  18.444   9.696  1.00  0.00     0.167 HD
HETATM   23  N   UNK N   1      29.990  18.234   8.479  0.00  0.00    -0.293 N 
ATOM     24  HN  UNK N   1      31.011  18.254   8.499  1.00  0.00     0.188 HD
ENDBRANCH  17  18
ENDBRANCH   1  17
BRANCH   1  25
HETATM   25  C   UNK N   1      30.239  15.767   4.679  0.00  0.00     0.018 A 
HETATM   26  C   UNK N   1      29.418  16.356   3.695  0.00  0.00     0.016 A 
HETATM   27  C   UNK N   1      28.972  15.632   2.590  0.00  0.00     0.043 A 
HETATM   28  C   UNK N   1      29.340  14.298   2.437  0.00  0.00     0.119 A 
HETATM   29  C   UNK N   1      30.158  13.691   3.386  0.00  0.00     0.085 A 
HETATM   30  F   UNK N   1      28.901  13.592   1.367  0.00  0.00    -0.206 F 
HETATM   31  C   UNK N   1      30.615  14.404   4.500  0.00  0.00     0.128 A 
HETATM   32  F   UNK N   1      31.398  13.745   5.387  0.00  0.00    -0.205 F 
ENDBRANCH   1  25
BRANCH   1  33
HETATM   33  O   UNK N   1      30.696  15.843   7.012  0.00  0.00    -0.381 OA
HETATM   34  H   UNK N   1      30.374  15.379   7.801  0.00  0.00     0.211 HD
ENDBRANCH   1  33
TORSDOF 6
ENDMDL
MODEL 9
REMARK VINA RESULT:      -6.9     12.065     13.929
REMARK  6 active torsions:
REMARK  status: ('A' for Active; 'I' for Inactive)
REMARK    1  A    between atoms: C_2  and  C_3 
REMARK    2  A    between atoms: C_2  and  N_21 
REMARK    3  A    between atoms: C_3  and  C_4 
REMARK    4  A    between atoms: C_3  and  C_12 
REMARK    5  A    between atoms: C_3  and  O_20 
REMARK    6  A    between atoms: C_4  and  N_5 
ROOT
HETATM    1  C   UNK N   1      22.438  13.448   7.840  0.00  0.00     0.126 C 
ENDROOT
BRANCH   1   2
HETATM    2  C   UNK N   1      22.688  12.351   6.741  0.00  0.00     0.131 C 
HETATM    3  C   UNK N   1      22.782  10.915   7.274  0.00  0.00     0.036 C 
BRANCH   2   4
HETATM    4  N   UNK N   1      23.837  12.666   5.847  0.00  0.00    -0.302 N 
HETATM    5  C   UNK N   1      25.025  12.009   6.039  0.00  0.00     0.187 A 
HETATM    6  N   UNK N   1      26.107  12.258   5.258  0.00  0.00    -0.351 N 
HETATM    7  C   UNK N   1      26.057  13.178   4.268  0.00  0.00     0.050 A 
ATOM      8  HN  UNK N   1      26.972  11.742   5.420  1.00  0.00     0.166 HD
HETATM    9  C   UNK N   1      27.189  13.430   3.488  0.00  0.00     0.054 A 
HETATM   10  C   UNK N   1      24.864  13.879   4.026  0.00  0.00     0.059 A 
HETATM   11  C   UNK N   1      27.139  14.389   2.472  0.00  0.00     0.036 A 
HETATM   12  C   UNK N   1      25.956  15.093   2.231  0.00  0.00     0.025 A 
HETATM   13 Cl   UNK N   1      28.559  14.706   1.499  0.00  0.00    -0.084 Cl
HETATM   14  C   UNK N   1      24.818  14.837   3.002  0.00  0.00     0.021 A 
HETATM   15  C   UNK N   1      23.743  13.596   4.821  0.00  0.00     0.261 A 
HETATM   16  O   UNK N   1      22.689  14.168   4.595  0.00  0.00    -0.267 OA
ENDBRANCH   2   4
ENDBRANCH   1   2
BRANCH   1  17
HETATM   17  C   UNK N   1      20.998  13.955   7.641  0.00  0.00     0.195 C 
BRANCH  17  18
HETATM   18  N   UNK N   1      20.852  15.403   7.579  0.00  0.00    -0.284 N 
HETATM   19  C   UNK N   1      20.267  16.181   8.499  0.00  0.00     0.201 A 
HETATM   20  N   UNK N   1      20.237  17.457   8.062  0.00  0.00    -0.346 N 
HETATM   21  C   UNK N   1      20.816  17.408   6.841  0.00  0.00     0.198 A 
ATOM     22  HN  UNK N   1      19.864  18.274   8.545  1.00  0.00     0.167 HD
HETATM   23  N   UNK N   1      21.185  16.148   6.544  0.00  0.00    -0.293 N 
ATOM     24  HN  UNK N   1      21.636  15.832   5.685  1.00  0.00     0.188 HD
ENDBRANCH  17  18
ENDBRANCH   1  17
BRANCH   1  25
HETATM   25  C   UNK N   1      22.643  12.916   9.277  0.00  0.00     0.018 A 
HETATM   26  C   UNK N   1      21.494  12.681  10.061  0.00  0.00     0.016 A 
HETATM   27  C   UNK N   1      21.588  12.199  11.366  0.00  0.00     0.043 A 
HETATM   28  C   UNK N   1      22.837  11.934  11.922  0.00  0.00     0.119 A 
HETATM   29  C   UNK N   1      23.991  12.146  11.170  0.00  0.00     0.085 A 
HETATM   30  F   UNK N   1      22.930  11.473  13.192  0.00  0.00    -0.206 F 
HETATM   31  C   UNK N   1      23.912  12.627   9.858  0.00  0.00     0.128 A 
HETATM   32  F   UNK N   1      25.075  12.819   9.192  0.00  0.00    -0.205 F 
ENDBRANCH   1  25
BRANCH   1  33
HETATM   33  O   UNK N   1      23.346  14.497   7.645  0.00  0.00    -0.381 OA
HETATM   34  H   UNK N   1      23.889  15.277   7.838  0.00  0.00     0.211 HD
ENDBRANCH   1  33
TORSDOF 6
ENDMDL
