MODEL 1
REMARK VINA RESULT:      -8.3      0.000      0.000
REMARK  8 active torsions:
REMARK  status: ('A' for Active; 'I' for Inactive)
REMARK    1  A    between atoms: C_2  and  C_4 
REMARK    2  A    between atoms: C_5  and  C_4 
REMARK    3  A    between atoms: C_9  and  C_35 
REMARK    4  A    between atoms: C_13  and  C_31 
REMARK    5  A    between atoms: C_24  and  C_28 
REMARK    6  A    between atoms: C_31  and  C_32 
REMARK    7  A    between atoms: C_32  and  O_34 
REMARK    8  A    between atoms: C_35  and  C_36 
ROOT
HETATM    1  C   UNK N   1      28.396  24.404  -4.275  0.00  0.00     0.177 C 
HETATM    2  C   UNK N   1      26.894  24.196  -4.268  0.00  0.00     0.241 C 
HETATM    3  O   UNK N   1      26.331  23.940  -3.214  0.00  0.00    -0.271 OA
HETATM    4  N   UNK N   1      26.153  24.266  -5.396  0.00  0.00    -0.346 N 
HETATM    5  C   UNK N   1      26.698  24.588  -6.691  0.00  0.00     0.181 C 
HETATM    6  C   UNK N   1      26.585  23.403  -7.602  0.00  0.00     0.241 C 
HETATM    7  O   UNK N   1      26.199  22.324  -7.165  0.00  0.00    -0.271 OA
HETATM    8  N   UNK N   1      26.969  23.516  -8.890  0.00  0.00    -0.345 N 
HETATM    9  C   UNK N   1      27.126  22.339  -9.689  0.00  0.00     0.186 C 
HETATM   10  C   UNK N   1      28.584  22.091  -9.781  0.00  0.00     0.243 C 
HETATM   11  O   UNK N   1      29.296  22.840 -10.445  0.00  0.00    -0.271 OA
HETATM   12  N   UNK N   1      29.139  21.145  -8.979  0.00  0.00    -0.337 N 
HETATM   13  C   UNK N   1      28.338  20.214  -8.224  0.00  0.00     0.127 C 
HETATM   14  C   UNK N   1      29.348  19.345  -7.493  0.00  0.00     0.022 C 
HETATM   15  C   UNK N   1      30.700  19.661  -8.136  0.00  0.00     0.037 C 
HETATM   16  C   UNK N   1      30.541  21.050  -8.728  0.00  0.00     0.179 C 
HETATM   17  C   UNK N   1      30.926  22.068  -7.668  0.00  0.00     0.241 C 
HETATM   18  O   UNK N   1      31.752  22.928  -7.933  0.00  0.00    -0.271 OA
HETATM   19  N   UNK N   1      30.385  21.986  -6.412  0.00  0.00    -0.346 N 
HETATM   20  C   UNK N   1      30.780  22.841  -5.307  0.00  0.00     0.180 C 
HETATM   21  C   UNK N   1      29.987  22.496  -4.050  0.00  0.00     0.241 C 
HETATM   22  O   UNK N   1      30.271  21.486  -3.425  0.00  0.00    -0.271 OA
HETATM   23  N   UNK N   1      28.995  23.290  -3.572  0.00  0.00    -0.346 N 
HETATM   24  H   UNK N   1      25.187  24.086  -5.330  0.00  0.00     0.163 HD
HETATM   25  H   UNK N   1      27.140  24.405  -9.280  0.00  0.00     0.163 HD
HETATM   26  H   UNK N   1      29.689  21.309  -6.251  0.00  0.00     0.163 HD
HETATM   27  H   UNK N   1      28.653  23.091  -2.670  0.00  0.00     0.163 HD
ENDROOT
BRANCH   5  28
HETATM   28  C   UNK N   1      25.994  25.819  -7.258  0.00  0.00     0.075 C 
BRANCH  28  29
HETATM   29  C   UNK N   1      26.789  27.061  -7.020  0.00  0.00    -0.028 A 
HETATM   30  C   UNK N   1      27.724  27.625  -7.880  0.00  0.00     0.096 A 
HETATM   31  N   UNK N   1      28.207  28.770  -7.333  0.00  0.00    -0.365 N 
HETATM   32  C   UNK N   1      27.576  28.911  -6.153  0.00  0.00     0.042 A 
HETATM   33  H   UNK N   1      28.880  29.373  -7.721  0.00  0.00     0.165 HD
HETATM   34  C   UNK N   1      26.706  27.883  -5.933  0.00  0.00    -0.002 A 
HETATM   35  C   UNK N   1      27.734  29.946  -5.237  0.00  0.00     0.030 A 
HETATM   36  C   UNK N   1      25.923  27.807  -4.784  0.00  0.00     0.014 A 
HETATM   37  C   UNK N   1      26.060  28.836  -3.835  0.00  0.00     0.001 A 
HETATM   38  C   UNK N   1      26.962  29.901  -4.060  0.00  0.00     0.002 A 
ENDBRANCH  28  29
ENDBRANCH   5  28
BRANCH   1  39
HETATM   39  C   UNK N   1      28.810  25.745  -3.642  0.00  0.00     0.038 C 
BRANCH  39  40
HETATM   40  C   UNK N   1      30.154  26.314  -4.094  0.00  0.00    -0.020 C 
HETATM   41  C   UNK N   1      30.202  26.335  -5.605  0.00  0.00     0.009 C 
HETATM   42  C   UNK N   1      30.311  27.743  -3.600  0.00  0.00     0.009 C 
ENDBRANCH  39  40
ENDBRANCH   1  39
BRANCH   9  43
HETATM   43  C   UNK N   1      26.292  22.342 -10.954  0.00  0.00     0.144 C 
BRANCH  43  44
HETATM   44  C   UNK N   1      26.086  23.772 -11.346  0.00  0.00     0.141 C 
HETATM   45  O   UNK N   1      24.999  24.301 -11.190  0.00  0.00    -0.650 OA
BRANCH  44  46
HETATM   46  O   UNK N   1      27.095  24.465 -11.910  0.00  0.00    -0.776 OA
HETATM   47  H   UNK N   1      27.947  24.788 -11.691  0.00  0.00     0.167 HD
ENDBRANCH  44  46
ENDBRANCH  43  44
ENDBRANCH   9  43
BRANCH  20  48
HETATM   48  C   UNK N   1      32.305  22.694  -5.060  0.00  0.00     0.009 C 
HETATM   49  C   UNK N   1      33.015  24.026  -4.895  0.00  0.00     0.012 C 
HETATM   50  C   UNK N   1      32.634  21.785  -3.878  0.00  0.00     0.012 C 
ENDBRANCH  20  48
TORSDOF 8
ENDMDL
MODEL 2
REMARK VINA RESULT:      -7.6     12.395     14.930
REMARK  8 active torsions:
REMARK  status: ('A' for Active; 'I' for Inactive)
REMARK    1  A    between atoms: C_2  and  C_4 
REMARK    2  A    between atoms: C_5  and  C_4 
REMARK    3  A    between atoms: C_9  and  C_35 
REMARK    4  A    between atoms: C_13  and  C_31 
REMARK    5  A    between atoms: C_24  and  C_28 
REMARK    6  A    between atoms: C_31  and  C_32 
REMARK    7  A    between atoms: C_32  and  O_34 
REMARK    8  A    between atoms: C_35  and  C_36 
ROOT
HETATM    1  C   UNK N   1      25.327  14.224   4.867  0.00  0.00     0.177 C 
HETATM    2  C   UNK N   1      24.731  14.794   6.139  0.00  0.00     0.241 C 
HETATM    3  O   UNK N   1      24.923  14.218   7.200  0.00  0.00    -0.271 OA
HETATM    4  N   UNK N   1      23.975  15.914   6.141  0.00  0.00    -0.346 N 
HETATM    5  C   UNK N   1      23.703  16.696   4.961  0.00  0.00     0.181 C 
HETATM    6  C   UNK N   1      22.243  16.628   4.629  0.00  0.00     0.241 C 
HETATM    7  O   UNK N   1      21.503  15.876   5.253  0.00  0.00    -0.271 OA
HETATM    8  N   UNK N   1      21.761  17.355   3.599  0.00  0.00    -0.345 N 
HETATM    9  C   UNK N   1      20.445  17.094   3.102  0.00  0.00     0.186 C 
HETATM   10  C   UNK N   1      20.620  16.326   1.847  0.00  0.00     0.243 C 
HETATM   11  O   UNK N   1      21.070  16.876   0.846  0.00  0.00    -0.271 OA
HETATM   12  N   UNK N   1      20.450  14.978   1.876  0.00  0.00    -0.337 N 
HETATM   13  C   UNK N   1      19.877  14.301   3.012  0.00  0.00     0.127 C 
HETATM   14  C   UNK N   1      19.863  12.834   2.617  0.00  0.00     0.022 C 
HETATM   15  C   UNK N   1      20.165  12.812   1.116  0.00  0.00     0.037 C 
HETATM   16  C   UNK N   1      20.913  14.105   0.846  0.00  0.00     0.179 C 
HETATM   17  C   UNK N   1      22.397  13.849   1.040  0.00  0.00     0.241 C 
HETATM   18  O   UNK N   1      23.181  14.153   0.154  0.00  0.00    -0.271 OA
HETATM   19  N   UNK N   1      22.842  13.235   2.181  0.00  0.00    -0.346 N 
HETATM   20  C   UNK N   1      24.223  12.846   2.403  0.00  0.00     0.180 C 
HETATM   21  C   UNK N   1      24.385  12.191   3.771  0.00  0.00     0.241 C 
HETATM   22  O   UNK N   1      23.993  11.046   3.933  0.00  0.00    -0.271 OA
HETATM   23  N   UNK N   1      24.985  12.820   4.815  0.00  0.00    -0.346 N 
HETATM   24  H   UNK N   1      23.588  16.213   6.995  0.00  0.00     0.163 HD
HETATM   25  H   UNK N   1      22.312  18.062   3.192  0.00  0.00     0.163 HD
HETATM   26  H   UNK N   1      22.186  13.048   2.892  0.00  0.00     0.163 HD
HETATM   27  H   UNK N   1      25.206  12.273   5.604  0.00  0.00     0.163 HD
ENDROOT
BRANCH   5  28
HETATM   28  C   UNK N   1      24.181  18.132   5.168  0.00  0.00     0.075 C 
BRANCH  28  29
HETATM   29  C   UNK N   1      25.564  18.329   4.640  0.00  0.00    -0.028 A 
HETATM   30  C   UNK N   1      25.914  18.909   3.426  0.00  0.00     0.096 A 
HETATM   31  N   UNK N   1      27.266  18.947   3.318  0.00  0.00    -0.365 N 
HETATM   32  C   UNK N   1      27.744  18.400   4.450  0.00  0.00     0.042 A 
HETATM   33  H   UNK N   1      27.790  19.302   2.565  0.00  0.00     0.165 HD
HETATM   34  C   UNK N   1      26.729  18.011   5.276  0.00  0.00    -0.002 A 
HETATM   35  C   UNK N   1      29.080  18.230   4.801  0.00  0.00     0.030 A 
HETATM   36  C   UNK N   1      26.966  17.426   6.517  0.00  0.00     0.014 A 
HETATM   37  C   UNK N   1      28.305  17.238   6.902  0.00  0.00     0.001 A 
HETATM   38  C   UNK N   1      29.358  17.638   6.048  0.00  0.00     0.002 A 
ENDBRANCH  28  29
ENDBRANCH   5  28
BRANCH   1  39
HETATM   39  C   UNK N   1      26.852  14.426   4.786  0.00  0.00     0.038 C 
BRANCH  39  40
HETATM   40  C   UNK N   1      27.455  14.430   3.382  0.00  0.00    -0.020 C 
HETATM   41  C   UNK N   1      26.701  15.418   2.521  0.00  0.00     0.009 C 
HETATM   42  C   UNK N   1      28.909  14.870   3.437  0.00  0.00     0.009 C 
ENDBRANCH  39  40
ENDBRANCH   1  39
BRANCH   9  43
HETATM   43  C   UNK N   1      19.535  18.306   3.111  0.00  0.00     0.144 C 
BRANCH  43  44
HETATM   44  C   UNK N   1      20.410  19.517   3.019  0.00  0.00     0.141 C 
HETATM   45  O   UNK N   1      20.559  20.242   3.988  0.00  0.00    -0.650 OA
BRANCH  44  46
HETATM   46  O   UNK N   1      21.004  19.829   1.850  0.00  0.00    -0.776 OA
HETATM   47  H   UNK N   1      21.625  20.442   1.508  0.00  0.00     0.167 HD
ENDBRANCH  44  46
ENDBRANCH  43  44
ENDBRANCH   9  43
BRANCH  20  48
HETATM   48  C   UNK N   1      24.677  11.888   1.270  0.00  0.00     0.009 C 
HETATM   49  C   UNK N   1      26.123  11.445   1.405  0.00  0.00     0.012 C 
HETATM   50  C   UNK N   1      23.774  10.664   1.125  0.00  0.00     0.012 C 
ENDBRANCH  20  48
TORSDOF 8
ENDMDL
MODEL 3
REMARK VINA RESULT:      -7.5     13.730     17.772
REMARK  8 active torsions:
REMARK  status: ('A' for Active; 'I' for Inactive)
REMARK    1  A    between atoms: C_2  and  C_4 
REMARK    2  A    between atoms: C_5  and  C_4 
REMARK    3  A    between atoms: C_9  and  C_35 
REMARK    4  A    between atoms: C_13  and  C_31 
REMARK    5  A    between atoms: C_24  and  C_28 
REMARK    6  A    between atoms: C_31  and  C_32 
REMARK    7  A    between atoms: C_32  and  O_34 
REMARK    8  A    between atoms: C_35  and  C_36 
ROOT
HETATM    1  C   UNK N   1      32.347  14.676   3.605  0.00  0.00     0.177 C 
HETATM    2  C   UNK N   1      33.290  15.856   3.472  0.00  0.00     0.241 C 
HETATM    3  O   UNK N   1      33.631  16.226   2.358  0.00  0.00    -0.271 OA
HETATM    4  N   UNK N   1      33.787  16.506   4.548  0.00  0.00    -0.346 N 
HETATM    5  C   UNK N   1      33.438  16.181   5.908  0.00  0.00     0.181 C 
HETATM    6  C   UNK N   1      34.639  15.649   6.631  0.00  0.00     0.241 C 
HETATM    7  O   UNK N   1      35.680  15.432   6.020  0.00  0.00    -0.271 OA
HETATM    8  N   UNK N   1      34.548  15.355   7.944  0.00  0.00    -0.345 N 
HETATM    9  C   UNK N   1      35.587  14.599   8.574  0.00  0.00     0.186 C 
HETATM   10  C   UNK N   1      35.065  13.220   8.723  0.00  0.00     0.243 C 
HETATM   11  O   UNK N   1      34.172  12.984   9.533  0.00  0.00    -0.271 OA
HETATM   12  N   UNK N   1      35.456  12.272   7.832  0.00  0.00    -0.337 N 
HETATM   13  C   UNK N   1      36.534  12.493   6.901  0.00  0.00     0.127 C 
HETATM   14  C   UNK N   1      36.637  11.193   6.120  0.00  0.00     0.022 C 
HETATM   15  C   UNK N   1      35.779  10.185   6.888  0.00  0.00     0.037 C 
HETATM   16  C   UNK N   1      34.779  11.027   7.661  0.00  0.00     0.179 C 
HETATM   17  C   UNK N   1      33.556  11.241   6.785  0.00  0.00     0.241 C 
HETATM   18  O   UNK N   1      32.449  10.972   7.223  0.00  0.00    -0.271 OA
HETATM   19  N   UNK N   1      33.706  11.686   5.499  0.00  0.00    -0.346 N 
HETATM   20  C   UNK N   1      32.609  11.809   4.555  0.00  0.00     0.180 C 
HETATM   21  C   UNK N   1      33.110  12.333   3.213  0.00  0.00     0.241 C 
HETATM   22  O   UNK N   1      33.721  11.581   2.470  0.00  0.00    -0.271 OA
HETATM   23  N   UNK N   1      32.873  13.602   2.790  0.00  0.00    -0.346 N 
HETATM   24  H   UNK N   1      34.422  17.242   4.394  0.00  0.00     0.163 HD
HETATM   25  H   UNK N   1      33.771  15.659   8.467  0.00  0.00     0.163 HD
HETATM   26  H   UNK N   1      34.609  11.937   5.197  0.00  0.00     0.163 HD
HETATM   27  H   UNK N   1      33.075  13.809   1.849  0.00  0.00     0.163 HD
ENDROOT
BRANCH   5  28
HETATM   28  C   UNK N   1      32.846  17.407   6.599  0.00  0.00     0.075 C 
BRANCH  28  29
HETATM   29  C   UNK N   1      31.441  17.162   7.039  0.00  0.00    -0.028 A 
HETATM   30  C   UNK N   1      31.025  16.754   8.302  0.00  0.00     0.096 A 
HETATM   31  N   UNK N   1      29.671  16.677   8.328  0.00  0.00    -0.365 N 
HETATM   32  C   UNK N   1      29.255  17.035   7.100  0.00  0.00     0.042 A 
HETATM   33  H   UNK N   1      29.107  16.414   9.090  0.00  0.00     0.165 HD
HETATM   34  C   UNK N   1      30.312  17.335   6.290  0.00  0.00    -0.002 A 
HETATM   35  C   UNK N   1      27.941  17.119   6.650  0.00  0.00     0.030 A 
HETATM   36  C   UNK N   1      30.143  17.745   4.970  0.00  0.00     0.014 A 
HETATM   37  C   UNK N   1      28.827  17.839   4.483  0.00  0.00     0.001 A 
HETATM   38  C   UNK N   1      27.731  17.527   5.319  0.00  0.00     0.002 A 
ENDBRANCH  28  29
ENDBRANCH   5  28
BRANCH   1  39
HETATM   39  C   UNK N   1      30.904  15.024   3.199  0.00  0.00     0.038 C 
BRANCH  39  40
HETATM   40  C   UNK N   1      29.834  14.002   3.580  0.00  0.00    -0.020 C 
HETATM   41  C   UNK N   1      29.677  13.985   5.084  0.00  0.00     0.009 C 
HETATM   42  C   UNK N   1      28.496  14.392   2.974  0.00  0.00     0.009 C 
ENDBRANCH  39  40
ENDBRANCH   1  39
BRANCH   9  43
HETATM   43  C   UNK N   1      36.209  15.291   9.770  0.00  0.00     0.144 C 
BRANCH  43  44
HETATM   44  C   UNK N   1      35.214  16.290  10.271  0.00  0.00     0.141 C 
HETATM   45  O   UNK N   1      35.441  17.485  10.177  0.00  0.00    -0.650 OA
BRANCH  44  46
HETATM   46  O   UNK N   1      34.079  15.868  10.863  0.00  0.00    -0.776 OA
HETATM   47  H   UNK N   1      33.161  16.057  10.860  0.00  0.00     0.167 HD
ENDBRANCH  44  46
ENDBRANCH  43  44
ENDBRANCH   9  43
BRANCH  20  48
HETATM   48  C   UNK N   1      31.915  10.431   4.389  0.00  0.00     0.009 C 
HETATM   49  C   UNK N   1      30.777  10.453   3.384  0.00  0.00     0.012 C 
HETATM   50  C   UNK N   1      32.890   9.308   4.040  0.00  0.00     0.012 C 
ENDBRANCH  20  48
TORSDOF 8
ENDMDL
MODEL 4
REMARK VINA RESULT:      -7.5     13.994     17.235
REMARK  8 active torsions:
REMARK  status: ('A' for Active; 'I' for Inactive)
REMARK    1  A    between atoms: C_2  and  C_4 
REMARK    2  A    between atoms: C_5  and  C_4 
REMARK    3  A    between atoms: C_9  and  C_35 
REMARK    4  A    between atoms: C_13  and  C_31 
REMARK    5  A    between atoms: C_24  and  C_28 
REMARK    6  A    between atoms: C_31  and  C_32 
REMARK    7  A    between atoms: C_32  and  O_34 
REMARK    8  A    between atoms: C_35  and  C_36 
ROOT
HETATM    1  C   UNK N   1      25.150  12.947   4.461  0.00  0.00     0.177 C 
HETATM    2  C   UNK N   1      25.788  14.096   3.705  0.00  0.00     0.241 C 
HETATM    3  O   UNK N   1      26.947  14.400   3.948  0.00  0.00    -0.271 OA
HETATM    4  N   UNK N   1      25.112  14.813   2.781  0.00  0.00    -0.346 N 
HETATM    5  C   UNK N   1      23.754  14.533   2.389  0.00  0.00     0.181 C 
HETATM    6  C   UNK N   1      22.859  15.661   2.807  0.00  0.00     0.241 C 
HETATM    7  O   UNK N   1      23.298  16.573   3.498  0.00  0.00    -0.271 OA
HETATM    8  N   UNK N   1      21.553  15.633   2.468  0.00  0.00    -0.345 N 
HETATM    9  C   UNK N   1      20.641  16.548   3.084  0.00  0.00     0.186 C 
HETATM   10  C   UNK N   1      19.896  15.769   4.101  0.00  0.00     0.243 C 
HETATM   11  O   UNK N   1      19.075  14.926   3.750  0.00  0.00    -0.271 OA
HETATM   12  N   UNK N   1      20.265  15.872   5.405  0.00  0.00    -0.337 N 
HETATM   13  C   UNK N   1      21.187  16.882   5.863  0.00  0.00     0.127 C 
HETATM   14  C   UNK N   1      21.303  16.642   7.359  0.00  0.00     0.022 C 
HETATM   15  C   UNK N   1      20.173  15.669   7.707  0.00  0.00     0.037 C 
HETATM   16  C   UNK N   1      19.868  14.940   6.410  0.00  0.00     0.179 C 
HETATM   17  C   UNK N   1      20.758  13.712   6.331  0.00  0.00     0.241 C 
HETATM   18  O   UNK N   1      20.256  12.619   6.124  0.00  0.00    -0.271 OA
HETATM   19  N   UNK N   1      22.106  13.830   6.541  0.00  0.00    -0.346 N 
HETATM   20  C   UNK N   1      23.016  12.699   6.599  0.00  0.00     0.180 C 
HETATM   21  C   UNK N   1      24.446  13.171   6.843  0.00  0.00     0.241 C 
HETATM   22  O   UNK N   1      24.768  13.542   7.961  0.00  0.00    -0.271 OA
HETATM   23  N   UNK N   1      25.393  13.161   5.870  0.00  0.00    -0.346 N 
HETATM   24  H   UNK N   1      25.573  15.569   2.351  0.00  0.00     0.163 HD
HETATM   25  H   UNK N   1      21.229  14.987   1.798  0.00  0.00     0.163 HD
HETATM   26  H   UNK N   1      22.480  14.734   6.659  0.00  0.00     0.163 HD
HETATM   27  H   UNK N   1      26.326  13.313   6.148  0.00  0.00     0.163 HD
ENDROOT
BRANCH   5  28
HETATM   28  C   UNK N   1      23.690  14.273   0.886  0.00  0.00     0.075 C 
BRANCH  28  29
HETATM   29  C   UNK N   1      23.475  12.826   0.590  0.00  0.00    -0.028 A 
HETATM   30  C   UNK N   1      24.459  11.868   0.370  0.00  0.00     0.096 A 
HETATM   31  N   UNK N   1      23.876  10.659   0.173  0.00  0.00    -0.365 N 
HETATM   32  C   UNK N   1      22.551  10.866   0.272  0.00  0.00     0.042 A 
HETATM   33  H   UNK N   1      24.330   9.804  -0.006  0.00  0.00     0.165 HD
HETATM   34  C   UNK N   1      22.275  12.178   0.525  0.00  0.00    -0.002 A 
HETATM   35  C   UNK N   1      21.542   9.915   0.154  0.00  0.00     0.030 A 
HETATM   36  C   UNK N   1      20.972  12.646   0.682  0.00  0.00     0.014 A 
HETATM   37  C   UNK N   1      19.928  11.711   0.567  0.00  0.00     0.001 A 
HETATM   38  C   UNK N   1      20.212  10.351   0.304  0.00  0.00     0.002 A 
ENDBRANCH  28  29
ENDBRANCH   5  28
BRANCH   1  39
HETATM   39  C   UNK N   1      25.683  11.574   4.009  0.00  0.00     0.038 C 
BRANCH  39  40
HETATM   40  C   UNK N   1      24.732  10.392   4.193  0.00  0.00    -0.020 C 
HETATM   41  C   UNK N   1      23.335  10.811   3.794  0.00  0.00     0.009 C 
HETATM   42  C   UNK N   1      25.150   9.239   3.296  0.00  0.00     0.009 C 
ENDBRANCH  39  40
ENDBRANCH   1  39
BRANCH   9  43
HETATM   43  C   UNK N   1      19.876  17.407   2.099  0.00  0.00     0.144 C 
BRANCH  43  44
HETATM   44  C   UNK N   1      19.829  16.661   0.803  0.00  0.00     0.141 C 
HETATM   45  O   UNK N   1      20.400  17.100  -0.181  0.00  0.00    -0.650 OA
BRANCH  44  46
HETATM   46  O   UNK N   1      19.120  15.518   0.711  0.00  0.00    -0.776 OA
HETATM   47  H   UNK N   1      19.126  14.647   1.056  0.00  0.00     0.167 HD
ENDBRANCH  44  46
ENDBRANCH  43  44
ENDBRANCH   9  43
BRANCH  20  48
HETATM   48  C   UNK N   1      22.554  11.724   7.714  0.00  0.00     0.009 C 
HETATM   49  C   UNK N   1      23.483  10.535   7.891  0.00  0.00     0.012 C 
HETATM   50  C   UNK N   1      22.338  12.413   9.060  0.00  0.00     0.012 C 
ENDBRANCH  20  48
TORSDOF 8
ENDMDL
MODEL 5
REMARK VINA RESULT:      -7.4     12.227     15.396
REMARK  8 active torsions:
REMARK  status: ('A' for Active; 'I' for Inactive)
REMARK    1  A    between atoms: C_2  and  C_4 
REMARK    2  A    between atoms: C_5  and  C_4 
REMARK    3  A    between atoms: C_9  and  C_35 
REMARK    4  A    between atoms: C_13  and  C_31 
REMARK    5  A    between atoms: C_24  and  C_28 
REMARK    6  A    between atoms: C_31  and  C_32 
REMARK    7  A    between atoms: C_32  and  O_34 
REMARK    8  A    between atoms: C_35  and  C_36 
ROOT
HETATM    1  C   UNK N   1      25.336  14.548   5.083  0.00  0.00     0.177 C 
HETATM    2  C   UNK N   1      25.622  15.733   5.984  0.00  0.00     0.241 C 
HETATM    3  O   UNK N   1      26.153  15.545   7.068  0.00  0.00    -0.271 OA
HETATM    4  N   UNK N   1      25.291  16.997   5.637  0.00  0.00    -0.346 N 
HETATM    5  C   UNK N   1      24.688  17.347   4.376  0.00  0.00     0.181 C 
HETATM    6  C   UNK N   1      23.297  17.858   4.599  0.00  0.00     0.241 C 
HETATM    7  O   UNK N   1      22.794  17.810   5.717  0.00  0.00    -0.271 OA
HETATM    8  N   UNK N   1      22.580  18.314   3.551  0.00  0.00    -0.345 N 
HETATM    9  C   UNK N   1      21.175  18.543   3.699  0.00  0.00     0.186 C 
HETATM   10  C   UNK N   1      20.497  17.399   3.046  0.00  0.00     0.243 C 
HETATM   11  O   UNK N   1      20.520  17.287   1.823  0.00  0.00    -0.271 OA
HETATM   12  N   UNK N   1      20.015  16.393   3.822  0.00  0.00    -0.337 N 
HETATM   13  C   UNK N   1      19.924  16.508   5.256  0.00  0.00     0.127 C 
HETATM   14  C   UNK N   1      19.331  15.184   5.708  0.00  0.00     0.022 C 
HETATM   15  C   UNK N   1      18.833  14.501   4.432  0.00  0.00     0.037 C 
HETATM   16  C   UNK N   1      19.659  15.109   3.312  0.00  0.00     0.179 C 
HETATM   17  C   UNK N   1      20.917  14.275   3.140  0.00  0.00     0.241 C 
HETATM   18  O   UNK N   1      21.208  13.847   2.034  0.00  0.00    -0.271 OA
HETATM   19  N   UNK N   1      21.688  13.967   4.230  0.00  0.00    -0.346 N 
HETATM   20  C   UNK N   1      22.839  13.084   4.180  0.00  0.00     0.180 C 
HETATM   21  C   UNK N   1      23.477  12.953   5.559  0.00  0.00     0.241 C 
HETATM   22  O   UNK N   1      22.931  12.262   6.405  0.00  0.00    -0.271 OA
HETATM   23  N   UNK N   1      24.656  13.548   5.877  0.00  0.00    -0.346 N 
HETATM   24  H   UNK N   1      25.472  17.718   6.282  0.00  0.00     0.163 HD
HETATM   25  H   UNK N   1      23.021  18.490   2.688  0.00  0.00     0.163 HD
HETATM   26  H   UNK N   1      21.447  14.369   5.096  0.00  0.00     0.163 HD
HETATM   27  H   UNK N   1      25.085  13.276   6.722  0.00  0.00     0.163 HD
ENDROOT
BRANCH   5  28
HETATM   28  C   UNK N   1      25.565  18.363   3.646  0.00  0.00     0.075 C 
BRANCH  28  29
HETATM   29  C   UNK N   1      26.899  18.502   4.300  0.00  0.00    -0.028 A 
HETATM   30  C   UNK N   1      27.230  19.368   5.337  0.00  0.00     0.096 A 
HETATM   31  N   UNK N   1      28.526  19.176   5.689  0.00  0.00    -0.365 N 
HETATM   32  C   UNK N   1      28.989  18.205   4.882  0.00  0.00     0.042 A 
HETATM   33  H   UNK N   1      29.026  19.651   6.391  0.00  0.00     0.165 HD
HETATM   34  C   UNK N   1      28.021  17.774   4.022  0.00  0.00    -0.002 A 
HETATM   35  C   UNK N   1      30.269  17.658   4.876  0.00  0.00     0.030 A 
HETATM   36  C   UNK N   1      28.250  16.764   3.091  0.00  0.00     0.014 A 
HETATM   37  C   UNK N   1      29.533  16.191   3.058  0.00  0.00     0.001 A 
HETATM   38  C   UNK N   1      30.539  16.636   3.946  0.00  0.00     0.002 A 
ENDBRANCH  28  29
ENDBRANCH   5  28
BRANCH   1  39
HETATM   39  C   UNK N   1      26.612  13.972   4.441  0.00  0.00     0.038 C 
BRANCH  39  40
HETATM   40  C   UNK N   1      26.435  13.306   3.077  0.00  0.00    -0.020 C 
HETATM   41  C   UNK N   1      25.726  14.264   2.145  0.00  0.00     0.009 C 
HETATM   42  C   UNK N   1      27.792  12.983   2.472  0.00  0.00     0.009 C 
ENDBRANCH  39  40
ENDBRANCH   1  39
BRANCH   9  43
HETATM   43  C   UNK N   1      20.745  19.956   3.358  0.00  0.00     0.144 C 
BRANCH  43  44
HETATM   44  C   UNK N   1      21.777  20.521   2.433  0.00  0.00     0.141 C 
HETATM   45  O   UNK N   1      21.674  20.365   1.228  0.00  0.00    -0.650 OA
BRANCH  44  46
HETATM   46  O   UNK N   1      22.845  21.172   2.936  0.00  0.00    -0.776 OA
HETATM   47  H   UNK N   1      23.735  21.361   2.710  0.00  0.00     0.167 HD
ENDBRANCH  44  46
ENDBRANCH  43  44
ENDBRANCH   9  43
BRANCH  20  48
HETATM   48  C   UNK N   1      22.402  11.698   3.636  0.00  0.00     0.009 C 
HETATM   49  C   UNK N   1      23.553  10.715   3.510  0.00  0.00     0.012 C 
HETATM   50  C   UNK N   1      21.272  11.067   4.446  0.00  0.00     0.012 C 
ENDBRANCH  20  48
TORSDOF 8
ENDMDL
MODEL 6
REMARK VINA RESULT:      -7.4     13.962     17.346
REMARK  8 active torsions:
REMARK  status: ('A' for Active; 'I' for Inactive)
REMARK    1  A    between atoms: C_2  and  C_4 
REMARK    2  A    between atoms: C_5  and  C_4 
REMARK    3  A    between atoms: C_9  and  C_35 
REMARK    4  A    between atoms: C_13  and  C_31 
REMARK    5  A    between atoms: C_24  and  C_28 
REMARK    6  A    between atoms: C_31  and  C_32 
REMARK    7  A    between atoms: C_32  and  O_34 
REMARK    8  A    between atoms: C_35  and  C_36 
ROOT
HETATM    1  C   UNK N   1      25.347  13.045   4.854  0.00  0.00     0.177 C 
HETATM    2  C   UNK N   1      26.018  14.188   4.118  0.00  0.00     0.241 C 
HETATM    3  O   UNK N   1      27.142  14.534   4.450  0.00  0.00    -0.271 OA
HETATM    4  N   UNK N   1      25.407  14.854   3.114  0.00  0.00    -0.346 N 
HETATM    5  C   UNK N   1      24.097  14.521   2.615  0.00  0.00     0.181 C 
HETATM    6  C   UNK N   1      23.138  15.634   2.913  0.00  0.00     0.241 C 
HETATM    7  O   UNK N   1      23.490  16.581   3.608  0.00  0.00    -0.271 OA
HETATM    8  N   UNK N   1      21.869  15.557   2.462  0.00  0.00    -0.345 N 
HETATM    9  C   UNK N   1      20.882  16.463   2.965  0.00  0.00     0.186 C 
HETATM   10  C   UNK N   1      20.071  15.695   3.938  0.00  0.00     0.243 C 
HETATM   11  O   UNK N   1      19.308  14.817   3.547  0.00  0.00    -0.271 OA
HETATM   12  N   UNK N   1      20.321  15.851   5.265  0.00  0.00    -0.337 N 
HETATM   13  C   UNK N   1      21.170  16.902   5.767  0.00  0.00     0.127 C 
HETATM   14  C   UNK N   1      21.160  16.714   7.275  0.00  0.00     0.022 C 
HETATM   15  C   UNK N   1      20.031  15.719   7.556  0.00  0.00     0.037 C 
HETATM   16  C   UNK N   1      19.861  14.941   6.264  0.00  0.00     0.179 C 
HETATM   17  C   UNK N   1      20.788  13.738   6.305  0.00  0.00     0.241 C 
HETATM   18  O   UNK N   1      20.336  12.624   6.093  0.00  0.00    -0.271 OA
HETATM   19  N   UNK N   1      22.108  13.903   6.628  0.00  0.00    -0.346 N 
HETATM   20  C   UNK N   1      23.039  12.802   6.805  0.00  0.00     0.180 C 
HETATM   21  C   UNK N   1      24.429  13.324   7.157  0.00  0.00     0.241 C 
HETATM   22  O   UNK N   1      24.641  13.740   8.285  0.00  0.00    -0.271 OA
HETATM   23  N   UNK N   1      25.459  13.312   6.272  0.00  0.00    -0.346 N 
HETATM   24  H   UNK N   1      25.884  15.610   2.700  0.00  0.00     0.163 HD
HETATM   25  H   UNK N   1      21.623  14.880   1.790  0.00  0.00     0.163 HD
HETATM   26  H   UNK N   1      22.446  14.820   6.747  0.00  0.00     0.163 HD
HETATM   27  H   UNK N   1      26.359  13.501   6.625  0.00  0.00     0.163 HD
ENDROOT
BRANCH   5  28
HETATM   28  C   UNK N   1      24.174  14.211   1.121  0.00  0.00     0.075 C 
BRANCH  28  29
HETATM   29  C   UNK N   1      23.863  12.778   0.844  0.00  0.00    -0.028 A 
HETATM   30  C   UNK N   1      22.624  12.249   0.497  0.00  0.00     0.096 A 
HETATM   31  N   UNK N   1      22.746  10.915   0.286  0.00  0.00    -0.365 N 
HETATM   32  C   UNK N   1      24.043  10.623   0.497  0.00  0.00     0.042 A 
HETATM   33  H   UNK N   1      22.032  10.287   0.031  0.00  0.00     0.165 HD
HETATM   34  C   UNK N   1      24.749  11.739   0.841  0.00  0.00    -0.002 A 
HETATM   35  C   UNK N   1      24.650   9.376   0.389  0.00  0.00     0.030 A 
HETATM   36  C   UNK N   1      26.117  11.701   1.100  0.00  0.00     0.014 A 
HETATM   37  C   UNK N   1      26.762  10.456   1.001  0.00  0.00     0.001 A 
HETATM   38  C   UNK N   1      26.032   9.298   0.647  0.00  0.00     0.002 A 
ENDBRANCH  28  29
ENDBRANCH   5  28
BRANCH   1  39
HETATM   39  C   UNK N   1      25.954  11.675   4.499  0.00  0.00     0.038 C 
BRANCH  39  40
HETATM   40  C   UNK N   1      25.100  10.454   4.837  0.00  0.00    -0.020 C 
HETATM   41  C   UNK N   1      23.791  10.540   4.084  0.00  0.00     0.009 C 
HETATM   42  C   UNK N   1      25.809   9.182   4.402  0.00  0.00     0.009 C 
ENDBRANCH  39  40
ENDBRANCH   1  39
BRANCH   9  43
HETATM   43  C   UNK N   1      20.184  17.267   1.887  0.00  0.00     0.144 C 
BRANCH  43  44
HETATM   44  C   UNK N   1      19.558  18.452   2.553  0.00  0.00     0.141 C 
HETATM   45  O   UNK N   1      20.230  19.190   3.255  0.00  0.00    -0.650 OA
BRANCH  44  46
HETATM   46  O   UNK N   1      18.238  18.683   2.410  0.00  0.00    -0.776 OA
HETATM   47  H   UNK N   1      17.637  19.402   2.401  0.00  0.00     0.167 HD
ENDBRANCH  44  46
ENDBRANCH  43  44
ENDBRANCH   9  43
BRANCH  20  48
HETATM   48  C   UNK N   1      22.508  11.849   7.908  0.00  0.00     0.009 C 
HETATM   49  C   UNK N   1      23.469  10.721   8.238  0.00  0.00     0.012 C 
HETATM   50  C   UNK N   1      22.112  12.580   9.190  0.00  0.00     0.012 C 
ENDBRANCH  20  48
TORSDOF 8
ENDMDL
MODEL 7
REMARK VINA RESULT:      -7.2     14.677     20.200
REMARK  8 active torsions:
REMARK  status: ('A' for Active; 'I' for Inactive)
REMARK    1  A    between atoms: C_2  and  C_4 
REMARK    2  A    between atoms: C_5  and  C_4 
REMARK    3  A    between atoms: C_9  and  C_35 
REMARK    4  A    between atoms: C_13  and  C_31 
REMARK    5  A    between atoms: C_24  and  C_28 
REMARK    6  A    between atoms: C_31  and  C_32 
REMARK    7  A    between atoms: C_32  and  O_34 
REMARK    8  A    between atoms: C_35  and  C_36 
ROOT
HETATM    1  C   UNK N   1      35.168  12.913   5.300  0.00  0.00     0.177 C 
HETATM    2  C   UNK N   1      35.199  11.744   6.264  0.00  0.00     0.241 C 
HETATM    3  O   UNK N   1      34.699  10.680   5.929  0.00  0.00    -0.271 OA
HETATM    4  N   UNK N   1      35.748  11.841   7.495  0.00  0.00    -0.346 N 
HETATM    5  C   UNK N   1      36.392  13.031   7.990  0.00  0.00     0.181 C 
HETATM    6  C   UNK N   1      35.605  13.600   9.132  0.00  0.00     0.241 C 
HETATM    7  O   UNK N   1      34.514  13.123   9.427  0.00  0.00    -0.271 OA
HETATM    8  N   UNK N   1      36.076  14.678   9.793  0.00  0.00    -0.345 N 
HETATM    9  C   UNK N   1      35.218  15.391  10.689  0.00  0.00     0.186 C 
HETATM   10  C   UNK N   1      34.796  16.617   9.973  0.00  0.00     0.243 C 
HETATM   11  O   UNK N   1      35.605  17.517   9.764  0.00  0.00    -0.271 OA
HETATM   12  N   UNK N   1      33.566  16.648   9.397  0.00  0.00    -0.337 N 
HETATM   13  C   UNK N   1      32.571  15.638   9.658  0.00  0.00     0.127 C 
HETATM   14  C   UNK N   1      31.368  16.064   8.834  0.00  0.00     0.022 C 
HETATM   15  C   UNK N   1      31.669  17.494   8.380  0.00  0.00     0.037 C 
HETATM   16  C   UNK N   1      33.182  17.608   8.413  0.00  0.00     0.179 C 
HETATM   17  C   UNK N   1      33.724  17.178   7.061  0.00  0.00     0.241 C 
HETATM   18  O   UNK N   1      34.487  17.915   6.456  0.00  0.00    -0.271 OA
HETATM   19  N   UNK N   1      33.316  15.994   6.506  0.00  0.00    -0.346 N 
HETATM   20  C   UNK N   1      33.689  15.557   5.172  0.00  0.00     0.180 C 
HETATM   21  C   UNK N   1      33.074  14.197   4.860  0.00  0.00     0.241 C 
HETATM   22  O   UNK N   1      31.883  14.128   4.595  0.00  0.00    -0.271 OA
HETATM   23  N   UNK N   1      33.807  13.054   4.828  0.00  0.00    -0.346 N 
HETATM   24  H   UNK N   1      35.706  11.055   8.086  0.00  0.00     0.163 HD
HETATM   25  H   UNK N   1      37.007  14.972   9.659  0.00  0.00     0.163 HD
HETATM   26  H   UNK N   1      32.738  15.405   7.043  0.00  0.00     0.163 HD
HETATM   27  H   UNK N   1      33.376  12.252   4.450  0.00  0.00     0.163 HD
ENDROOT
BRANCH   5  28
HETATM   28  C   UNK N   1      37.833  12.715   8.386  0.00  0.00     0.075 C 
BRANCH  28  29
HETATM   29  C   UNK N   1      38.803  13.237   7.378  0.00  0.00    -0.028 A 
HETATM   30  C   UNK N   1      38.551  14.195   6.402  0.00  0.00     0.096 A 
HETATM   31  N   UNK N   1      39.688  14.436   5.703  0.00  0.00    -0.365 N 
HETATM   32  C   UNK N   1      40.631  13.641   6.241  0.00  0.00     0.042 A 
HETATM   33  H   UNK N   1      39.802  15.065   4.954  0.00  0.00     0.165 HD
HETATM   34  C   UNK N   1      40.120  12.896   7.264  0.00  0.00    -0.002 A 
HETATM   35  C   UNK N   1      41.966  13.547   5.862  0.00  0.00     0.030 A 
HETATM   36  C   UNK N   1      40.901  12.001   7.992  0.00  0.00     0.014 A 
HETATM   37  C   UNK N   1      42.255  11.880   7.633  0.00  0.00     0.001 A 
HETATM   38  C   UNK N   1      42.786  12.649   6.572  0.00  0.00     0.002 A 
ENDBRANCH  28  29
ENDBRANCH   5  28
BRANCH   1  39
HETATM   39  C   UNK N   1      36.146  12.737   4.124  0.00  0.00     0.038 C 
BRANCH  39  40
HETATM   40  C   UNK N   1      35.514  12.602   2.739  0.00  0.00    -0.020 C 
HETATM   41  C   UNK N   1      36.286  13.453   1.755  0.00  0.00     0.009 C 
HETATM   42  C   UNK N   1      35.588  11.158   2.268  0.00  0.00     0.009 C 
ENDBRANCH  39  40
ENDBRANCH   1  39
BRANCH   9  43
HETATM   43  C   UNK N   1      35.764  15.504  12.098  0.00  0.00     0.144 C 
BRANCH  43  44
HETATM   44  C   UNK N   1      35.573  14.173  12.756  0.00  0.00     0.141 C 
HETATM   45  O   UNK N   1      36.395  13.759  13.557  0.00  0.00    -0.650 OA
BRANCH  44  46
HETATM   46  O   UNK N   1      34.511  13.410  12.432  0.00  0.00    -0.776 OA
HETATM   47  H   UNK N   1      33.579  13.407  12.532  0.00  0.00     0.167 HD
ENDBRANCH  44  46
ENDBRANCH  43  44
ENDBRANCH   9  43
BRANCH  20  48
HETATM   48  C   UNK N   1      33.239  16.622   4.137  0.00  0.00     0.009 C 
HETATM   49  C   UNK N   1      33.367  16.149   2.699  0.00  0.00     0.012 C 
HETATM   50  C   UNK N   1      31.823  17.137   4.386  0.00  0.00     0.012 C 
ENDBRANCH  20  48
TORSDOF 8
ENDMDL
MODEL 8
REMARK VINA RESULT:      -7.1     12.612     16.052
REMARK  8 active torsions:
REMARK  status: ('A' for Active; 'I' for Inactive)
REMARK    1  A    between atoms: C_2  and  C_4 
REMARK    2  A    between atoms: C_5  and  C_4 
REMARK    3  A    between atoms: C_9  and  C_35 
REMARK    4  A    between atoms: C_13  and  C_31 
REMARK    5  A    between atoms: C_24  and  C_28 
REMARK    6  A    between atoms: C_31  and  C_32 
REMARK    7  A    between atoms: C_32  and  O_34 
REMARK    8  A    between atoms: C_35  and  C_36 
ROOT
HETATM    1  C   UNK N   1      29.704  13.856   3.520  0.00  0.00     0.177 C 
HETATM    2  C   UNK N   1      29.009  15.140   3.112  0.00  0.00     0.241 C 
HETATM    3  O   UNK N   1      28.921  15.421   1.926  0.00  0.00    -0.271 OA
HETATM    4  N   UNK N   1      28.496  15.999   4.020  0.00  0.00    -0.346 N 
HETATM    5  C   UNK N   1      28.513  15.764   5.442  0.00  0.00     0.181 C 
HETATM    6  C   UNK N   1      29.393  16.774   6.116  0.00  0.00     0.241 C 
HETATM    7  O   UNK N   1      30.063  17.553   5.446  0.00  0.00    -0.271 OA
HETATM    8  N   UNK N   1      29.489  16.779   7.462  0.00  0.00    -0.345 N 
HETATM    9  C   UNK N   1      30.520  17.541   8.096  0.00  0.00     0.186 C 
HETATM   10  C   UNK N   1      31.561  16.570   8.508  0.00  0.00     0.243 C 
HETATM   11  O   UNK N   1      31.342  15.787   9.429  0.00  0.00    -0.271 OA
HETATM   12  N   UNK N   1      32.674  16.438   7.741  0.00  0.00    -0.337 N 
HETATM   13  C   UNK N   1      32.992  17.367   6.685  0.00  0.00     0.127 C 
HETATM   14  C   UNK N   1      34.302  16.857   6.109  0.00  0.00     0.022 C 
HETATM   15  C   UNK N   1      34.807  15.810   7.105  0.00  0.00     0.037 C 
HETATM   16  C   UNK N   1      33.565  15.328   7.833  0.00  0.00     0.179 C 
HETATM   17  C   UNK N   1      32.983  14.157   7.060  0.00  0.00     0.241 C 
HETATM   18  O   UNK N   1      32.750  13.109   7.641  0.00  0.00    -0.271 OA
HETATM   19  N   UNK N   1      32.771  14.266   5.711  0.00  0.00    -0.346 N 
HETATM   20  C   UNK N   1      32.328  13.166   4.873  0.00  0.00     0.180 C 
HETATM   21  C   UNK N   1      32.186  13.618   3.423  0.00  0.00     0.241 C 
HETATM   22  O   UNK N   1      33.191  13.782   2.749  0.00  0.00    -0.271 OA
HETATM   23  N   UNK N   1      30.977  13.811   2.834  0.00  0.00    -0.346 N 
HETATM   24  H   UNK N   1      28.088  16.833   3.692  0.00  0.00     0.163 HD
HETATM   25  H   UNK N   1      28.851  16.260   8.005  0.00  0.00     0.163 HD
HETATM   26  H   UNK N   1      32.927  15.140   5.286  0.00  0.00     0.163 HD
HETATM   27  H   UNK N   1      30.966  13.931   1.856  0.00  0.00     0.163 HD
ENDROOT
BRANCH   5  28
HETATM   28  C   UNK N   1      27.087  15.786   5.989  0.00  0.00     0.075 C 
BRANCH  28  29
HETATM   29  C   UNK N   1      26.150  16.460   5.043  0.00  0.00    -0.028 A 
HETATM   30  C   UNK N   1      25.205  15.843   4.229  0.00  0.00     0.096 A 
HETATM   31  N   UNK N   1      24.516  16.788   3.542  0.00  0.00    -0.365 N 
HETATM   32  C   UNK N   1      25.026  17.973   3.927  0.00  0.00     0.042 A 
HETATM   33  H   UNK N   1      23.791  16.639   2.893  0.00  0.00     0.165 HD
HETATM   34  C   UNK N   1      26.025  17.805   4.840  0.00  0.00    -0.002 A 
HETATM   35  C   UNK N   1      24.629  19.235   3.498  0.00  0.00     0.030 A 
HETATM   36  C   UNK N   1      26.706  18.883   5.402  0.00  0.00     0.014 A 
HETATM   37  C   UNK N   1      26.332  20.173   4.990  0.00  0.00     0.001 A 
HETATM   38  C   UNK N   1      25.298  20.350   4.042  0.00  0.00     0.002 A 
ENDBRANCH  28  29
ENDBRANCH   5  28
BRANCH   1  39
HETATM   39  C   UNK N   1      28.864  12.604   3.209  0.00  0.00     0.038 C 
BRANCH  39  40
HETATM   40  C   UNK N   1      27.348  12.773   3.304  0.00  0.00    -0.020 C 
HETATM   41  C   UNK N   1      26.689  11.977   2.200  0.00  0.00     0.009 C 
HETATM   42  C   UNK N   1      26.843  12.235   4.634  0.00  0.00     0.009 C 
ENDBRANCH  39  40
ENDBRANCH   1  39
BRANCH   9  43
HETATM   43  C   UNK N   1      30.005  18.550   9.102  0.00  0.00     0.144 C 
BRANCH  43  44
HETATM   44  C   UNK N   1      28.568  18.223   9.362  0.00  0.00     0.141 C 
HETATM   45  O   UNK N   1      28.270  17.265  10.055  0.00  0.00    -0.650 OA
BRANCH  44  46
HETATM   46  O   UNK N   1      27.597  18.967   8.795  0.00  0.00    -0.776 OA
HETATM   47  H   UNK N   1      27.032  19.683   9.009  0.00  0.00     0.167 HD
ENDBRANCH  44  46
ENDBRANCH  43  44
ENDBRANCH   9  43
BRANCH  20  48
HETATM   48  C   UNK N   1      33.333  11.990   4.992  0.00  0.00     0.009 C 
HETATM   49  C   UNK N   1      32.951  10.788   4.146  0.00  0.00     0.012 C 
HETATM   50  C   UNK N   1      34.773  12.400   4.686  0.00  0.00     0.012 C 
ENDBRANCH  20  48
TORSDOF 8
ENDMDL
MODEL 9
REMARK VINA RESULT:      -7.0     14.330     19.706
REMARK  8 active torsions:
REMARK  status: ('A' for Active; 'I' for Inactive)
REMARK    1  A    between atoms: C_2  and  C_4 
REMARK    2  A    between atoms: C_5  and  C_4 
REMARK    3  A    between atoms: C_9  and  C_35 
REMARK    4  A    between atoms: C_13  and  C_31 
REMARK    5  A    between atoms: C_24  and  C_28 
REMARK    6  A    between atoms: C_31  and  C_32 
REMARK    7  A    between atoms: C_32  and  O_34 
REMARK    8  A    between atoms: C_35  and  C_36 
ROOT
HETATM    1  C   UNK N   1      33.117  12.560   4.910  0.00  0.00     0.177 C 
HETATM    2  C   UNK N   1      32.644  11.432   5.805  0.00  0.00     0.241 C 
HETATM    3  O   UNK N   1      31.726  10.717   5.432  0.00  0.00    -0.271 OA
HETATM    4  N   UNK N   1      33.193  11.197   7.018  0.00  0.00    -0.346 N 
HETATM    5  C   UNK N   1      34.297  11.952   7.555  0.00  0.00     0.181 C 
HETATM    6  C   UNK N   1      33.849  12.729   8.756  0.00  0.00     0.241 C 
HETATM    7  O   UNK N   1      32.662  12.756   9.065  0.00  0.00    -0.271 OA
HETATM    8  N   UNK N   1      34.750  13.447   9.457  0.00  0.00    -0.345 N 
HETATM    9  C   UNK N   1      34.299  14.400  10.425  0.00  0.00     0.186 C 
HETATM   10  C   UNK N   1      34.447  15.733   9.795  0.00  0.00     0.243 C 
HETATM   11  O   UNK N   1      35.566  16.204   9.606  0.00  0.00    -0.271 OA
HETATM   12  N   UNK N   1      33.349  16.335   9.270  0.00  0.00    -0.337 N 
HETATM   13  C   UNK N   1      32.015  15.843   9.511  0.00  0.00     0.127 C 
HETATM   14  C   UNK N   1      31.110  16.805   8.760  0.00  0.00     0.022 C 
HETATM   15  C   UNK N   1      32.001  17.989   8.375  0.00  0.00     0.037 C 
HETATM   16  C   UNK N   1      33.413  17.430   8.356  0.00  0.00     0.179 C 
HETATM   17  C   UNK N   1      33.698  16.899   6.962  0.00  0.00     0.241 C 
HETATM   18  O   UNK N   1      34.700  17.270   6.371  0.00  0.00    -0.271 OA
HETATM   19  N   UNK N   1      32.809  16.051   6.358  0.00  0.00    -0.346 N 
HETATM   20  C   UNK N   1      32.940  15.586   4.989  0.00  0.00     0.180 C 
HETATM   21  C   UNK N   1      31.789  14.653   4.624  0.00  0.00     0.241 C 
HETATM   22  O   UNK N   1      30.686  15.127   4.402  0.00  0.00    -0.271 OA
HETATM   23  N   UNK N   1      31.950  13.310   4.500  0.00  0.00    -0.346 N 
HETATM   24  H   UNK N   1      32.818  10.470   7.566  0.00  0.00     0.163 HD
HETATM   25  H   UNK N   1      35.714  13.316   9.305  0.00  0.00     0.163 HD
HETATM   26  H   UNK N   1      32.037  15.738   6.883  0.00  0.00     0.163 HD
HETATM   27  H   UNK N   1      31.208  12.803   4.095  0.00  0.00     0.163 HD
ENDROOT
BRANCH   5  28
HETATM   28  C   UNK N   1      35.459  11.015   7.876  0.00  0.00     0.075 C 
BRANCH  28  29
HETATM   29  C   UNK N   1      36.552  11.134   6.866  0.00  0.00    -0.028 A 
HETATM   30  C   UNK N   1      36.677  10.406   5.688  0.00  0.00     0.096 A 
HETATM   31  N   UNK N   1      37.778  10.824   5.014  0.00  0.00    -0.365 N 
HETATM   32  C   UNK N   1      38.325  11.798   5.765  0.00  0.00     0.042 A 
HETATM   33  H   UNK N   1      38.110  10.484   4.152  0.00  0.00     0.165 HD
HETATM   34  C   UNK N   1      37.600  12.008   6.902  0.00  0.00    -0.002 A 
HETATM   35  C   UNK N   1      39.467  12.537   5.476  0.00  0.00     0.030 A 
HETATM   36  C   UNK N   1      37.956  12.975   7.839  0.00  0.00     0.014 A 
HETATM   37  C   UNK N   1      39.107  13.739   7.580  0.00  0.00     0.001 A 
HETATM   38  C   UNK N   1      39.860  13.522   6.403  0.00  0.00     0.002 A 
ENDBRANCH  28  29
ENDBRANCH   5  28
BRANCH   1  39
HETATM   39  C   UNK N   1      33.908  12.056   3.690  0.00  0.00     0.038 C 
BRANCH  39  40
HETATM   40  C   UNK N   1      34.928  13.030   3.102  0.00  0.00    -0.020 C 
HETATM   41  C   UNK N   1      35.678  13.705   4.229  0.00  0.00     0.009 C 
HETATM   42  C   UNK N   1      35.939  12.280   2.250  0.00  0.00     0.009 C 
ENDBRANCH  39  40
ENDBRANCH   1  39
BRANCH   9  43
HETATM   43  C   UNK N   1      34.853  14.170  11.816  0.00  0.00     0.144 C 
BRANCH  43  44
HETATM   44  C   UNK N   1      36.170  13.475  11.659  0.00  0.00     0.141 C 
HETATM   45  O   UNK N   1      36.277  12.291  11.931  0.00  0.00    -0.650 OA
BRANCH  44  46
HETATM   46  O   UNK N   1      37.251  14.170  11.253  0.00  0.00    -0.776 OA
HETATM   47  H   UNK N   1      37.518  14.721  10.544  0.00  0.00     0.167 HD
ENDBRANCH  44  46
ENDBRANCH  43  44
ENDBRANCH   9  43
BRANCH  20  48
HETATM   48  C   UNK N   1      32.990  16.807   4.032  0.00  0.00     0.009 C 
HETATM   49  C   UNK N   1      33.164  16.418   2.575  0.00  0.00     0.012 C 
HETATM   50  C   UNK N   1      31.782  17.731   4.179  0.00  0.00     0.012 C 
ENDBRANCH  20  48
TORSDOF 8
ENDMDL
