REMARK  5 active torsions:
REMARK  status: ('A' for Active; 'I' for Inactive)
REMARK    1  A    between atoms: C_5  and  C_27 
REMARK    2  A    between atoms: C_6  and  C_8 
REMARK       I    between atoms: C_8  and  N_10 
REMARK    3  A    between atoms: C_12  and  C_17 
REMARK    4  A    between atoms: C_17  and  O_18 
REMARK    5  A    between atoms: O_18  and  C_19 
ROOT
HETATM    1  C   UNK N   1      -0.247  -2.355  -0.466  0.00  0.00     0.255 C 
HETATM    2  O   UNK N   1      -0.481  -3.475  -0.883  0.00  0.00    -0.267 OA
HETATM    3  N   UNK N   1      -1.302  -1.457  -0.439  0.00  0.00    -0.343 N 
HETATM    4  C   UNK N   1      -2.611  -1.941  -0.841  0.00  0.00     0.133 C 
HETATM    5  C   UNK N   1      -3.602  -1.796   0.311  0.00  0.00     0.028 C 
HETATM    6  C   UNK N   1      -3.495  -0.439   1.021  0.00  0.00     0.010 C 
HETATM    7  C   UNK N   1      -2.598   0.544   0.273  0.00  0.00     0.025 C 
HETATM    8  C   UNK N   1      -1.211  -0.063   0.008  0.00  0.00     0.083 C 
HETATM    9  C   UNK N   1      -0.588   0.802  -1.078  0.00  0.00     0.032 C 
ENDROOT
BRANCH   1  10
HETATM   10  C   UNK N   1       1.187  -2.031  -0.062  0.00  0.00     0.046 A 
HETATM   11  C   UNK N   1       2.250  -3.011   0.095  0.00  0.00     0.024 A 
HETATM   12  C   UNK N   1       3.556  -2.542   0.341  0.00  0.00     0.017 A 
HETATM   13  C   UNK N   1       3.849  -1.191   0.461  0.00  0.00     0.007 A 
HETATM   14  C   UNK N   1       2.834  -0.259   0.351  0.00  0.00    -0.061 A 
HETATM   15  C   UNK N   1       3.135   1.190   0.472  0.00  0.00     0.048 C 
HETATM   16  C   UNK N   1       1.536  -0.680   0.092  0.00  0.00     0.024 A 
BRANCH  11  17
HETATM   17  C   UNK N   1       2.131  -4.509   0.056  0.00  0.00     0.116 A 
HETATM   18  N   UNK N   1       3.271  -5.258  -0.030  0.00  0.00    -0.352 N 
HETATM   19  C   UNK N   1       3.231  -6.615  -0.033  0.00  0.00     0.091 A 
ATOM     20  HN  UNK N   1       4.173  -4.786  -0.093  1.00  0.00     0.166 HD
HETATM   21  C   UNK N   1       2.010  -7.273   0.070  0.00  0.00     0.034 A 
HETATM   22  C   UNK N   1       0.855  -6.506   0.184  0.00  0.00     0.091 A 
HETATM   23  N   UNK N   1       0.939  -5.150   0.183  0.00  0.00    -0.352 N 
ATOM     24  HN  UNK N   1       0.086  -4.599   0.281  1.00  0.00     0.166 HD
ENDBRANCH  11  17
ENDBRANCH   1  10
BRANCH   5  25
HETATM   25  C   UNK N   1      -5.003  -2.012  -0.218  0.00  0.00     0.183 C 
BRANCH  25  26
HETATM   26  O   UNK N   1      -5.242  -3.360  -0.353  0.00  0.00    -0.335 OA
BRANCH  26  27
HETATM   27  C   UNK N   1      -6.476  -3.880  -0.176  0.00  0.00     0.141 A 
HETATM   28  C   UNK N   1      -6.648  -5.267  -0.178  0.00  0.00     0.059 A 
HETATM   29  C   UNK N   1      -7.923  -5.799   0.019  0.00  0.00     0.048 A 
HETATM   30  C   UNK N   1      -9.009  -4.943   0.208  0.00  0.00     0.131 A 
HETATM   31  C   UNK N   1      -8.803  -3.563   0.199  0.00  0.00     0.132 A 
HETATM   32  F   UNK N   1     -10.252  -5.444   0.400  0.00  0.00    -0.205 F 
HETATM   33  N   UNK N   1      -7.554  -3.063   0.012  0.00  0.00    -0.344 N 
ATOM     34  HN  UNK N   1      -7.418  -2.052   0.011  1.00  0.00     0.167 HD
ENDBRANCH  26  27
ENDBRANCH  25  26
ENDBRANCH   5  25
TORSDOF 5
