MODEL 1
REMARK VINA RESULT:      -5.6      0.000      0.000
REMARK  13 active torsions:
REMARK  status: ('A' for Active; 'I' for Inactive)
REMARK    1  A    between atoms: C_3  and  O_26 
REMARK    2  A    between atoms: C_4  and  O_24 
REMARK    3  A    between atoms: C_6  and  C_7 
REMARK    4  A    between atoms: C_7  and  C_8 
REMARK    5  A    between atoms: C_8  and  C_9 
REMARK    6  A    between atoms: C_8  and  C_22 
REMARK    7  A    between atoms: C_9  and  C_10 
REMARK    8  A    between atoms: C_9  and  C_20 
REMARK    9  A    between atoms: C_10  and  C_11 
REMARK   10  A    between atoms: C_12  and  O_17 
REMARK   11  A    between atoms: C_16  and  O_19 
REMARK   12  A    between atoms: C_20  and  O_21 
REMARK   13  A    between atoms: C_22  and  O_23 
ROOT
HETATM    1  C   UNK N   1      29.134  18.103   6.969  0.00  0.00     0.020 C 
ENDROOT
BRANCH   1   2
HETATM    2  C   UNK N   1      28.917  16.941   5.991  0.00  0.00     0.045 C 
BRANCH   2   3
HETATM    3  C   UNK N   1      30.164  16.668   5.225  0.00  0.00    -0.055 A 
HETATM    4  C   UNK N   1      30.503  15.356   4.892  0.00  0.00     0.046 A 
HETATM    5  C   UNK N   1      31.622  15.078   4.107  0.00  0.00     0.101 A 
HETATM    6  C   UNK N   1      32.424  16.158   3.652  0.00  0.00     0.099 A 
HETATM    7  C   UNK N   1      32.088  17.470   4.005  0.00  0.00     0.040 A 
HETATM    8  C   UNK N   1      30.961  17.726   4.786  0.00  0.00     0.010 A 
BRANCH   5   9
HETATM    9  O   UNK N   1      31.870  13.776   3.810  0.00  0.00    -0.353 OA
HETATM   10  C   UNK N   1      31.340  13.087   2.744  0.00  0.00     0.210 C 
ENDBRANCH   5   9
BRANCH   6  11
HETATM   11  O   UNK N   1      33.507  15.952   2.884  0.00  0.00    -0.358 OA
HETATM   12  H   UNK N   1      33.921  16.653   2.420  0.00  0.00     0.217 HD
ENDBRANCH   6  11
ENDBRANCH   2   3
ENDBRANCH   1   2
BRANCH   1  13
HETATM   13  C   UNK N   1      29.416  17.650   8.400  0.00  0.00     0.020 C 
BRANCH  13  14
HETATM   14  C   UNK N   1      30.713  18.231   8.981  0.00  0.00     0.045 C 
BRANCH  14  15
HETATM   15  C   UNK N   1      31.897  17.562   8.373  0.00  0.00    -0.055 A 
HETATM   16  C   UNK N   1      31.916  16.172   8.237  0.00  0.00     0.046 A 
HETATM   17  C   UNK N   1      32.975  15.525   7.600  0.00  0.00     0.101 A 
HETATM   18  C   UNK N   1      34.046  16.305   7.092  0.00  0.00     0.099 A 
HETATM   19  C   UNK N   1      34.029  17.696   7.247  0.00  0.00     0.040 A 
HETATM   20  C   UNK N   1      32.957  18.325   7.883  0.00  0.00     0.010 A 
BRANCH  17  21
HETATM   21  O   UNK N   1      32.905  14.173   7.491  0.00  0.00    -0.353 OA
HETATM   22  C   UNK N   1      33.432  13.274   8.388  0.00  0.00     0.210 C 
ENDBRANCH  17  21
BRANCH  18  23
HETATM   23  O   UNK N   1      35.087  15.738   6.460  0.00  0.00    -0.358 OA
HETATM   24  H   UNK N   1      35.194  15.806   5.531  0.00  0.00     0.217 HD
ENDBRANCH  18  23
ENDBRANCH  14  15
ENDBRANCH  13  14
BRANCH  13  25
HETATM   25  C   UNK N   1      28.194  17.832   9.305  0.00  0.00     0.169 C 
BRANCH  25  26
HETATM   26  O   UNK N   1      27.309  16.760   9.185  0.00  0.00    -0.400 OA
HETATM   27  H   UNK N   1      27.218  15.799   9.088  0.00  0.00     0.209 HD
ENDBRANCH  25  26
ENDBRANCH  13  25
ENDBRANCH   1  13
BRANCH   1  28
HETATM   28  C   UNK N   1      28.039  19.173   6.916  0.00  0.00     0.169 C 
BRANCH  28  29
HETATM   29  O   UNK N   1      26.934  18.734   6.185  0.00  0.00    -0.400 OA
HETATM   30  H   UNK N   1      26.596  18.479   5.312  0.00  0.00     0.209 HD
ENDBRANCH  28  29
ENDBRANCH   1  28
TORSDOF 13
ENDMDL
MODEL 2
REMARK VINA RESULT:      -5.6      1.844      6.250
REMARK  13 active torsions:
REMARK  status: ('A' for Active; 'I' for Inactive)
REMARK    1  A    between atoms: C_3  and  O_26 
REMARK    2  A    between atoms: C_4  and  O_24 
REMARK    3  A    between atoms: C_6  and  C_7 
REMARK    4  A    between atoms: C_7  and  C_8 
REMARK    5  A    between atoms: C_8  and  C_9 
REMARK    6  A    between atoms: C_8  and  C_22 
REMARK    7  A    between atoms: C_9  and  C_10 
REMARK    8  A    between atoms: C_9  and  C_20 
REMARK    9  A    between atoms: C_10  and  C_11 
REMARK   10  A    between atoms: C_12  and  O_17 
REMARK   11  A    between atoms: C_16  and  O_19 
REMARK   12  A    between atoms: C_20  and  O_21 
REMARK   13  A    between atoms: C_22  and  O_23 
ROOT
HETATM    1  C   UNK N   1      32.794  16.640   4.548  0.00  0.00     0.020 C 
ENDROOT
BRANCH   1   2
HETATM    2  C   UNK N   1      34.089  16.025   5.096  0.00  0.00     0.045 C 
BRANCH   2   3
HETATM    3  C   UNK N   1      34.242  16.342   6.543  0.00  0.00    -0.055 A 
HETATM    4  C   UNK N   1      34.731  15.373   7.419  0.00  0.00     0.046 A 
HETATM    5  C   UNK N   1      34.960  15.667   8.764  0.00  0.00     0.101 A 
HETATM    6  C   UNK N   1      34.678  16.976   9.235  0.00  0.00     0.099 A 
HETATM    7  C   UNK N   1      34.171  17.938   8.354  0.00  0.00     0.040 A 
HETATM    8  C   UNK N   1      33.955  17.624   7.011  0.00  0.00     0.010 A 
BRANCH   5   9
HETATM    9  O   UNK N   1      35.457  14.674   9.545  0.00  0.00    -0.353 OA
HETATM   10  C   UNK N   1      36.792  14.401   9.735  0.00  0.00     0.210 C 
ENDBRANCH   5   9
BRANCH   6  11
HETATM   11  O   UNK N   1      34.889  17.321  10.516  0.00  0.00    -0.358 OA
HETATM   12  H   UNK N   1      35.494  16.853  11.057  0.00  0.00     0.217 HD
ENDBRANCH   6  11
ENDBRANCH   2   3
ENDBRANCH   1   2
BRANCH   1  13
HETATM   13  C   UNK N   1      31.530  15.945   5.049  0.00  0.00     0.020 C 
BRANCH  13  14
HETATM   14  C   UNK N   1      30.235  16.633   4.597  0.00  0.00     0.045 C 
BRANCH  14  15
HETATM   15  C   UNK N   1      29.576  17.306   5.751  0.00  0.00    -0.055 A 
HETATM   16  C   UNK N   1      28.624  18.301   5.524  0.00  0.00     0.046 A 
HETATM   17  C   UNK N   1      27.933  18.893   6.582  0.00  0.00     0.101 A 
HETATM   18  C   UNK N   1      28.219  18.468   7.906  0.00  0.00     0.099 A 
HETATM   19  C   UNK N   1      29.186  17.482   8.128  0.00  0.00     0.040 A 
HETATM   20  C   UNK N   1      29.863  16.899   7.054  0.00  0.00     0.010 A 
BRANCH  17  21
HETATM   21  O   UNK N   1      27.008  19.837   6.274  0.00  0.00    -0.353 OA
HETATM   22  C   UNK N   1      27.252  21.186   6.169  0.00  0.00     0.210 C 
ENDBRANCH  17  21
BRANCH  18  23
HETATM   23  O   UNK N   1      27.578  18.994   8.963  0.00  0.00    -0.358 OA
HETATM   24  H   UNK N   1      26.974  18.489   9.473  0.00  0.00     0.217 HD
ENDBRANCH  18  23
ENDBRANCH  14  15
ENDBRANCH  13  14
BRANCH  13  25
HETATM   25  C   UNK N   1      31.562  14.439   4.776  0.00  0.00     0.169 C 
BRANCH  25  26
HETATM   26  O   UNK N   1      31.373  13.705   5.947  0.00  0.00    -0.400 OA
HETATM   27  H   UNK N   1      31.785  13.356   6.754  0.00  0.00     0.209 HD
ENDBRANCH  25  26
ENDBRANCH  13  25
ENDBRANCH   1  13
BRANCH   1  28
HETATM   28  C   UNK N   1      32.784  16.812   3.026  0.00  0.00     0.169 C 
BRANCH  28  29
HETATM   29  O   UNK N   1      33.621  15.885   2.403  0.00  0.00    -0.400 OA
HETATM   30  H   UNK N   1      33.974  14.981   2.420  0.00  0.00     0.209 HD
ENDBRANCH  28  29
ENDBRANCH   1  28
TORSDOF 13
ENDMDL
MODEL 3
REMARK VINA RESULT:      -5.5      3.347      5.736
REMARK  13 active torsions:
REMARK  status: ('A' for Active; 'I' for Inactive)
REMARK    1  A    between atoms: C_3  and  O_26 
REMARK    2  A    between atoms: C_4  and  O_24 
REMARK    3  A    between atoms: C_6  and  C_7 
REMARK    4  A    between atoms: C_7  and  C_8 
REMARK    5  A    between atoms: C_8  and  C_9 
REMARK    6  A    between atoms: C_8  and  C_22 
REMARK    7  A    between atoms: C_9  and  C_10 
REMARK    8  A    between atoms: C_9  and  C_20 
REMARK    9  A    between atoms: C_10  and  C_11 
REMARK   10  A    between atoms: C_12  and  O_17 
REMARK   11  A    between atoms: C_16  and  O_19 
REMARK   12  A    between atoms: C_20  and  O_21 
REMARK   13  A    between atoms: C_22  and  O_23 
ROOT
HETATM    1  C   UNK N   1      33.093  16.466   7.473  0.00  0.00     0.020 C 
ENDROOT
BRANCH   1   2
HETATM    2  C   UNK N   1      32.739  17.875   7.966  0.00  0.00     0.045 C 
BRANCH   2   3
HETATM    3  C   UNK N   1      31.282  17.970   8.260  0.00  0.00    -0.055 A 
HETATM    4  C   UNK N   1      30.367  17.264   7.479  0.00  0.00     0.046 A 
HETATM    5  C   UNK N   1      29.005  17.271   7.780  0.00  0.00     0.101 A 
HETATM    6  C   UNK N   1      28.558  18.021   8.900  0.00  0.00     0.099 A 
HETATM    7  C   UNK N   1      29.479  18.741   9.669  0.00  0.00     0.040 A 
HETATM    8  C   UNK N   1      30.837  18.715   9.353  0.00  0.00     0.010 A 
BRANCH   5   9
HETATM    9  O   UNK N   1      28.184  16.541   6.984  0.00  0.00    -0.353 OA
HETATM   10  C   UNK N   1      27.571  16.995   5.840  0.00  0.00     0.210 C 
ENDBRANCH   5   9
BRANCH   6  11
HETATM   11  O   UNK N   1      27.260  18.056   9.246  0.00  0.00    -0.358 OA
HETATM   12  H   UNK N   1      26.990  18.063  10.143  0.00  0.00     0.217 HD
ENDBRANCH   6  11
ENDBRANCH   2   3
ENDBRANCH   1   2
BRANCH   1  13
HETATM   13  C   UNK N   1      33.575  15.535   8.584  0.00  0.00     0.020 C 
BRANCH  13  14
HETATM   14  C   UNK N   1      34.339  16.260   9.700  0.00  0.00     0.045 C 
BRANCH  14  15
HETATM   15  C   UNK N   1      35.329  15.341  10.330  0.00  0.00    -0.055 A 
HETATM   16  C   UNK N   1      35.186  14.981  11.671  0.00  0.00     0.046 A 
HETATM   17  C   UNK N   1      36.050  14.062  12.266  0.00  0.00     0.101 A 
HETATM   18  C   UNK N   1      37.090  13.497  11.483  0.00  0.00     0.099 A 
HETATM   19  C   UNK N   1      37.238  13.875  10.144  0.00  0.00     0.040 A 
HETATM   20  C   UNK N   1      36.359  14.793   9.566  0.00  0.00     0.010 A 
BRANCH  17  21
HETATM   21  O   UNK N   1      35.829  13.749  13.569  0.00  0.00    -0.353 OA
HETATM   22  C   UNK N   1      36.523  14.262  14.639  0.00  0.00     0.210 C 
ENDBRANCH  17  21
BRANCH  18  23
HETATM   23  O   UNK N   1      37.946  12.598  11.998  0.00  0.00    -0.358 OA
HETATM   24  H   UNK N   1      38.846  12.570  11.738  0.00  0.00     0.217 HD
ENDBRANCH  18  23
ENDBRANCH  14  15
ENDBRANCH  13  14
BRANCH  13  25
HETATM   25  C   UNK N   1      32.452  14.624   9.089  0.00  0.00     0.169 C 
BRANCH  25  26
HETATM   26  O   UNK N   1      31.830  15.161  10.216  0.00  0.00    -0.400 OA
HETATM   27  H   UNK N   1      31.023  15.188  10.754  0.00  0.00     0.209 HD
ENDBRANCH  25  26
ENDBRANCH  13  25
ENDBRANCH   1  13
BRANCH   1  28
HETATM   28  C   UNK N   1      34.037  16.449   6.266  0.00  0.00     0.169 C 
BRANCH  28  29
HETATM   29  O   UNK N   1      34.120  17.706   5.667  0.00  0.00    -0.400 OA
HETATM   30  H   UNK N   1      33.709  18.579   5.569  0.00  0.00     0.209 HD
ENDBRANCH  28  29
ENDBRANCH   1  28
TORSDOF 13
ENDMDL
MODEL 4
REMARK VINA RESULT:      -5.5     13.699     16.114
REMARK  13 active torsions:
REMARK  status: ('A' for Active; 'I' for Inactive)
REMARK    1  A    between atoms: C_3  and  O_26 
REMARK    2  A    between atoms: C_4  and  O_24 
REMARK    3  A    between atoms: C_6  and  C_7 
REMARK    4  A    between atoms: C_7  and  C_8 
REMARK    5  A    between atoms: C_8  and  C_9 
REMARK    6  A    between atoms: C_8  and  C_22 
REMARK    7  A    between atoms: C_9  and  C_10 
REMARK    8  A    between atoms: C_9  and  C_20 
REMARK    9  A    between atoms: C_10  and  C_11 
REMARK   10  A    between atoms: C_12  and  O_17 
REMARK   11  A    between atoms: C_16  and  O_19 
REMARK   12  A    between atoms: C_20  and  O_21 
REMARK   13  A    between atoms: C_22  and  O_23 
ROOT
HETATM    1  C   UNK N   1      26.156  24.404  -7.605  0.00  0.00     0.020 C 
ENDROOT
BRANCH   1   2
HETATM    2  C   UNK N   1      25.581  24.046  -6.228  0.00  0.00     0.045 C 
BRANCH   2   3
HETATM    3  C   UNK N   1      26.677  23.907  -5.230  0.00  0.00    -0.055 A 
HETATM    4  C   UNK N   1      27.938  23.473  -5.638  0.00  0.00     0.046 A 
HETATM    5  C   UNK N   1      29.004  23.409  -4.740  0.00  0.00     0.101 A 
HETATM    6  C   UNK N   1      28.783  23.789  -3.389  0.00  0.00     0.099 A 
HETATM    7  C   UNK N   1      27.510  24.206  -2.983  0.00  0.00     0.040 A 
HETATM    8  C   UNK N   1      26.460  24.267  -3.899  0.00  0.00     0.010 A 
BRANCH   5   9
HETATM    9  O   UNK N   1      30.205  22.998  -5.222  0.00  0.00    -0.353 OA
HETATM   10  C   UNK N   1      30.625  21.691  -5.306  0.00  0.00     0.210 C 
ENDBRANCH   5   9
BRANCH   6  11
HETATM   11  O   UNK N   1      29.774  23.759  -2.482  0.00  0.00    -0.358 OA
HETATM   12  H   UNK N   1      29.603  23.612  -1.573  0.00  0.00     0.217 HD
ENDBRANCH   6  11
ENDBRANCH   2   3
ENDBRANCH   1   2
BRANCH   1  13
HETATM   13  C   UNK N   1      25.999  25.880  -7.966  0.00  0.00     0.020 C 
BRANCH  13  14
HETATM   14  C   UNK N   1      27.225  26.731  -7.607  0.00  0.00     0.045 C 
BRANCH  14  15
HETATM   15  C   UNK N   1      27.135  27.197  -6.194  0.00  0.00    -0.055 A 
HETATM   16  C   UNK N   1      28.294  27.293  -5.421  0.00  0.00     0.046 A 
HETATM   17  C   UNK N   1      28.252  27.801  -4.122  0.00  0.00     0.101 A 
HETATM   18  C   UNK N   1      27.003  28.216  -3.591  0.00  0.00     0.099 A 
HETATM   19  C   UNK N   1      25.843  28.101  -4.366  0.00  0.00     0.040 A 
HETATM   20  C   UNK N   1      25.908  27.595  -5.665  0.00  0.00     0.010 A 
BRANCH  17  21
HETATM   21  O   UNK N   1      29.426  27.882  -3.445  0.00  0.00    -0.353 OA
HETATM   22  C   UNK N   1      30.499  27.037  -3.608  0.00  0.00     0.210 C 
ENDBRANCH  17  21
BRANCH  18  23
HETATM   23  O   UNK N   1      26.903  28.723  -2.351  0.00  0.00    -0.358 OA
HETATM   24  H   UNK N   1      26.096  29.073  -2.026  0.00  0.00     0.217 HD
ENDBRANCH  18  23
ENDBRANCH  14  15
ENDBRANCH  13  14
BRANCH  13  25
HETATM   25  C   UNK N   1      25.514  26.065  -9.406  0.00  0.00     0.169 C 
BRANCH  25  26
HETATM   26  O   UNK N   1      26.543  26.512 -10.236  0.00  0.00    -0.400 OA
HETATM   27  H   UNK N   1      26.791  26.793 -11.131  0.00  0.00     0.209 HD
ENDBRANCH  25  26
ENDBRANCH  13  25
ENDBRANCH   1  13
BRANCH   1  28
HETATM   28  C   UNK N   1      25.676  23.488  -8.736  0.00  0.00     0.169 C 
BRANCH  28  29
HETATM   29  O   UNK N   1      24.485  22.845  -8.399  0.00  0.00    -0.400 OA
HETATM   30  H   UNK N   1      24.067  22.008  -8.143  0.00  0.00     0.209 HD
ENDBRANCH  28  29
ENDBRANCH   1  28
TORSDOF 13
ENDMDL
MODEL 5
REMARK VINA RESULT:      -5.4     12.992     15.848
REMARK  13 active torsions:
REMARK  status: ('A' for Active; 'I' for Inactive)
REMARK    1  A    between atoms: C_3  and  O_26 
REMARK    2  A    between atoms: C_4  and  O_24 
REMARK    3  A    between atoms: C_6  and  C_7 
REMARK    4  A    between atoms: C_7  and  C_8 
REMARK    5  A    between atoms: C_8  and  C_9 
REMARK    6  A    between atoms: C_8  and  C_22 
REMARK    7  A    between atoms: C_9  and  C_10 
REMARK    8  A    between atoms: C_9  and  C_20 
REMARK    9  A    between atoms: C_10  and  C_11 
REMARK   10  A    between atoms: C_12  and  O_17 
REMARK   11  A    between atoms: C_16  and  O_19 
REMARK   12  A    between atoms: C_20  and  O_21 
REMARK   13  A    between atoms: C_22  and  O_23 
ROOT
HETATM    1  C   UNK N   1      29.629  23.584  -3.829  0.00  0.00     0.020 C 
ENDROOT
BRANCH   1   2
HETATM    2  C   UNK N   1      28.318  23.743  -3.048  0.00  0.00     0.045 C 
BRANCH   2   3
HETATM    3  C   UNK N   1      27.388  24.651  -3.775  0.00  0.00    -0.055 A 
HETATM    4  C   UNK N   1      27.782  25.956  -4.072  0.00  0.00     0.046 A 
HETATM    5  C   UNK N   1      26.964  26.802  -4.821  0.00  0.00     0.101 A 
HETATM    6  C   UNK N   1      25.709  26.315  -5.274  0.00  0.00     0.099 A 
HETATM    7  C   UNK N   1      25.313  25.011  -4.957  0.00  0.00     0.040 A 
HETATM    8  C   UNK N   1      26.150  24.179  -4.212  0.00  0.00     0.010 A 
BRANCH   5   9
HETATM    9  O   UNK N   1      27.430  28.050  -5.085  0.00  0.00    -0.353 OA
HETATM   10  C   UNK N   1      27.841  28.503  -6.316  0.00  0.00     0.210 C 
ENDBRANCH   5   9
BRANCH   6  11
HETATM   11  O   UNK N   1      24.885  27.081  -6.009  0.00  0.00    -0.358 OA
HETATM   12  H   UNK N   1      24.076  27.404  -5.662  0.00  0.00     0.217 HD
ENDBRANCH   6  11
ENDBRANCH   2   3
ENDBRANCH   1   2
BRANCH   1  13
HETATM   13  C   UNK N   1      29.508  22.665  -5.043  0.00  0.00     0.020 C 
BRANCH  13  14
HETATM   14  C   UNK N   1      29.690  23.392  -6.382  0.00  0.00     0.045 C 
BRANCH  14  15
HETATM   15  C   UNK N   1      28.392  23.473  -7.107  0.00  0.00    -0.055 A 
HETATM   16  C   UNK N   1      27.518  22.384  -7.091  0.00  0.00     0.046 A 
HETATM   17  C   UNK N   1      26.263  22.459  -7.695  0.00  0.00     0.101 A 
HETATM   18  C   UNK N   1      25.884  23.667  -8.336  0.00  0.00     0.099 A 
HETATM   19  C   UNK N   1      26.771  24.749  -8.362  0.00  0.00     0.040 A 
HETATM   20  C   UNK N   1      28.021  24.655  -7.748  0.00  0.00     0.010 A 
BRANCH  17  21
HETATM   21  O   UNK N   1      25.465  21.362  -7.616  0.00  0.00    -0.353 OA
HETATM   22  C   UNK N   1      24.404  21.211  -6.754  0.00  0.00     0.210 C 
ENDBRANCH  17  21
BRANCH  18  23
HETATM   23  O   UNK N   1      24.683  23.801  -8.923  0.00  0.00    -0.358 OA
HETATM   24  H   UNK N   1      23.999  24.310  -8.534  0.00  0.00     0.217 HD
ENDBRANCH  18  23
ENDBRANCH  14  15
ENDBRANCH  13  14
BRANCH  13  25
HETATM   25  C   UNK N   1      30.373  21.410  -4.894  0.00  0.00     0.169 C 
BRANCH  25  26
HETATM   26  O   UNK N   1      30.217  20.553  -5.984  0.00  0.00    -0.400 OA
HETATM   27  H   UNK N   1      30.297  20.452  -6.946  0.00  0.00     0.209 HD
ENDBRANCH  25  26
ENDBRANCH  13  25
ENDBRANCH   1  13
BRANCH   1  28
HETATM   28  C   UNK N   1      30.832  23.218  -2.955  0.00  0.00     0.169 C 
BRANCH  28  29
HETATM   29  O   UNK N   1      30.462  23.058  -1.619  0.00  0.00    -0.400 OA
HETATM   30  H   UNK N   1      30.480  23.442  -0.728  0.00  0.00     0.209 HD
ENDBRANCH  28  29
ENDBRANCH   1  28
TORSDOF 13
ENDMDL
MODEL 6
REMARK VINA RESULT:      -5.4     12.923     15.496
REMARK  13 active torsions:
REMARK  status: ('A' for Active; 'I' for Inactive)
REMARK    1  A    between atoms: C_3  and  O_26 
REMARK    2  A    between atoms: C_4  and  O_24 
REMARK    3  A    between atoms: C_6  and  C_7 
REMARK    4  A    between atoms: C_7  and  C_8 
REMARK    5  A    between atoms: C_8  and  C_9 
REMARK    6  A    between atoms: C_8  and  C_22 
REMARK    7  A    between atoms: C_9  and  C_10 
REMARK    8  A    between atoms: C_9  and  C_20 
REMARK    9  A    between atoms: C_10  and  C_11 
REMARK   10  A    between atoms: C_12  and  O_17 
REMARK   11  A    between atoms: C_16  and  O_19 
REMARK   12  A    between atoms: C_20  and  O_21 
REMARK   13  A    between atoms: C_22  and  O_23 
ROOT
HETATM    1  C   UNK N   1      29.511  22.553  -5.013  0.00  0.00     0.020 C 
ENDROOT
BRANCH   1   2
HETATM    2  C   UNK N   1      29.714  23.239  -6.371  0.00  0.00     0.045 C 
BRANCH   2   3
HETATM    3  C   UNK N   1      28.417  23.351  -7.094  0.00  0.00    -0.055 A 
HETATM    4  C   UNK N   1      27.520  22.283  -7.083  0.00  0.00     0.046 A 
HETATM    5  C   UNK N   1      26.266  22.389  -7.684  0.00  0.00     0.101 A 
HETATM    6  C   UNK N   1      25.913  23.609  -8.320  0.00  0.00     0.099 A 
HETATM    7  C   UNK N   1      26.825  24.671  -8.342  0.00  0.00     0.040 A 
HETATM    8  C   UNK N   1      28.073  24.544  -7.730  0.00  0.00     0.010 A 
BRANCH   5   9
HETATM    9  O   UNK N   1      25.443  21.311  -7.611  0.00  0.00    -0.353 OA
HETATM   10  C   UNK N   1      24.363  21.189  -6.768  0.00  0.00     0.210 C 
ENDBRANCH   5   9
BRANCH   6  11
HETATM   11  O   UNK N   1      24.715  23.774  -8.905  0.00  0.00    -0.358 OA
HETATM   12  H   UNK N   1      24.208  23.043  -9.200  0.00  0.00     0.217 HD
ENDBRANCH   6  11
ENDBRANCH   2   3
ENDBRANCH   1   2
BRANCH   1  13
HETATM   13  C   UNK N   1      29.659  23.501  -3.825  0.00  0.00     0.020 C 
BRANCH  13  14
HETATM   14  C   UNK N   1      28.357  23.704  -3.039  0.00  0.00     0.045 C 
BRANCH  14  15
HETATM   15  C   UNK N   1      27.445  24.622  -3.777  0.00  0.00    -0.055 A 
HETATM   16  C   UNK N   1      27.865  25.918  -4.085  0.00  0.00     0.046 A 
HETATM   17  C   UNK N   1      27.065  26.773  -4.844  0.00  0.00     0.101 A 
HETATM   18  C   UNK N   1      25.804  26.305  -5.297  0.00  0.00     0.099 A 
HETATM   19  C   UNK N   1      25.382  25.011  -4.970  0.00  0.00     0.040 A 
HETATM   20  C   UNK N   1      26.200  24.170  -4.214  0.00  0.00     0.010 A 
BRANCH  17  21
HETATM   21  O   UNK N   1      27.556  28.009  -5.118  0.00  0.00    -0.353 OA
HETATM   22  C   UNK N   1      27.384  29.125  -4.334  0.00  0.00     0.210 C 
ENDBRANCH  17  21
BRANCH  18  23
HETATM   23  O   UNK N   1      24.995  27.079  -6.040  0.00  0.00    -0.358 OA
HETATM   24  H   UNK N   1      25.016  27.055  -6.977  0.00  0.00     0.217 HD
ENDBRANCH  18  23
ENDBRANCH  14  15
ENDBRANCH  13  14
BRANCH  13  25
HETATM   25  C   UNK N   1      30.861  23.133  -2.951  0.00  0.00     0.169 C 
BRANCH  25  26
HETATM   26  O   UNK N   1      30.505  23.049  -1.604  0.00  0.00    -0.400 OA
HETATM   27  H   UNK N   1      30.796  23.165  -0.686  0.00  0.00     0.209 HD
ENDBRANCH  25  26
ENDBRANCH  13  25
ENDBRANCH   1  13
BRANCH   1  28
HETATM   28  C   UNK N   1      30.339  21.278  -4.831  0.00  0.00     0.169 C 
BRANCH  28  29
HETATM   29  O   UNK N   1      31.208  21.077  -5.904  0.00  0.00    -0.400 OA
HETATM   30  H   UNK N   1      31.542  21.427  -6.746  0.00  0.00     0.209 HD
ENDBRANCH  28  29
ENDBRANCH   1  28
TORSDOF 13
ENDMDL
MODEL 7
REMARK VINA RESULT:      -5.3     14.097     16.574
REMARK  13 active torsions:
REMARK  status: ('A' for Active; 'I' for Inactive)
REMARK    1  A    between atoms: C_3  and  O_26 
REMARK    2  A    between atoms: C_4  and  O_24 
REMARK    3  A    between atoms: C_6  and  C_7 
REMARK    4  A    between atoms: C_7  and  C_8 
REMARK    5  A    between atoms: C_8  and  C_9 
REMARK    6  A    between atoms: C_8  and  C_22 
REMARK    7  A    between atoms: C_9  and  C_10 
REMARK    8  A    between atoms: C_9  and  C_20 
REMARK    9  A    between atoms: C_10  and  C_11 
REMARK   10  A    between atoms: C_12  and  O_17 
REMARK   11  A    between atoms: C_16  and  O_19 
REMARK   12  A    between atoms: C_20  and  O_21 
REMARK   13  A    between atoms: C_22  and  O_23 
ROOT
HETATM    1  C   UNK N   1      26.015  25.357  -8.691  0.00  0.00     0.020 C 
ENDROOT
BRANCH   1   2
HETATM    2  C   UNK N   1      26.899  26.522  -8.226  0.00  0.00     0.045 C 
BRANCH   2   3
HETATM    3  C   UNK N   1      26.527  26.934  -6.844  0.00  0.00    -0.055 A 
HETATM    4  C   UNK N   1      27.520  27.324  -5.944  0.00  0.00     0.046 A 
HETATM    5  C   UNK N   1      27.195  27.791  -4.670  0.00  0.00     0.101 A 
HETATM    6  C   UNK N   1      25.827  27.858  -4.296  0.00  0.00     0.099 A 
HETATM    7  C   UNK N   1      24.837  27.449  -5.197  0.00  0.00     0.040 A 
HETATM    8  C   UNK N   1      25.185  26.991  -6.469  0.00  0.00     0.010 A 
BRANCH   5   9
HETATM    9  O   UNK N   1      28.218  28.170  -3.863  0.00  0.00    -0.353 OA
HETATM   10  C   UNK N   1      28.851  29.391  -3.898  0.00  0.00     0.210 C 
ENDBRANCH   5   9
BRANCH   6  11
HETATM   11  O   UNK N   1      25.453  28.310  -3.087  0.00  0.00    -0.358 OA
HETATM   12  H   UNK N   1      24.622  28.722  -2.952  0.00  0.00     0.217 HD
ENDBRANCH   6  11
ENDBRANCH   2   3
ENDBRANCH   1   2
BRANCH   1  13
HETATM   13  C   UNK N   1      26.531  23.988  -8.253  0.00  0.00     0.020 C 
BRANCH  13  14
HETATM   14  C   UNK N   1      25.879  23.474  -6.962  0.00  0.00     0.045 C 
BRANCH  14  15
HETATM   15  C   UNK N   1      26.834  23.576  -5.824  0.00  0.00    -0.055 A 
HETATM   16  C   UNK N   1      28.179  23.250  -6.014  0.00  0.00     0.046 A 
HETATM   17  C   UNK N   1      29.111  23.412  -4.988  0.00  0.00     0.101 A 
HETATM   18  C   UNK N   1      28.668  23.911  -3.735  0.00  0.00     0.099 A 
HETATM   19  C   UNK N   1      27.316  24.220  -3.547  0.00  0.00     0.040 A 
HETATM   20  C   UNK N   1      26.400  24.055  -4.588  0.00  0.00     0.010 A 
BRANCH  17  21
HETATM   21  O   UNK N   1      30.402  23.093  -5.262  0.00  0.00    -0.353 OA
HETATM   22  C   UNK N   1      30.830  21.903  -5.800  0.00  0.00     0.210 C 
ENDBRANCH  17  21
BRANCH  18  23
HETATM   23  O   UNK N   1      29.522  24.098  -2.715  0.00  0.00    -0.358 OA
HETATM   24  H   UNK N   1      29.842  23.381  -2.204  0.00  0.00     0.217 HD
ENDBRANCH  18  23
ENDBRANCH  14  15
ENDBRANCH  13  14
BRANCH  13  25
HETATM   25  C   UNK N   1      26.513  22.978  -9.403  0.00  0.00     0.169 C 
BRANCH  25  26
HETATM   26  O   UNK N   1      25.342  22.220  -9.396  0.00  0.00    -0.400 OA
HETATM   27  H   UNK N   1      24.718  21.697  -9.925  0.00  0.00     0.209 HD
ENDBRANCH  25  26
ENDBRANCH  13  25
ENDBRANCH   1  13
BRANCH   1  28
HETATM   28  C   UNK N   1      25.683  25.388 -10.187  0.00  0.00     0.169 C 
BRANCH  28  29
HETATM   29  O   UNK N   1      24.346  25.063 -10.419  0.00  0.00    -0.400 OA
HETATM   30  H   UNK N   1      23.612  25.082 -11.052  0.00  0.00     0.209 HD
ENDBRANCH  28  29
ENDBRANCH   1  28
TORSDOF 13
ENDMDL
MODEL 8
REMARK VINA RESULT:      -5.3      1.645      5.352
REMARK  13 active torsions:
REMARK  status: ('A' for Active; 'I' for Inactive)
REMARK    1  A    between atoms: C_3  and  O_26 
REMARK    2  A    between atoms: C_4  and  O_24 
REMARK    3  A    between atoms: C_6  and  C_7 
REMARK    4  A    between atoms: C_7  and  C_8 
REMARK    5  A    between atoms: C_8  and  C_9 
REMARK    6  A    between atoms: C_8  and  C_22 
REMARK    7  A    between atoms: C_9  and  C_10 
REMARK    8  A    between atoms: C_9  and  C_20 
REMARK    9  A    between atoms: C_10  and  C_11 
REMARK   10  A    between atoms: C_12  and  O_17 
REMARK   11  A    between atoms: C_16  and  O_19 
REMARK   12  A    between atoms: C_20  and  O_21 
REMARK   13  A    between atoms: C_22  and  O_23 
ROOT
HETATM    1  C   UNK N   1      33.396  16.688   7.826  0.00  0.00     0.020 C 
ENDROOT
BRANCH   1   2
HETATM    2  C   UNK N   1      32.159  16.247   8.621  0.00  0.00     0.045 C 
BRANCH   2   3
HETATM    3  C   UNK N   1      30.955  16.992   8.160  0.00  0.00    -0.055 A 
HETATM    4  C   UNK N   1      30.294  16.594   6.998  0.00  0.00     0.046 A 
HETATM    5  C   UNK N   1      29.118  17.222   6.587  0.00  0.00     0.101 A 
HETATM    6  C   UNK N   1      28.601  18.287   7.371  0.00  0.00     0.099 A 
HETATM    7  C   UNK N   1      29.279  18.692   8.527  0.00  0.00     0.040 A 
HETATM    8  C   UNK N   1      30.451  18.046   8.923  0.00  0.00     0.010 A 
BRANCH   5   9
HETATM    9  O   UNK N   1      28.525  16.761   5.456  0.00  0.00    -0.353 OA
HETATM   10  C   UNK N   1      28.045  15.486   5.270  0.00  0.00     0.210 C 
ENDBRANCH   5   9
BRANCH   6  11
HETATM   11  O   UNK N   1      27.467  18.921   7.031  0.00  0.00    -0.358 OA
HETATM   12  H   UNK N   1      27.478  19.709   6.524  0.00  0.00     0.217 HD
ENDBRANCH   6  11
ENDBRANCH   2   3
ENDBRANCH   1   2
BRANCH   1  13
HETATM   13  C   UNK N   1      34.163  15.526   7.199  0.00  0.00     0.020 C 
BRANCH  13  14
HETATM   14  C   UNK N   1      34.622  15.802   5.761  0.00  0.00     0.045 C 
BRANCH  14  15
HETATM   15  C   UNK N   1      33.448  16.075   4.886  0.00  0.00    -0.055 A 
HETATM   16  C   UNK N   1      32.654  15.017   4.439  0.00  0.00     0.046 A 
HETATM   17  C   UNK N   1      31.503  15.248   3.685  0.00  0.00     0.101 A 
HETATM   18  C   UNK N   1      31.150  16.587   3.371  0.00  0.00     0.099 A 
HETATM   19  C   UNK N   1      31.959  17.641   3.809  0.00  0.00     0.040 A 
HETATM   20  C   UNK N   1      33.104  17.388   4.566  0.00  0.00     0.010 A 
BRANCH  17  21
HETATM   21  O   UNK N   1      30.776  14.166   3.308  0.00  0.00    -0.353 OA
HETATM   22  C   UNK N   1      30.618  13.017   4.046  0.00  0.00     0.210 C 
ENDBRANCH  17  21
BRANCH  18  23
HETATM   23  O   UNK N   1      30.048  16.871   2.658  0.00  0.00    -0.358 OA
HETATM   24  H   UNK N   1      29.856  17.744   2.376  0.00  0.00     0.217 HD
ENDBRANCH  18  23
ENDBRANCH  14  15
ENDBRANCH  13  14
BRANCH  13  25
HETATM   25  C   UNK N   1      35.275  15.017   8.120  0.00  0.00     0.169 C 
BRANCH  25  26
HETATM   26  O   UNK N   1      34.847  13.928   8.880  0.00  0.00    -0.400 OA
HETATM   27  H   UNK N   1      35.078  13.056   9.238  0.00  0.00     0.209 HD
ENDBRANCH  25  26
ENDBRANCH  13  25
ENDBRANCH   1  13
BRANCH   1  28
HETATM   28  C   UNK N   1      34.323  17.634   8.595  0.00  0.00     0.169 C 
BRANCH  28  29
HETATM   29  O   UNK N   1      34.834  18.633   7.765  0.00  0.00    -0.400 OA
HETATM   30  H   UNK N   1      35.629  19.012   7.357  0.00  0.00     0.209 HD
ENDBRANCH  28  29
ENDBRANCH   1  28
TORSDOF 13
ENDMDL
MODEL 9
REMARK VINA RESULT:      -5.3      2.402      4.621
REMARK  13 active torsions:
REMARK  status: ('A' for Active; 'I' for Inactive)
REMARK    1  A    between atoms: C_3  and  O_26 
REMARK    2  A    between atoms: C_4  and  O_24 
REMARK    3  A    between atoms: C_6  and  C_7 
REMARK    4  A    between atoms: C_7  and  C_8 
REMARK    5  A    between atoms: C_8  and  C_9 
REMARK    6  A    between atoms: C_8  and  C_22 
REMARK    7  A    between atoms: C_9  and  C_10 
REMARK    8  A    between atoms: C_9  and  C_20 
REMARK    9  A    between atoms: C_10  and  C_11 
REMARK   10  A    between atoms: C_12  and  O_17 
REMARK   11  A    between atoms: C_16  and  O_19 
REMARK   12  A    between atoms: C_20  and  O_21 
REMARK   13  A    between atoms: C_22  and  O_23 
ROOT
HETATM    1  C   UNK N   1      34.053  16.895   8.257  0.00  0.00     0.020 C 
ENDROOT
BRANCH   1   2
HETATM    2  C   UNK N   1      32.657  17.455   7.950  0.00  0.00     0.045 C 
BRANCH   2   3
HETATM    3  C   UNK N   1      32.367  17.351   6.493  0.00  0.00    -0.055 A 
HETATM    4  C   UNK N   1      31.057  17.148   6.059  0.00  0.00     0.046 A 
HETATM    5  C   UNK N   1      30.744  17.126   4.699  0.00  0.00     0.101 A 
HETATM    6  C   UNK N   1      31.788  17.309   3.755  0.00  0.00     0.099 A 
HETATM    7  C   UNK N   1      33.102  17.496   4.197  0.00  0.00     0.040 A 
HETATM    8  C   UNK N   1      33.392  17.519   5.562  0.00  0.00     0.010 A 
BRANCH   5   9
HETATM    9  O   UNK N   1      29.442  16.944   4.360  0.00  0.00    -0.353 OA
HETATM   10  C   UNK N   1      28.421  17.832   4.607  0.00  0.00     0.210 C 
ENDBRANCH   5   9
BRANCH   6  11
HETATM   11  O   UNK N   1      31.545  17.310   2.433  0.00  0.00    -0.358 OA
HETATM   12  H   UNK N   1      30.822  16.839   2.066  0.00  0.00     0.217 HD
ENDBRANCH   6  11
ENDBRANCH   2   3
ENDBRANCH   1   2
BRANCH   1  13
HETATM   13  C   UNK N   1      34.030  15.465   8.794  0.00  0.00     0.020 C 
BRANCH  13  14
HETATM   14  C   UNK N   1      34.947  14.507   8.021  0.00  0.00     0.045 C 
BRANCH  14  15
HETATM   15  C   UNK N   1      34.351  14.176   6.697  0.00  0.00    -0.055 A 
HETATM   16  C   UNK N   1      33.049  13.677   6.627  0.00  0.00     0.046 A 
HETATM   17  C   UNK N   1      32.436  13.432   5.398  0.00  0.00     0.101 A 
HETATM   18  C   UNK N   1      33.164  13.695   4.208  0.00  0.00     0.099 A 
HETATM   19  C   UNK N   1      34.474  14.180   4.286  0.00  0.00     0.040 A 
HETATM   20  C   UNK N   1      35.067  14.422   5.526  0.00  0.00     0.010 A 
BRANCH  17  21
HETATM   21  O   UNK N   1      31.160  12.968   5.417  0.00  0.00    -0.353 OA
HETATM   22  C   UNK N   1      30.066  13.625   4.905  0.00  0.00     0.210 C 
ENDBRANCH  17  21
BRANCH  18  23
HETATM   23  O   UNK N   1      32.622  13.490   2.996  0.00  0.00    -0.358 OA
HETATM   24  H   UNK N   1      31.703  13.598   2.843  0.00  0.00     0.217 HD
ENDBRANCH  18  23
ENDBRANCH  14  15
ENDBRANCH  13  14
BRANCH  13  25
HETATM   25  C   UNK N   1      34.226  15.424  10.312  0.00  0.00     0.169 C 
BRANCH  25  26
HETATM   26  O   UNK N   1      33.060  15.020  10.965  0.00  0.00    -0.400 OA
HETATM   27  H   UNK N   1      32.306  14.411  10.959  0.00  0.00     0.209 HD
ENDBRANCH  25  26
ENDBRANCH  13  25
ENDBRANCH   1  13
BRANCH   1  28
HETATM   28  C   UNK N   1      34.914  17.815   9.128  0.00  0.00     0.169 C 
BRANCH  28  29
HETATM   29  O   UNK N   1      35.187  19.020   8.479  0.00  0.00    -0.400 OA
HETATM   30  H   UNK N   1      35.018  19.570   7.697  0.00  0.00     0.209 HD
ENDBRANCH  28  29
ENDBRANCH   1  28
TORSDOF 13
ENDMDL
