REMARK  26 active torsions:
REMARK  status: ('A' for Active; 'I' for Inactive)
REMARK    1  A    between atoms: C_2  and  C_1 
REMARK    2  A    between atoms: O_4  and  C_1 
REMARK    3  A    between atoms: C_3  and  C_2 
REMARK    4  A    between atoms: C_2  and  O_6 
REMARK    5  A    between atoms: O_5  and  C_3 
REMARK    6  A    between atoms: C_32  and  O_4 
REMARK    7  A    between atoms: C_14  and  O_5 
REMARK    8  A    between atoms: C_23  and  O_6 
REMARK    9  A    between atoms: C_8  and  C_9 
REMARK   10  A    between atoms: C_9  and  C_10 
REMARK   11  A    between atoms: C_10  and  C_11 
REMARK   12  A    between atoms: C_11  and  C_12 
REMARK   13  A    between atoms: C_12  and  C_13 
REMARK   14  A    between atoms: C_13  and  C_14 
REMARK   15  A    between atoms: C_17  and  C_18 
REMARK   16  A    between atoms: C_18  and  C_19 
REMARK   17  A    between atoms: C_19  and  C_20 
REMARK   18  A    between atoms: C_20  and  C_21 
REMARK   19  A    between atoms: C_21  and  C_22 
REMARK   20  A    between atoms: C_22  and  C_23 
REMARK   21  A    between atoms: C_26  and  C_27 
REMARK   22  A    between atoms: C_27  and  C_28 
REMARK   23  A    between atoms: C_28  and  C_29 
REMARK   24  A    between atoms: C_29  and  C_30 
REMARK   25  A    between atoms: C_30  and  C_31 
REMARK   26  A    between atoms: C_31  and  C_32 
ROOT
HETATM    1  C   UNK N   1      22.182  -9.291  -0.144  0.00  0.00     0.180 C 
ENDROOT
BRANCH   1   2
HETATM    2  C   UNK N   1      22.818  -8.419   0.935  0.00  0.00     0.213 C 
BRANCH   2   3
HETATM    3  O   UNK N   1      23.642  -7.455   0.389  0.00  0.00    -0.319 OA
BRANCH   3   4
HETATM    4  C   UNK N   1      23.325  -6.133   0.401  0.00  0.00     0.258 C 
HETATM    5  O   UNK N   1      24.139  -5.321  -0.009  0.00  0.00    -0.265 OA
BRANCH   4   6
HETATM    6  C   UNK N   1      21.991  -5.647   0.911  0.00  0.00     0.111 C 
BRANCH   6   7
HETATM    7  C   UNK N   1      21.289  -4.796  -0.142  0.00  0.00     0.010 C 
BRANCH   7   8
HETATM    8  C   UNK N   1      19.864  -5.259  -0.395  0.00  0.00     0.000 C 
BRANCH   8   9
HETATM    9  C   UNK N   1      18.942  -4.894   0.759  0.00  0.00     0.000 C 
BRANCH   9  10
HETATM   10  C   UNK N   1      17.513  -5.312   0.447  0.00  0.00    -0.000 C 
BRANCH  10  11
HETATM   11  C   UNK N   1      16.894  -4.373  -0.572  0.00  0.00    -0.005 C 
HETATM   12  C   UNK N   1      15.498  -4.844  -0.920  0.00  0.00     0.005 C 
ENDBRANCH  10  11
ENDBRANCH   9  10
ENDBRANCH   8   9
ENDBRANCH   7   8
ENDBRANCH   6   7
ENDBRANCH   4   6
ENDBRANCH   3   4
ENDBRANCH   2   3
ENDBRANCH   1   2
BRANCH   1  13
HETATM   13  C   UNK N   1      21.541  -8.366  -1.194  0.00  0.00     0.213 C 
BRANCH  13  14
HETATM   14  O   UNK N   1      20.242  -8.703  -1.524  0.00  0.00    -0.319 OA
BRANCH  14  15
HETATM   15  C   UNK N   1      19.193  -8.481  -0.691  0.00  0.00     0.258 C 
HETATM   16  O   UNK N   1      19.380  -8.063   0.447  0.00  0.00    -0.265 OA
BRANCH  15  17
HETATM   17  C   UNK N   1      17.802  -8.757  -1.174  0.00  0.00     0.111 C 
BRANCH  17  18
HETATM   18  C   UNK N   1      16.767  -8.518  -0.087  0.00  0.00     0.010 C 
BRANCH  18  19
HETATM   19  C   UNK N   1      15.378  -8.780  -0.625  0.00  0.00     0.000 C 
BRANCH  19  20
HETATM   20  C   UNK N   1      14.396  -8.866   0.530  0.00  0.00     0.000 C 
BRANCH  20  21
HETATM   21  C   UNK N   1      14.000  -7.487   1.036  0.00  0.00    -0.000 C 
BRANCH  21  22
HETATM   22  C   UNK N   1      12.941  -6.865   0.142  0.00  0.00    -0.005 C 
HETATM   23  C   UNK N   1      11.610  -7.573   0.321  0.00  0.00     0.005 C 
ENDBRANCH  21  22
ENDBRANCH  20  21
ENDBRANCH  19  20
ENDBRANCH  18  19
ENDBRANCH  17  18
ENDBRANCH  15  17
ENDBRANCH  14  15
ENDBRANCH  13  14
ENDBRANCH   1  13
BRANCH   1  24
HETATM   24  O   UNK N   1      21.209 -10.076   0.453  0.00  0.00    -0.312 OA
BRANCH  24  25
HETATM   25  C   UNK N   1      20.983 -11.389   0.198  0.00  0.00     0.259 C 
HETATM   26  O   UNK N   1      21.737 -12.034  -0.516  0.00  0.00    -0.265 OA
BRANCH  25  27
HETATM   27  C   UNK N   1      19.741 -12.020   0.739  0.00  0.00     0.111 C 
BRANCH  27  28
HETATM   28  C   UNK N   1      18.802 -12.388  -0.403  0.00  0.00     0.010 C 
BRANCH  28  29
HETATM   29  C   UNK N   1      17.402 -11.847  -0.155  0.00  0.00     0.000 C 
BRANCH  29  30
HETATM   30  C   UNK N   1      16.681 -12.669   0.901  0.00  0.00     0.000 C 
BRANCH  30  31
HETATM   31  C   UNK N   1      15.320 -12.069   1.213  0.00  0.00    -0.000 C 
BRANCH  31  32
HETATM   32  C   UNK N   1      14.325 -12.386   0.111  0.00  0.00    -0.005 C 
HETATM   33  C   UNK N   1      12.960 -11.848   0.490  0.00  0.00     0.005 C 
ENDBRANCH  31  32
ENDBRANCH  30  31
ENDBRANCH  29  30
ENDBRANCH  28  29
ENDBRANCH  27  28
ENDBRANCH  25  27
ENDBRANCH  24  25
ENDBRANCH   1  24
TORSDOF 26
