MODEL 1
REMARK VINA RESULT:      -8.1      0.000      0.000
REMARK  1 active torsions:
REMARK  status: ('A' for Active; 'I' for Inactive)
REMARK    1  A    between atoms: O_22  and  C_18 
ROOT
HETATM    1  C   UNK N   1      36.681   8.303  14.734  0.00  0.00     0.310 C 
HETATM    2  C   UNK N   1      35.177  12.743  19.833  0.00  0.00     0.001 A 
HETATM    3  C   UNK N   1      35.010  13.560  18.712  0.00  0.00     0.001 A 
HETATM    4  C   UNK N   1      35.553  11.407  19.674  0.00  0.00     0.007 A 
HETATM    5  C   UNK N   1      35.226  13.045  17.430  0.00  0.00     0.008 A 
HETATM    6  C   UNK N   1      36.136   9.466  18.197  0.00  0.00     0.041 C 
HETATM    7  C   UNK N   1      35.186   8.877  17.149  0.00  0.00     0.041 C 
HETATM    8  C   UNK N   1      34.133  10.577  13.368  0.00  0.00     0.069 C 
HETATM    9  C   UNK N   1      35.140   9.443  13.364  0.00  0.00     0.277 C 
HETATM   10  C   UNK N   1      34.778  12.822  12.593  0.00  0.00     0.034 A 
HETATM   11  C   UNK N   1      36.421  13.277  14.790  0.00  0.00     0.046 A 
HETATM   12  C   UNK N   1      35.781  10.897  18.394  0.00  0.00    -0.051 A 
HETATM   13  C   UNK N   1      34.877  11.843  13.589  0.00  0.00    -0.048 A 
HETATM   14  C   UNK N   1      35.628  11.708  17.259  0.00  0.00    -0.041 A 
HETATM   15  C   UNK N   1      35.704  12.066  14.726  0.00  0.00    -0.038 A 
HETATM   16  C   UNK N   1      35.475  14.023  12.697  0.00  0.00     0.067 A 
HETATM   17  C   UNK N   1      35.052   9.732  15.852  0.00  0.00     0.235 C 
HETATM   18  C   UNK N   1      36.303  14.250  13.798  0.00  0.00     0.087 A 
HETATM   19  C   UNK N   1      35.891  11.069  15.890  0.00  0.00     0.086 C 
HETATM   20 Cl   UNK N   1      35.307  15.229  11.433  0.00  0.00    -0.081 Cl
HETATM   21  N   UNK N   1      35.330   8.852  14.691  0.00  0.00     0.090 N 
ENDROOT
BRANCH  18  22
HETATM   22  O   UNK N   1      36.982  15.404  13.915  0.00  0.00    -0.359 OA
HETATM   23  H   UNK N   1      36.750  16.128  14.461  0.00  0.00     0.217 HD
ENDBRANCH  18  22
TORSDOF 1
ENDMDL
MODEL 2
REMARK VINA RESULT:      -7.7      7.959     11.161
REMARK  1 active torsions:
REMARK  status: ('A' for Active; 'I' for Inactive)
REMARK    1  A    between atoms: O_22  and  C_18 
ROOT
HETATM    1  C   UNK N   1      31.618  14.818   4.139  0.00  0.00     0.310 C 
HETATM    2  C   UNK N   1      28.277  18.724   8.781  0.00  0.00     0.001 A 
HETATM    3  C   UNK N   1      29.474  18.475   9.457  0.00  0.00     0.001 A 
HETATM    4  C   UNK N   1      28.073  18.199   7.503  0.00  0.00     0.007 A 
HETATM    5  C   UNK N   1      30.467  17.692   8.860  0.00  0.00     0.008 A 
HETATM    6  C   UNK N   1      28.886  16.875   5.534  0.00  0.00     0.041 C 
HETATM    7  C   UNK N   1      30.133  17.237   4.720  0.00  0.00     0.041 C 
HETATM    8  C   UNK N   1      34.218  16.743   5.889  0.00  0.00     0.069 C 
HETATM    9  C   UNK N   1      33.646  15.732   4.914  0.00  0.00     0.277 C 
HETATM   10  C   UNK N   1      34.979  16.035   8.119  0.00  0.00     0.034 A 
HETATM   11  C   UNK N   1      32.394  15.521   9.008  0.00  0.00     0.046 A 
HETATM   12  C   UNK N   1      29.061  17.407   6.912  0.00  0.00    -0.051 A 
HETATM   13  C   UNK N   1      33.898  16.278   7.263  0.00  0.00    -0.048 A 
HETATM   14  C   UNK N   1      30.264  17.139   7.583  0.00  0.00    -0.041 A 
HETATM   15  C   UNK N   1      32.568  16.032   7.708  0.00  0.00    -0.038 A 
HETATM   16  C   UNK N   1      34.776  15.558   9.412  0.00  0.00     0.067 A 
HETATM   17  C   UNK N   1      31.481  16.887   5.421  0.00  0.00     0.235 C 
HETATM   18  C   UNK N   1      33.478  15.296   9.857  0.00  0.00     0.087 A 
HETATM   19  C   UNK N   1      31.299  16.266   6.861  0.00  0.00     0.086 C 
HETATM   20 Cl   UNK N   1      36.158  15.284  10.458  0.00  0.00    -0.081 Cl
HETATM   21  N   UNK N   1      32.287  16.068   4.484  0.00  0.00     0.090 N 
ENDROOT
BRANCH  18  22
HETATM   22  O   UNK N   1      33.263  14.836  11.102  0.00  0.00    -0.359 OA
HETATM   23  H   UNK N   1      33.284  15.343  11.888  0.00  0.00     0.217 HD
ENDBRANCH  18  22
TORSDOF 1
ENDMDL
MODEL 3
REMARK VINA RESULT:      -7.7     22.562     25.578
REMARK  1 active torsions:
REMARK  status: ('A' for Active; 'I' for Inactive)
REMARK    1  A    between atoms: O_22  and  C_18 
ROOT
HETATM    1  C   UNK N   1      25.546  22.485  -6.719  0.00  0.00     0.310 C 
HETATM    2  C   UNK N   1      27.314  28.627  -4.050  0.00  0.00     0.001 A 
HETATM    3  C   UNK N   1      28.409  27.848  -3.668  0.00  0.00     0.001 A 
HETATM    4  C   UNK N   1      26.271  28.056  -4.782  0.00  0.00     0.007 A 
HETATM    5  C   UNK N   1      28.459  26.492  -4.010  0.00  0.00     0.008 A 
HETATM    6  C   UNK N   1      25.239  26.081  -5.932  0.00  0.00     0.041 C 
HETATM    7  C   UNK N   1      25.894  25.336  -7.100  0.00  0.00     0.041 C 
HETATM    8  C   UNK N   1      29.216  22.647  -6.915  0.00  0.00     0.069 C 
HETATM    9  C   UNK N   1      27.834  22.038  -7.058  0.00  0.00     0.277 C 
HETATM   10  C   UNK N   1      30.574  22.206  -4.911  0.00  0.00     0.034 A 
HETATM   11  C   UNK N   1      28.917  23.720  -3.267  0.00  0.00     0.046 A 
HETATM   12  C   UNK N   1      26.315  26.700  -5.113  0.00  0.00    -0.051 A 
HETATM   13  C   UNK N   1      29.469  22.862  -5.467  0.00  0.00    -0.048 A 
HETATM   14  C   UNK N   1      27.403  25.901  -4.727  0.00  0.00    -0.041 A 
HETATM   15  C   UNK N   1      28.618  23.651  -4.641  0.00  0.00    -0.038 A 
HETATM   16  C   UNK N   1      30.863  22.317  -3.552  0.00  0.00     0.067 A 
HETATM   17  C   UNK N   1      27.064  24.393  -6.684  0.00  0.00     0.235 C 
HETATM   18  C   UNK N   1      30.029  23.074  -2.726  0.00  0.00     0.087 A 
HETATM   19  C   UNK N   1      27.377  24.423  -5.137  0.00  0.00     0.086 C 
HETATM   20 Cl   UNK N   1      32.269  21.493  -2.900  0.00  0.00    -0.081 Cl
HETATM   21  N   UNK N   1      26.788  23.046  -7.241  0.00  0.00     0.090 N 
ENDROOT
BRANCH  18  22
HETATM   22  O   UNK N   1      30.294  23.192  -1.414  0.00  0.00    -0.359 OA
HETATM   23  H   UNK N   1      30.073  22.571  -0.749  0.00  0.00     0.217 HD
ENDBRANCH  18  22
TORSDOF 1
ENDMDL
MODEL 4
REMARK VINA RESULT:      -7.3     11.017     13.583
REMARK  1 active torsions:
REMARK  status: ('A' for Active; 'I' for Inactive)
REMARK    1  A    between atoms: O_22  and  C_18 
ROOT
HETATM    1  C   UNK N   1      30.663  13.581   3.415  0.00  0.00     0.310 C 
HETATM    2  C   UNK N   1      26.598  19.065   4.589  0.00  0.00     0.001 A 
HETATM    3  C   UNK N   1      27.743  19.427   5.303  0.00  0.00     0.001 A 
HETATM    4  C   UNK N   1      26.557  17.850   3.901  0.00  0.00     0.007 A 
HETATM    5  C   UNK N   1      28.848  18.570   5.337  0.00  0.00     0.008 A 
HETATM    6  C   UNK N   1      27.655  15.712   3.184  0.00  0.00     0.041 C 
HETATM    7  C   UNK N   1      28.938  15.651   2.349  0.00  0.00     0.041 C 
HETATM    8  C   UNK N   1      32.923  16.472   3.669  0.00  0.00     0.069 C 
HETATM    9  C   UNK N   1      32.529  15.016   3.510  0.00  0.00     0.277 C 
HETATM   10  C   UNK N   1      33.529  17.368   5.879  0.00  0.00     0.034 A 
HETATM   11  C   UNK N   1      30.923  17.192   6.836  0.00  0.00     0.046 A 
HETATM   12  C   UNK N   1      27.657  16.989   3.946  0.00  0.00    -0.051 A 
HETATM   13  C   UNK N   1      32.516  16.906   5.030  0.00  0.00    -0.048 A 
HETATM   14  C   UNK N   1      28.810  17.334   4.668  0.00  0.00    -0.041 A 
HETATM   15  C   UNK N   1      31.175  16.822   5.500  0.00  0.00    -0.038 A 
HETATM   16  C   UNK N   1      33.246  17.756   7.187  0.00  0.00     0.067 A 
HETATM   17  C   UNK N   1      30.239  15.967   3.148  0.00  0.00     0.235 C 
HETATM   18  C   UNK N   1      31.938  17.664   7.669  0.00  0.00     0.087 A 
HETATM   19  C   UNK N   1      29.975  16.335   4.660  0.00  0.00     0.086 C 
HETATM   20 Cl   UNK N   1      34.543  18.346   8.212  0.00  0.00    -0.081 Cl
HETATM   21  N   UNK N   1      31.193  14.852   2.933  0.00  0.00     0.090 N 
ENDROOT
BRANCH  18  22
HETATM   22  O   UNK N   1      31.646  18.035   8.927  0.00  0.00    -0.359 OA
HETATM   23  H   UNK N   1      31.807  18.876   9.305  0.00  0.00     0.217 HD
ENDBRANCH  18  22
TORSDOF 1
ENDMDL
MODEL 5
REMARK VINA RESULT:      -7.2     11.099     13.669
REMARK  1 active torsions:
REMARK  status: ('A' for Active; 'I' for Inactive)
REMARK    1  A    between atoms: O_22  and  C_18 
ROOT
HETATM    1  C   UNK N   1      31.549  16.771   3.436  0.00  0.00     0.310 C 
HETATM    2  C   UNK N   1      29.326  17.426   9.964  0.00  0.00     0.001 A 
HETATM    3  C   UNK N   1      28.226  17.923   9.259  0.00  0.00     0.001 A 
HETATM    4  C   UNK N   1      30.454  16.976   9.274  0.00  0.00     0.007 A 
HETATM    5  C   UNK N   1      28.256  17.977   7.862  0.00  0.00     0.008 A 
HETATM    6  C   UNK N   1      31.657  16.525   7.120  0.00  0.00     0.041 C 
HETATM    7  C   UNK N   1      31.143  15.567   6.041  0.00  0.00     0.041 C 
HETATM    8  C   UNK N   1      27.912  16.235   3.319  0.00  0.00     0.069 C 
HETATM    9  C   UNK N   1      29.320  16.386   2.777  0.00  0.00     0.277 C 
HETATM   10  C   UNK N   1      26.383  18.162   3.377  0.00  0.00     0.034 A 
HETATM   11  C   UNK N   1      27.821  19.438   5.387  0.00  0.00     0.046 A 
HETATM   12  C   UNK N   1      30.487  17.042   7.879  0.00  0.00    -0.051 A 
HETATM   13  C   UNK N   1      27.513  17.536   3.915  0.00  0.00    -0.048 A 
HETATM   14  C   UNK N   1      29.394  17.548   7.157  0.00  0.00    -0.041 A 
HETATM   15  C   UNK N   1      28.253  18.170   4.953  0.00  0.00    -0.038 A 
HETATM   16  C   UNK N   1      25.960  19.403   3.847  0.00  0.00     0.067 A 
HETATM   17  C   UNK N   1      29.971  16.136   5.184  0.00  0.00     0.235 C 
HETATM   18  C   UNK N   1      26.685  20.046   4.853  0.00  0.00     0.087 A 
HETATM   19  C   UNK N   1      29.510  17.579   5.628  0.00  0.00     0.086 C 
HETATM   20 Cl   UNK N   1      24.527  20.144   3.156  0.00  0.00    -0.081 Cl
HETATM   21  N   UNK N   1      30.344  16.011   3.754  0.00  0.00     0.090 N 
ENDROOT
BRANCH  18  22
HETATM   22  O   UNK N   1      26.292  21.244   5.318  0.00  0.00    -0.359 OA
HETATM   23  H   UNK N   1      25.765  21.395   6.078  0.00  0.00     0.217 HD
ENDBRANCH  18  22
TORSDOF 1
ENDMDL
MODEL 6
REMARK VINA RESULT:      -7.0     22.779     25.533
REMARK  1 active torsions:
REMARK  status: ('A' for Active; 'I' for Inactive)
REMARK    1  A    between atoms: O_22  and  C_18 
ROOT
HETATM    1  C   UNK N   1      27.567  22.434  -9.619  0.00  0.00     0.310 C 
HETATM    2  C   UNK N   1      31.584  20.200  -4.437  0.00  0.00     0.001 A 
HETATM    3  C   UNK N   1      30.854  21.202  -3.793  0.00  0.00     0.001 A 
HETATM    4  C   UNK N   1      31.356  19.927  -5.788  0.00  0.00     0.007 A 
HETATM    5  C   UNK N   1      29.898  21.938  -4.500  0.00  0.00     0.008 A 
HETATM    6  C   UNK N   1      30.115  20.367  -7.923  0.00  0.00     0.041 C 
HETATM    7  C   UNK N   1      28.599  20.209  -8.076  0.00  0.00     0.041 C 
HETATM    8  C   UNK N   1      25.562  22.812  -6.558  0.00  0.00     0.069 C 
HETATM    9  C   UNK N   1      25.889  22.911  -8.036  0.00  0.00     0.277 C 
HETATM   10  C   UNK N   1      25.953  24.727  -5.062  0.00  0.00     0.034 A 
HETATM   11  C   UNK N   1      28.719  24.493  -5.232  0.00  0.00     0.046 A 
HETATM   12  C   UNK N   1      30.410  20.671  -6.497  0.00  0.00    -0.051 A 
HETATM   13  C   UNK N   1      26.508  23.693  -5.825  0.00  0.00    -0.048 A 
HETATM   14  C   UNK N   1      29.675  21.688  -5.866  0.00  0.00    -0.041 A 
HETATM   15  C   UNK N   1      27.922  23.551  -5.912  0.00  0.00    -0.038 A 
HETATM   16  C   UNK N   1      26.766  25.626  -4.374  0.00  0.00     0.067 A 
HETATM   17  C   UNK N   1      27.766  21.363  -7.438  0.00  0.00     0.235 C 
HETATM   18  C   UNK N   1      28.155  25.511  -4.463  0.00  0.00     0.087 A 
HETATM   19  C   UNK N   1      28.651  22.452  -6.714  0.00  0.00     0.086 C 
HETATM   20 Cl   UNK N   1      26.027  26.896  -3.415  0.00  0.00    -0.081 Cl
HETATM   21  N   UNK N   1      26.845  21.892  -8.473  0.00  0.00     0.090 N 
ENDROOT
BRANCH  18  22
HETATM   22  O   UNK N   1      28.954  26.369  -3.806  0.00  0.00    -0.359 OA
HETATM   23  H   UNK N   1      28.918  26.566  -2.892  0.00  0.00     0.217 HD
ENDBRANCH  18  22
TORSDOF 1
ENDMDL
MODEL 7
REMARK VINA RESULT:      -6.9     10.312     13.414
REMARK  1 active torsions:
REMARK  status: ('A' for Active; 'I' for Inactive)
REMARK    1  A    between atoms: O_22  and  C_18 
ROOT
HETATM    1  C   UNK N   1      27.675  19.724   6.390  0.00  0.00     0.310 C 
HETATM    2  C   UNK N   1      29.538  14.293   2.514  0.00  0.00     0.001 A 
HETATM    3  C   UNK N   1      30.601  14.351   3.418  0.00  0.00     0.001 A 
HETATM    4  C   UNK N   1      28.495  15.218   2.602  0.00  0.00     0.007 A 
HETATM    5  C   UNK N   1      30.629  15.339   4.408  0.00  0.00     0.008 A 
HETATM    6  C   UNK N   1      27.408  17.180   3.725  0.00  0.00     0.041 C 
HETATM    7  C   UNK N   1      26.962  17.184   5.191  0.00  0.00     0.041 C 
HETATM    8  C   UNK N   1      29.463  17.440   8.653  0.00  0.00     0.069 C 
HETATM    9  C   UNK N   1      28.726  18.697   8.232  0.00  0.00     0.277 C 
HETATM   10  C   UNK N   1      31.922  17.368   8.634  0.00  0.00     0.034 A 
HETATM   11  C   UNK N   1      32.057  17.416   5.856  0.00  0.00     0.046 A 
HETATM   12  C   UNK N   1      28.529  16.213   3.583  0.00  0.00    -0.051 A 
HETATM   13  C   UNK N   1      30.737  17.384   7.890  0.00  0.00    -0.048 A 
HETATM   14  C   UNK N   1      29.596  16.290   4.491  0.00  0.00    -0.041 A 
HETATM   15  C   UNK N   1      30.788  17.396   6.468  0.00  0.00    -0.038 A 
HETATM   16  C   UNK N   1      33.164  17.357   8.003  0.00  0.00     0.067 A 
HETATM   17  C   UNK N   1      28.128  17.334   6.216  0.00  0.00     0.235 C 
HETATM   18  C   UNK N   1      33.232  17.385   6.608  0.00  0.00     0.087 A 
HETATM   19  C   UNK N   1      29.553  17.408   5.541  0.00  0.00     0.086 C 
HETATM   20 Cl   UNK N   1      34.625  17.319   8.974  0.00  0.00    -0.081 Cl
HETATM   21  N   UNK N   1      27.804  18.465   7.118  0.00  0.00     0.090 N 
ENDROOT
BRANCH  18  22
HETATM   22  O   UNK N   1      34.421  17.375   5.982  0.00  0.00    -0.359 OA
HETATM   23  H   UNK N   1      35.126  16.781   6.147  0.00  0.00     0.217 HD
ENDBRANCH  18  22
TORSDOF 1
ENDMDL
MODEL 8
REMARK VINA RESULT:      -6.9     13.524     16.085
REMARK  1 active torsions:
REMARK  status: ('A' for Active; 'I' for Inactive)
REMARK    1  A    between atoms: O_22  and  C_18 
ROOT
HETATM    1  C   UNK N   1      21.125  16.208   7.494  0.00  0.00     0.310 C 
HETATM    2  C   UNK N   1      24.047  10.521   4.830  0.00  0.00     0.001 A 
HETATM    3  C   UNK N   1      24.098  10.230   6.196  0.00  0.00     0.001 A 
HETATM    4  C   UNK N   1      23.491  11.725   4.392  0.00  0.00     0.007 A 
HETATM    5  C   UNK N   1      23.600  11.147   7.127  0.00  0.00     0.008 A 
HETATM    6  C   UNK N   1      22.365  13.913   4.880  0.00  0.00     0.041 C 
HETATM    7  C   UNK N   1      21.008  14.036   5.580  0.00  0.00     0.041 C 
HETATM    8  C   UNK N   1      20.180  13.449   9.736  0.00  0.00     0.069 C 
HETATM    9  C   UNK N   1      20.263  14.879   9.238  0.00  0.00     0.277 C 
HETATM   10  C   UNK N   1      21.789  12.610  11.398  0.00  0.00     0.034 A 
HETATM   11  C   UNK N   1      23.908  12.651   9.595  0.00  0.00     0.046 A 
HETATM   12  C   UNK N   1      23.005  12.646   5.324  0.00  0.00    -0.051 A 
HETATM   13  C   UNK N   1      21.557  13.007  10.075  0.00  0.00    -0.048 A 
HETATM   14  C   UNK N   1      23.058  12.372   6.700  0.00  0.00    -0.041 A 
HETATM   15  C   UNK N   1      22.628  13.022   9.137  0.00  0.00    -0.038 A 
HETATM   16  C   UNK N   1      23.060  12.220  11.816  0.00  0.00     0.067 A 
HETATM   17  C   UNK N   1      21.057  13.800   7.121  0.00  0.00     0.235 C 
HETATM   18  C   UNK N   1      24.124  12.244  10.912  0.00  0.00     0.087 A 
HETATM   19  C   UNK N   1      22.497  13.433   7.655  0.00  0.00     0.086 C 
HETATM   20 Cl   UNK N   1      23.302  11.712  13.478  0.00  0.00    -0.081 Cl
HETATM   21  N   UNK N   1      20.421  14.963   7.785  0.00  0.00     0.090 N 
ENDROOT
BRANCH  18  22
HETATM   22  O   UNK N   1      25.356  11.870  11.298  0.00  0.00    -0.359 OA
HETATM   23  H   UNK N   1      25.699  10.999  11.280  0.00  0.00     0.217 HD
ENDBRANCH  18  22
TORSDOF 1
ENDMDL
MODEL 9
REMARK VINA RESULT:      -6.8     22.560     25.243
REMARK  1 active torsions:
REMARK  status: ('A' for Active; 'I' for Inactive)
REMARK    1  A    between atoms: O_22  and  C_18 
ROOT
HETATM    1  C   UNK N   1      25.335  24.621  -5.167  0.00  0.00     0.310 C 
HETATM    2  C   UNK N   1      30.588  28.715  -3.263  0.00  0.00     0.001 A 
HETATM    3  C   UNK N   1      31.235  27.481  -3.357  0.00  0.00     0.001 A 
HETATM    4  C   UNK N   1      29.223  28.812  -3.542  0.00  0.00     0.007 A 
HETATM    5  C   UNK N   1      30.516  26.338  -3.722  0.00  0.00     0.008 A 
HETATM    6  C   UNK N   1      27.059  27.754  -4.241  0.00  0.00     0.041 C 
HETATM    7  C   UNK N   1      26.848  27.057  -5.589  0.00  0.00     0.041 C 
HETATM    8  C   UNK N   1      28.332  23.225  -6.778  0.00  0.00     0.069 C 
HETATM    9  C   UNK N   1      26.871  23.313  -6.383  0.00  0.00     0.277 C 
HETATM   10  C   UNK N   1      29.897  21.843  -5.475  0.00  0.00     0.034 A 
HETATM   11  C   UNK N   1      29.819  23.551  -3.280  0.00  0.00     0.046 A 
HETATM   12  C   UNK N   1      28.503  27.668  -3.894  0.00  0.00    -0.051 A 
HETATM   13  C   UNK N   1      29.124  23.009  -5.539  0.00  0.00    -0.048 A 
HETATM   14  C   UNK N   1      29.136  26.419  -3.983  0.00  0.00    -0.041 A 
HETATM   15  C   UNK N   1      29.083  23.900  -4.430  0.00  0.00    -0.038 A 
HETATM   16  C   UNK N   1      30.639  21.539  -4.335  0.00  0.00     0.067 A 
HETATM   17  C   UNK N   1      27.489  25.639  -5.685  0.00  0.00     0.235 C 
HETATM   18  C   UNK N   1      30.596  22.394  -3.232  0.00  0.00     0.087 A 
HETATM   19  C   UNK N   1      28.275  25.214  -4.383  0.00  0.00     0.086 C 
HETATM   20 Cl   UNK N   1      31.608  20.076  -4.304  0.00  0.00    -0.081 Cl
HETATM   21  N   UNK N   1      26.438  24.687  -6.119  0.00  0.00     0.090 N 
ENDROOT
BRANCH  18  22
HETATM   22  O   UNK N   1      31.306  22.116  -2.125  0.00  0.00    -0.359 OA
HETATM   23  H   UNK N   1      32.104  22.530  -1.863  0.00  0.00     0.217 HD
ENDBRANCH  18  22
TORSDOF 1
ENDMDL
