MODEL 1
REMARK VINA RESULT:      -6.9      0.000      0.000
REMARK  9 active torsions:
REMARK  status: ('A' for Active; 'I' for Inactive)
REMARK    1  A    between atoms: C_4  and  N_2 
REMARK    2  A    between atoms: C_10  and  C_31 
REMARK    3  A    between atoms: C_13  and  O_30 
REMARK    4  A    between atoms: C_18  and  O_29 
REMARK    5  A    between atoms: C_19  and  O_28 
REMARK    6  A    between atoms: C_22  and  C_25 
REMARK    7  A    between atoms: C_23  and  O_24 
REMARK       I    between atoms: C_25  and  N_27 
REMARK    8  A    between atoms: C_31  and  N_32 
REMARK    9  A    between atoms: N_32  and  O_34 
ROOT
HETATM    1  C   UNK N   1      30.092  17.273   7.858  0.00  0.00     0.286 C 
HETATM    2  C   UNK N   1      29.354  17.507   6.527  0.00  0.00     0.075 C 
HETATM    3  C   UNK N   1      27.918  17.144   6.808  0.00  0.00     0.021 C 
HETATM    4  C   UNK N   1      27.113  16.663   5.636  0.00  0.00     0.030 C 
HETATM    5  C   UNK N   1      26.397  15.452   6.106  0.00  0.00     0.050 C 
HETATM    6  C   UNK N   1      25.319  15.094   5.152  0.00  0.00    -0.033 A 
HETATM    7  C   UNK N   1      24.074  14.623   5.639  0.00  0.00    -0.035 A 
HETATM    8  C   UNK N   1      23.114  14.215   4.712  0.00  0.00     0.012 A 
HETATM    9  C   UNK N   1      23.369  14.268   3.339  0.00  0.00     0.038 A 
HETATM   10  C   UNK N   1      24.587  14.754   2.853  0.00  0.00     0.080 A 
HETATM   11  C   UNK N   1      25.576  15.192   3.754  0.00  0.00     0.055 A 
HETATM   12  C   UNK N   1      26.910  15.745   3.297  0.00  0.00     0.194 C 
HETATM   13  O   UNK N   1      27.270  15.655   2.132  0.00  0.00    -0.287 OA
HETATM   14  C   UNK N   1      27.815  16.296   4.354  0.00  0.00     0.030 C 
HETATM   15  C   UNK N   1      29.164  16.384   4.234  0.00  0.00     0.096 C 
HETATM   16  C   UNK N   1      29.996  16.567   5.500  0.00  0.00     0.177 C 
HETATM   17  C   UNK N   1      31.429  17.036   5.342  0.00  0.00     0.208 C 
HETATM   18  O   UNK N   1      31.907  17.237   4.237  0.00  0.00    -0.288 OA
HETATM   19  C   UNK N   1      32.258  17.198   6.595  0.00  0.00     0.112 C 
HETATM   20  C   UNK N   1      31.614  17.268   7.797  0.00  0.00     0.096 C 
ENDROOT
BRANCH   7  21
HETATM   21  C   UNK N   1      23.692  14.522   7.116  0.00  0.00     0.159 C 
BRANCH  21  22
HETATM   22  N   UNK N   1      23.928  13.226   7.755  0.00  0.00    -0.198 NA
HETATM   23  C   UNK N   1      22.818  12.966   8.661  0.00  0.00     0.144 C 
BRANCH  22  24
HETATM   24  O   UNK N   1      25.050  13.328   8.510  0.00  0.00    -0.309 OA
HETATM   25  C   UNK N   1      24.658  12.940   9.797  0.00  0.00     0.229 C 
ENDBRANCH  22  24
ENDBRANCH  21  22
ENDBRANCH   7  21
BRANCH  10  26
HETATM   26  O   UNK N   1      24.790  14.796   1.526  0.00  0.00    -0.360 OA
HETATM   27  H   UNK N   1      25.586  15.140   1.169  0.00  0.00     0.217 HD
ENDBRANCH  10  26
BRANCH  15  28
HETATM   28  O   UNK N   1      29.768  16.057   3.073  0.00  0.00    -0.361 OA
HETATM   29  H   UNK N   1      29.315  16.126   2.255  0.00  0.00     0.217 HD
ENDBRANCH  15  28
BRANCH   1  30
HETATM   30  N   UNK N   1      29.413  17.810   9.048  0.00  0.00     0.091 NA
HETATM   31  C   UNK N   1      29.986  19.055   9.533  0.00  0.00     0.310 C 
HETATM   32  C   UNK N   1      29.459  16.813  10.105  0.00  0.00     0.310 C 
ENDBRANCH   1  30
BRANCH  16  33
HETATM   33  O   UNK N   1      30.053  15.280   6.055  0.00  0.00    -0.374 OA
HETATM   34  H   UNK N   1      30.176  14.325   6.171  0.00  0.00     0.211 HD
ENDBRANCH  16  33
BRANCH  20  35
HETATM   35  O   UNK N   1      32.310  17.340   8.953  0.00  0.00    -0.362 OA
HETATM   36  H   UNK N   1      33.210  17.602   8.976  0.00  0.00     0.217 HD
ENDBRANCH  20  35
BRANCH  19  37
HETATM   37  C   UNK N   1      33.754  17.270   6.508  0.00  0.00     0.255 C 
HETATM   38  O   UNK N   1      34.360  18.218   6.992  0.00  0.00    -0.268 OA
HETATM   39  N   UNK N   1      34.455  16.293   5.905  0.00  0.00    -0.366 N 
HETATM   40  H   UNK N   1      35.397  16.442   5.661  0.00  0.00     0.159 HD
HETATM   41  H   UNK N   1      34.025  15.429   5.709  0.00  0.00     0.159 HD
ENDBRANCH  19  37
TORSDOF 9
ENDMDL
MODEL 2
REMARK VINA RESULT:      -6.8     13.035     15.514
REMARK  9 active torsions:
REMARK  status: ('A' for Active; 'I' for Inactive)
REMARK    1  A    between atoms: C_4  and  N_2 
REMARK    2  A    between atoms: C_10  and  C_31 
REMARK    3  A    between atoms: C_13  and  O_30 
REMARK    4  A    between atoms: C_18  and  O_29 
REMARK    5  A    between atoms: C_19  and  O_28 
REMARK    6  A    between atoms: C_22  and  C_25 
REMARK    7  A    between atoms: C_23  and  O_24 
REMARK       I    between atoms: C_25  and  N_27 
REMARK    8  A    between atoms: C_31  and  N_32 
REMARK    9  A    between atoms: N_32  and  O_34 
ROOT
HETATM    1  C   UNK N   1      30.745  20.469  -7.413  0.00  0.00     0.286 C 
HETATM    2  C   UNK N   1      29.740  20.957  -6.354  0.00  0.00     0.075 C 
HETATM    3  C   UNK N   1      28.693  21.714  -7.131  0.00  0.00     0.021 C 
HETATM    4  C   UNK N   1      27.972  22.803  -6.391  0.00  0.00     0.030 C 
HETATM    5  C   UNK N   1      27.966  23.975  -7.299  0.00  0.00     0.050 C 
HETATM    6  C   UNK N   1      26.993  24.987  -6.818  0.00  0.00    -0.033 A 
HETATM    7  C   UNK N   1      26.201  25.702  -7.750  0.00  0.00    -0.035 A 
HETATM    8  C   UNK N   1      25.359  26.706  -7.269  0.00  0.00     0.012 A 
HETATM    9  C   UNK N   1      25.297  27.002  -5.905  0.00  0.00     0.038 A 
HETATM   10  C   UNK N   1      26.060  26.283  -4.978  0.00  0.00     0.080 A 
HETATM   11  C   UNK N   1      26.908  25.250  -5.420  0.00  0.00     0.055 A 
HETATM   12  C   UNK N   1      27.749  24.422  -4.472  0.00  0.00     0.194 C 
HETATM   13  O   UNK N   1      27.882  24.739  -3.298  0.00  0.00    -0.287 OA
HETATM   14  C   UNK N   1      28.504  23.272  -5.061  0.00  0.00     0.030 C 
HETATM   15  C   UNK N   1      29.627  22.738  -4.518  0.00  0.00     0.096 C 
HETATM   16  C   UNK N   1      30.520  21.870  -5.399  0.00  0.00     0.177 C 
HETATM   17  C   UNK N   1      31.541  20.983  -4.716  0.00  0.00     0.208 C 
HETATM   18  O   UNK N   1      31.662  20.982  -3.501  0.00  0.00    -0.288 OA
HETATM   19  C   UNK N   1      32.438  20.138  -5.591  0.00  0.00     0.112 C 
HETATM   20  C   UNK N   1      32.072  19.932  -6.891  0.00  0.00     0.096 C 
ENDROOT
BRANCH   7  21
HETATM   21  C   UNK N   1      26.192  25.462  -9.260  0.00  0.00     0.159 C 
BRANCH  21  22
HETATM   22  N   UNK N   1      25.277  24.425  -9.741  0.00  0.00    -0.198 NA
HETATM   23  C   UNK N   1      26.051  23.477 -10.531  0.00  0.00     0.144 C 
BRANCH  22  24
HETATM   24  O   UNK N   1      24.380  25.008 -10.575  0.00  0.00    -0.309 OA
HETATM   25  C   UNK N   1      25.116  25.959 -11.291  0.00  0.00     0.229 C 
ENDBRANCH  22  24
ENDBRANCH  21  22
ENDBRANCH   7  21
BRANCH  10  26
HETATM   26  O   UNK N   1      25.966  26.593  -3.675  0.00  0.00    -0.360 OA
HETATM   27  H   UNK N   1      25.597  27.410  -3.397  0.00  0.00     0.217 HD
ENDBRANCH  10  26
BRANCH  15  28
HETATM   28  O   UNK N   1      30.078  23.170  -3.322  0.00  0.00    -0.361 OA
HETATM   29  H   UNK N   1      29.842  24.015  -2.992  0.00  0.00     0.217 HD
ENDBRANCH  15  28
BRANCH   1  30
HETATM   30  N   UNK N   1      30.141  19.871  -8.615  0.00  0.00     0.091 NA
HETATM   31  C   UNK N   1      30.037  18.422  -8.554  0.00  0.00     0.310 C 
HETATM   32  C   UNK N   1      30.931  20.250  -9.775  0.00  0.00     0.310 C 
ENDBRANCH   1  30
BRANCH  16  33
HETATM   33  O   UNK N   1      31.240  22.797  -6.166  0.00  0.00    -0.374 OA
HETATM   34  H   UNK N   1      31.958  23.270  -6.615  0.00  0.00     0.211 HD
ENDBRANCH  16  33
BRANCH  20  35
HETATM   35  O   UNK N   1      32.873  19.246  -7.735  0.00  0.00    -0.362 OA
HETATM   36  H   UNK N   1      33.205  18.396  -7.525  0.00  0.00     0.217 HD
ENDBRANCH  20  35
BRANCH  19  37
HETATM   37  C   UNK N   1      33.703  19.553  -5.036  0.00  0.00     0.255 C 
HETATM   38  O   UNK N   1      34.784  19.807  -5.554  0.00  0.00    -0.268 OA
HETATM   39  N   UNK N   1      33.673  18.748  -3.960  0.00  0.00    -0.366 N 
HETATM   40  H   UNK N   1      34.460  18.201  -3.732  0.00  0.00     0.159 HD
HETATM   41  H   UNK N   1      32.865  18.705  -3.399  0.00  0.00     0.159 HD
ENDBRANCH  19  37
TORSDOF 9
ENDMDL
MODEL 3
REMARK VINA RESULT:      -6.8     12.406     14.376
REMARK  9 active torsions:
REMARK  status: ('A' for Active; 'I' for Inactive)
REMARK    1  A    between atoms: C_4  and  N_2 
REMARK    2  A    between atoms: C_10  and  C_31 
REMARK    3  A    between atoms: C_13  and  O_30 
REMARK    4  A    between atoms: C_18  and  O_29 
REMARK    5  A    between atoms: C_19  and  O_28 
REMARK    6  A    between atoms: C_22  and  C_25 
REMARK    7  A    between atoms: C_23  and  O_24 
REMARK       I    between atoms: C_25  and  N_27 
REMARK    8  A    between atoms: C_31  and  N_32 
REMARK    9  A    between atoms: N_32  and  O_34 
ROOT
HETATM    1  C   UNK N   1      32.995  20.442  -6.884  0.00  0.00     0.286 C 
HETATM    2  C   UNK N   1      31.941  20.473  -5.761  0.00  0.00     0.075 C 
HETATM    3  C   UNK N   1      30.692  21.006  -6.414  0.00  0.00     0.021 C 
HETATM    4  C   UNK N   1      29.731  21.732  -5.519  0.00  0.00     0.030 C 
HETATM    5  C   UNK N   1      29.358  22.971  -6.244  0.00  0.00     0.050 C 
HETATM    6  C   UNK N   1      28.165  23.591  -5.617  0.00  0.00    -0.033 A 
HETATM    7  C   UNK N   1      27.164  24.177  -6.430  0.00  0.00    -0.035 A 
HETATM    8  C   UNK N   1      26.099  24.825  -5.803  0.00  0.00     0.012 A 
HETATM    9  C   UNK N   1      26.018  24.897  -4.410  0.00  0.00     0.038 A 
HETATM   10  C   UNK N   1      26.991  24.299  -3.603  0.00  0.00     0.080 A 
HETATM   11  C   UNK N   1      28.072  23.620  -4.195  0.00  0.00     0.055 A 
HETATM   12  C   UNK N   1      29.152  22.936  -3.382  0.00  0.00     0.194 C 
HETATM   13  O   UNK N   1      29.243  23.109  -2.175  0.00  0.00    -0.287 OA
HETATM   14  C   UNK N   1      30.170  22.140  -4.136  0.00  0.00     0.030 C 
HETATM   15  C   UNK N   1      31.420  21.873  -3.681  0.00  0.00     0.096 C 
HETATM   16  C   UNK N   1      32.478  21.425  -4.684  0.00  0.00     0.177 C 
HETATM   17  C   UNK N   1      33.736  20.774  -4.142  0.00  0.00     0.208 C 
HETATM   18  O   UNK N   1      33.906  20.637  -2.941  0.00  0.00    -0.288 OA
HETATM   19  C   UNK N   1      34.792  20.348  -5.135  0.00  0.00     0.112 C 
HETATM   20  C   UNK N   1      34.440  20.233  -6.450  0.00  0.00     0.096 C 
ENDROOT
BRANCH   7  21
HETATM   21  C   UNK N   1      27.155  24.159  -7.959  0.00  0.00     0.159 C 
BRANCH  21  22
HETATM   22  N   UNK N   1      26.690  22.919  -8.585  0.00  0.00    -0.198 NA
HETATM   23  C   UNK N   1      26.952  23.014 -10.014  0.00  0.00     0.144 C 
BRANCH  22  24
HETATM   24  O   UNK N   1      25.346  22.846  -8.425  0.00  0.00    -0.309 OA
HETATM   25  C   UNK N   1      25.091  21.508  -8.103  0.00  0.00     0.229 C 
ENDBRANCH  22  24
ENDBRANCH  21  22
ENDBRANCH   7  21
BRANCH  10  26
HETATM   26  O   UNK N   1      26.872  24.383  -2.267  0.00  0.00    -0.360 OA
HETATM   27  H   UNK N   1      27.491  24.868  -1.756  0.00  0.00     0.217 HD
ENDBRANCH  10  26
BRANCH  15  28
HETATM   28  O   UNK N   1      31.786  22.242  -2.436  0.00  0.00    -0.361 OA
HETATM   29  H   UNK N   1      32.430  22.909  -2.299  0.00  0.00     0.217 HD
ENDBRANCH  15  28
BRANCH   1  30
HETATM   30  N   UNK N   1      32.528  19.873  -8.158  0.00  0.00     0.091 NA
HETATM   31  C   UNK N   1      33.028  18.532  -8.416  0.00  0.00     0.310 C 
HETATM   32  C   UNK N   1      32.931  20.755  -9.241  0.00  0.00     0.310 C 
ENDBRANCH   1  30
BRANCH  16  33
HETATM   33  O   UNK N   1      32.878  22.616  -5.308  0.00  0.00    -0.374 OA
HETATM   34  H   UNK N   1      32.883  23.514  -5.674  0.00  0.00     0.211 HD
ENDBRANCH  16  33
BRANCH  20  35
HETATM   35  O   UNK N   1      35.362  19.926  -7.389  0.00  0.00    -0.362 OA
HETATM   36  H   UNK N   1      35.865  19.136  -7.353  0.00  0.00     0.217 HD
ENDBRANCH  20  35
BRANCH  19  37
HETATM   37  C   UNK N   1      36.193  20.071  -4.677  0.00  0.00     0.255 C 
HETATM   38  O   UNK N   1      36.736  19.007  -4.947  0.00  0.00    -0.268 OA
HETATM   39  N   UNK N   1      36.879  20.987  -3.971  0.00  0.00    -0.366 N 
HETATM   40  H   UNK N   1      37.700  20.727  -3.493  0.00  0.00     0.159 HD
HETATM   41  H   UNK N   1      36.560  21.918  -3.931  0.00  0.00     0.159 HD
ENDBRANCH  19  37
TORSDOF 9
ENDMDL
MODEL 4
REMARK VINA RESULT:      -6.8      4.408     10.439
REMARK  9 active torsions:
REMARK  status: ('A' for Active; 'I' for Inactive)
REMARK    1  A    between atoms: C_4  and  N_2 
REMARK    2  A    between atoms: C_10  and  C_31 
REMARK    3  A    between atoms: C_13  and  O_30 
REMARK    4  A    between atoms: C_18  and  O_29 
REMARK    5  A    between atoms: C_19  and  O_28 
REMARK    6  A    between atoms: C_22  and  C_25 
REMARK    7  A    between atoms: C_23  and  O_24 
REMARK       I    between atoms: C_25  and  N_27 
REMARK    8  A    between atoms: C_31  and  N_32 
REMARK    9  A    between atoms: N_32  and  O_34 
ROOT
HETATM    1  C   UNK N   1      32.309  16.276   5.706  0.00  0.00     0.286 C 
HETATM    2  C   UNK N   1      33.003  16.514   7.060  0.00  0.00     0.075 C 
HETATM    3  C   UNK N   1      34.399  15.975   6.883  0.00  0.00     0.021 C 
HETATM    4  C   UNK N   1      35.085  15.485   8.124  0.00  0.00     0.030 C 
HETATM    5  C   UNK N   1      35.679  14.172   7.769  0.00  0.00     0.050 C 
HETATM    6  C   UNK N   1      36.661  13.760   8.802  0.00  0.00    -0.033 A 
HETATM    7  C   UNK N   1      37.865  13.121   8.415  0.00  0.00    -0.035 A 
HETATM    8  C   UNK N   1      38.725  12.671   9.418  0.00  0.00     0.012 A 
HETATM    9  C   UNK N   1      38.410  12.843  10.769  0.00  0.00     0.038 A 
HETATM   10  C   UNK N   1      37.234  13.493  11.155  0.00  0.00     0.080 A 
HETATM   11  C   UNK N   1      36.348  13.979  10.175  0.00  0.00     0.055 A 
HETATM   12  C   UNK N   1      35.066  14.707  10.522  0.00  0.00     0.194 C 
HETATM   13  O   UNK N   1      34.641  14.735  11.668  0.00  0.00    -0.287 OA
HETATM   14  C   UNK N   1      34.283  15.285   9.385  0.00  0.00     0.030 C 
HETATM   15  C   UNK N   1      32.949  15.530   9.423  0.00  0.00     0.096 C 
HETATM   16  C   UNK N   1      32.207  15.721   8.104  0.00  0.00     0.177 C 
HETATM   17  C   UNK N   1      30.832  16.357   8.152  0.00  0.00     0.208 C 
HETATM   18  O   UNK N   1      30.326  16.683   9.214  0.00  0.00    -0.288 OA
HETATM   19  C   UNK N   1      30.090  16.528   6.847  0.00  0.00     0.112 C 
HETATM   20  C   UNK N   1      30.796  16.446   5.681  0.00  0.00     0.096 C 
ENDROOT
BRANCH   7  21
HETATM   21  C   UNK N   1      38.305  12.881   6.971  0.00  0.00     0.159 C 
BRANCH  21  22
HETATM   22  N   UNK N   1      39.207  13.883   6.399  0.00  0.00    -0.198 NA
HETATM   23  C   UNK N   1      38.535  14.487   5.257  0.00  0.00     0.144 C 
BRANCH  22  24
HETATM   24  O   UNK N   1      40.304  13.240   5.928  0.00  0.00    -0.309 OA
HETATM   25  C   UNK N   1      41.389  14.017   6.351  0.00  0.00     0.229 C 
ENDBRANCH  22  24
ENDBRANCH  21  22
ENDBRANCH   7  21
BRANCH  10  26
HETATM   26  O   UNK N   1      36.972  13.646  12.464  0.00  0.00    -0.360 OA
HETATM   27  H   UNK N   1      36.111  13.498  12.805  0.00  0.00     0.217 HD
ENDBRANCH  10  26
BRANCH  15  28
HETATM   28  O   UNK N   1      32.255  15.351  10.566  0.00  0.00    -0.361 OA
HETATM   29  H   UNK N   1      31.333  15.514  10.603  0.00  0.00     0.217 HD
ENDBRANCH  15  28
BRANCH   1  30
HETATM   30  N   UNK N   1      33.103  16.654   4.526  0.00  0.00     0.091 NA
HETATM   31  C   UNK N   1      32.636  17.867   3.873  0.00  0.00     0.310 C 
HETATM   32  C   UNK N   1      33.082  15.555   3.574  0.00  0.00     0.310 C 
ENDBRANCH   1  30
BRANCH  16  33
HETATM   33  O   UNK N   1      32.030  14.415   7.625  0.00  0.00    -0.374 OA
HETATM   34  H   UNK N   1      31.917  13.453   7.576  0.00  0.00     0.211 HD
ENDBRANCH  16  33
BRANCH  20  35
HETATM   35  O   UNK N   1      30.170  16.519   4.486  0.00  0.00    -0.362 OA
HETATM   36  H   UNK N   1      29.527  17.175   4.300  0.00  0.00     0.217 HD
ENDBRANCH  20  35
BRANCH  19  37
HETATM   37  C   UNK N   1      28.609  16.773   6.845  0.00  0.00     0.255 C 
HETATM   38  O   UNK N   1      27.856  16.020   6.240  0.00  0.00    -0.268 OA
HETATM   39  N   UNK N   1      28.084  17.815   7.513  0.00  0.00    -0.366 N 
HETATM   40  H   UNK N   1      27.157  18.096   7.337  0.00  0.00     0.159 HD
HETATM   41  H   UNK N   1      28.627  18.298   8.178  0.00  0.00     0.159 HD
ENDBRANCH  19  37
TORSDOF 9
ENDMDL
MODEL 5
REMARK VINA RESULT:      -6.7      5.427      8.880
REMARK  9 active torsions:
REMARK  status: ('A' for Active; 'I' for Inactive)
REMARK    1  A    between atoms: C_4  and  N_2 
REMARK    2  A    between atoms: C_10  and  C_31 
REMARK    3  A    between atoms: C_13  and  O_30 
REMARK    4  A    between atoms: C_18  and  O_29 
REMARK    5  A    between atoms: C_19  and  O_28 
REMARK    6  A    between atoms: C_22  and  C_25 
REMARK    7  A    between atoms: C_23  and  O_24 
REMARK       I    between atoms: C_25  and  N_27 
REMARK    8  A    between atoms: C_31  and  N_32 
REMARK    9  A    between atoms: N_32  and  O_34 
ROOT
HETATM    1  C   UNK N   1      36.452  12.215   9.016  0.00  0.00     0.286 C 
HETATM    2  C   UNK N   1      34.956  12.578   9.060  0.00  0.00     0.075 C 
HETATM    3  C   UNK N   1      34.608  12.968   7.646  0.00  0.00     0.021 C 
HETATM    4  C   UNK N   1      33.474  13.938   7.484  0.00  0.00     0.030 C 
HETATM    5  C   UNK N   1      33.948  14.959   6.518  0.00  0.00     0.050 C 
HETATM    6  C   UNK N   1      32.805  15.764   6.024  0.00  0.00    -0.033 A 
HETATM    7  C   UNK N   1      32.753  16.156   4.664  0.00  0.00    -0.035 A 
HETATM    8  C   UNK N   1      31.707  16.985   4.254  0.00  0.00     0.012 A 
HETATM    9  C   UNK N   1      30.735  17.419   5.159  0.00  0.00     0.038 A 
HETATM   10  C   UNK N   1      30.769  17.016   6.498  0.00  0.00     0.080 A 
HETATM   11  C   UNK N   1      31.796  16.166   6.948  0.00  0.00     0.055 A 
HETATM   12  C   UNK N   1      31.885  15.678   8.379  0.00  0.00     0.194 C 
HETATM   13  O   UNK N   1      31.181  16.155   9.257  0.00  0.00    -0.287 OA
HETATM   14  C   UNK N   1      32.951  14.675   8.690  0.00  0.00     0.030 C 
HETATM   15  C   UNK N   1      33.487  14.489   9.923  0.00  0.00     0.096 C 
HETATM   16  C   UNK N   1      34.820  13.755  10.033  0.00  0.00     0.177 C 
HETATM   17  C   UNK N   1      35.224  13.222  11.393  0.00  0.00     0.208 C 
HETATM   18  O   UNK N   1      34.515  13.395  12.373  0.00  0.00    -0.288 OA
HETATM   19  C   UNK N   1      36.553  12.512  11.505  0.00  0.00     0.112 C 
HETATM   20  C   UNK N   1      37.154  12.072  10.360  0.00  0.00     0.096 C 
ENDROOT
BRANCH   7  21
HETATM   21  C   UNK N   1      33.763  15.741   3.593  0.00  0.00     0.159 C 
BRANCH  21  22
HETATM   22  N   UNK N   1      33.230  14.957   2.477  0.00  0.00    -0.198 NA
HETATM   23  C   UNK N   1      32.827  13.658   2.996  0.00  0.00     0.144 C 
BRANCH  22  24
HETATM   24  O   UNK N   1      34.238  14.743   1.594  0.00  0.00    -0.309 OA
HETATM   25  C   UNK N   1      34.723  13.466   1.899  0.00  0.00     0.229 C 
ENDBRANCH  22  24
ENDBRANCH  21  22
ENDBRANCH   7  21
BRANCH  10  26
HETATM   26  O   UNK N   1      29.811  17.450   7.334  0.00  0.00    -0.360 OA
HETATM   27  H   UNK N   1      29.502  16.911   8.037  0.00  0.00     0.217 HD
ENDBRANCH  10  26
BRANCH  15  28
HETATM   28  O   UNK N   1      32.995  15.155  10.988  0.00  0.00    -0.361 OA
HETATM   29  H   UNK N   1      32.880  16.085  10.966  0.00  0.00     0.217 HD
ENDBRANCH  15  28
BRANCH   1  30
HETATM   30  N   UNK N   1      36.850  11.352   7.892  0.00  0.00     0.091 NA
HETATM   31  C   UNK N   1      36.918   9.941   8.237  0.00  0.00     0.310 C 
HETATM   32  C   UNK N   1      38.144  11.792   7.399  0.00  0.00     0.310 C 
ENDBRANCH   1  30
BRANCH  16  33
HETATM   33  O   UNK N   1      35.769  14.727   9.684  0.00  0.00    -0.374 OA
HETATM   34  H   UNK N   1      36.277  15.393   9.196  0.00  0.00     0.211 HD
ENDBRANCH  16  33
BRANCH  20  35
HETATM   35  O   UNK N   1      38.376  11.497  10.397  0.00  0.00    -0.362 OA
HETATM   36  H   UNK N   1      38.930  11.457   9.643  0.00  0.00     0.217 HD
ENDBRANCH  20  35
BRANCH  19  37
HETATM   37  C   UNK N   1      37.193  12.311  12.847  0.00  0.00     0.255 C 
HETATM   38  O   UNK N   1      37.771  11.264  13.109  0.00  0.00    -0.268 OA
HETATM   39  N   UNK N   1      37.149  13.279  13.781  0.00  0.00    -0.366 N 
HETATM   40  H   UNK N   1      37.373  13.070  14.716  0.00  0.00     0.159 HD
HETATM   41  H   UNK N   1      36.893  14.195  13.528  0.00  0.00     0.159 HD
ENDBRANCH  19  37
TORSDOF 9
ENDMDL
MODEL 6
REMARK VINA RESULT:      -6.7      6.195      9.770
REMARK  9 active torsions:
REMARK  status: ('A' for Active; 'I' for Inactive)
REMARK    1  A    between atoms: C_4  and  N_2 
REMARK    2  A    between atoms: C_10  and  C_31 
REMARK    3  A    between atoms: C_13  and  O_30 
REMARK    4  A    between atoms: C_18  and  O_29 
REMARK    5  A    between atoms: C_19  and  O_28 
REMARK    6  A    between atoms: C_22  and  C_25 
REMARK    7  A    between atoms: C_23  and  O_24 
REMARK       I    between atoms: C_25  and  N_27 
REMARK    8  A    between atoms: C_31  and  N_32 
REMARK    9  A    between atoms: N_32  and  O_34 
ROOT
HETATM    1  C   UNK N   1      33.487  13.688   5.411  0.00  0.00     0.286 C 
HETATM    2  C   UNK N   1      34.562  14.266   6.350  0.00  0.00     0.075 C 
HETATM    3  C   UNK N   1      34.784  13.198   7.391  0.00  0.00     0.021 C 
HETATM    4  C   UNK N   1      35.254  13.669   8.736  0.00  0.00     0.030 C 
HETATM    5  C   UNK N   1      34.409  12.965   9.731  0.00  0.00     0.050 C 
HETATM    6  C   UNK N   1      35.004  13.087  11.085  0.00  0.00    -0.033 A 
HETATM    7  C   UNK N   1      34.969  11.984  11.973  0.00  0.00    -0.035 A 
HETATM    8  C   UNK N   1      35.462  12.162  13.267  0.00  0.00     0.012 A 
HETATM    9  C   UNK N   1      35.975  13.394  13.680  0.00  0.00     0.038 A 
HETATM   10  C   UNK N   1      36.033  14.479  12.799  0.00  0.00     0.080 A 
HETATM   11  C   UNK N   1      35.564  14.337  11.480  0.00  0.00     0.055 A 
HETATM   12  C   UNK N   1      35.611  15.464  10.470  0.00  0.00     0.194 C 
HETATM   13  O   UNK N   1      35.877  16.609  10.807  0.00  0.00    -0.287 OA
HETATM   14  C   UNK N   1      35.201  15.139   9.068  0.00  0.00     0.030 C 
HETATM   15  C   UNK N   1      34.730  16.049   8.179  0.00  0.00     0.096 C 
HETATM   16  C   UNK N   1      33.972  15.546   6.954  0.00  0.00     0.177 C 
HETATM   17  C   UNK N   1      33.783  16.505   5.796  0.00  0.00     0.208 C 
HETATM   18  O   UNK N   1      34.202  17.651   5.853  0.00  0.00    -0.288 OA
HETATM   19  C   UNK N   1      33.016  16.012   4.592  0.00  0.00     0.112 C 
HETATM   20  C   UNK N   1      32.841  14.666   4.437  0.00  0.00     0.096 C 
ENDROOT
BRANCH   7  21
HETATM   21  C   UNK N   1      34.429  10.596  11.626  0.00  0.00     0.159 C 
BRANCH  21  22
HETATM   22  N   UNK N   1      35.385   9.491  11.726  0.00  0.00    -0.198 NA
HETATM   23  C   UNK N   1      36.245   9.537  10.552  0.00  0.00     0.144 C 
BRANCH  22  24
HETATM   24  O   UNK N   1      34.690   8.328  11.671  0.00  0.00    -0.309 OA
HETATM   25  C   UNK N   1      33.638   8.575  10.781  0.00  0.00     0.229 C 
ENDBRANCH  22  24
ENDBRANCH  21  22
ENDBRANCH   7  21
BRANCH  10  26
HETATM   26  O   UNK N   1      36.542  15.645  13.233  0.00  0.00    -0.360 OA
HETATM   27  H   UNK N   1      36.228  16.046  14.020  0.00  0.00     0.217 HD
ENDBRANCH  10  26
BRANCH  15  28
HETATM   28  O   UNK N   1      34.700  17.360   8.497  0.00  0.00    -0.361 OA
HETATM   29  H   UNK N   1      34.718  17.642   9.391  0.00  0.00     0.217 HD
ENDBRANCH  15  28
BRANCH   1  30
HETATM   30  N   UNK N   1      33.704  12.291   5.003  0.00  0.00     0.091 NA
HETATM   31  C   UNK N   1      34.344  12.157   3.704  0.00  0.00     0.310 C 
HETATM   32  C   UNK N   1      32.423  11.604   4.983  0.00  0.00     0.310 C 
ENDBRANCH   1  30
BRANCH  16  33
HETATM   33  O   UNK N   1      32.692  15.252   7.448  0.00  0.00    -0.374 OA
HETATM   34  H   UNK N   1      31.963  14.920   7.994  0.00  0.00     0.211 HD
ENDBRANCH  16  33
BRANCH  20  35
HETATM   35  O   UNK N   1      32.102  14.176   3.419  0.00  0.00    -0.362 OA
HETATM   36  H   UNK N   1      31.403  14.665   3.031  0.00  0.00     0.217 HD
ENDBRANCH  20  35
BRANCH  19  37
HETATM   37  C   UNK N   1      32.453  16.988   3.601  0.00  0.00     0.255 C 
HETATM   38  O   UNK N   1      32.682  16.860   2.405  0.00  0.00    -0.268 OA
HETATM   39  N   UNK N   1      31.684  18.014   4.007  0.00  0.00    -0.366 N 
HETATM   40  H   UNK N   1      31.499  18.763   3.396  0.00  0.00     0.159 HD
HETATM   41  H   UNK N   1      31.306  18.015   4.917  0.00  0.00     0.159 HD
ENDBRANCH  19  37
TORSDOF 9
ENDMDL
MODEL 7
REMARK VINA RESULT:      -6.5     12.881     15.882
REMARK  9 active torsions:
REMARK  status: ('A' for Active; 'I' for Inactive)
REMARK    1  A    between atoms: C_4  and  N_2 
REMARK    2  A    between atoms: C_10  and  C_31 
REMARK    3  A    between atoms: C_13  and  O_30 
REMARK    4  A    between atoms: C_18  and  O_29 
REMARK    5  A    between atoms: C_19  and  O_28 
REMARK    6  A    between atoms: C_22  and  C_25 
REMARK    7  A    between atoms: C_23  and  O_24 
REMARK       I    between atoms: C_25  and  N_27 
REMARK    8  A    between atoms: C_31  and  N_32 
REMARK    9  A    between atoms: N_32  and  O_34 
ROOT
HETATM    1  C   UNK N   1      28.189  25.657  -7.232  0.00  0.00     0.286 C 
HETATM    2  C   UNK N   1      29.241  25.524  -6.115  0.00  0.00     0.075 C 
HETATM    3  C   UNK N   1      30.252  24.541  -6.648  0.00  0.00     0.021 C 
HETATM    4  C   UNK N   1      31.005  23.741  -5.625  0.00  0.00     0.030 C 
HETATM    5  C   UNK N   1      30.970  22.337  -6.103  0.00  0.00     0.050 C 
HETATM    6  C   UNK N   1      31.963  21.521  -5.361  0.00  0.00    -0.033 A 
HETATM    7  C   UNK N   1      32.712  20.531  -6.043  0.00  0.00    -0.035 A 
HETATM    8  C   UNK N   1      33.575  19.725  -5.298  0.00  0.00     0.012 A 
HETATM    9  C   UNK N   1      33.697  19.886  -3.915  0.00  0.00     0.038 A 
HETATM   10  C   UNK N   1      32.977  20.878  -3.241  0.00  0.00     0.080 A 
HETATM   11  C   UNK N   1      32.110  21.724  -3.958  0.00  0.00     0.055 A 
HETATM   12  C   UNK N   1      31.313  22.828  -3.295  0.00  0.00     0.194 C 
HETATM   13  O   UNK N   1      31.232  22.911  -2.078  0.00  0.00    -0.287 OA
HETATM   14  C   UNK N   1      30.532  23.736  -4.194  0.00  0.00     0.030 C 
HETATM   15  C   UNK N   1      29.435  24.434  -3.806  0.00  0.00     0.096 C 
HETATM   16  C   UNK N   1      28.504  24.982  -4.884  0.00  0.00     0.177 C 
HETATM   17  C   UNK N   1      27.514  26.058  -4.483  0.00  0.00     0.208 C 
HETATM   18  O   UNK N   1      27.448  26.454  -3.330  0.00  0.00    -0.288 OA
HETATM   19  C   UNK N   1      26.580  26.586  -5.546  0.00  0.00     0.112 C 
HETATM   20  C   UNK N   1      26.887  26.354  -6.857  0.00  0.00     0.096 C 
ENDROOT
BRANCH   7  21
HETATM   21  C   UNK N   1      32.654  20.269  -7.548  0.00  0.00     0.159 C 
BRANCH  21  22
HETATM   22  N   UNK N   1      31.764  19.189  -7.979  0.00  0.00    -0.198 NA
HETATM   23  C   UNK N   1      32.382  18.530  -9.121  0.00  0.00     0.144 C 
BRANCH  22  24
HETATM   24  O   UNK N   1      30.606  19.745  -8.412  0.00  0.00    -0.309 OA
HETATM   25  C   UNK N   1      29.593  18.974  -7.831  0.00  0.00     0.229 C 
ENDBRANCH  22  24
ENDBRANCH  21  22
ENDBRANCH   7  21
BRANCH  10  26
HETATM   26  O   UNK N   1      33.129  21.006  -1.913  0.00  0.00    -0.360 OA
HETATM   27  H   UNK N   1      33.126  20.255  -1.351  0.00  0.00     0.217 HD
ENDBRANCH  10  26
BRANCH  15  28
HETATM   28  O   UNK N   1      29.037  24.419  -2.517  0.00  0.00    -0.361 OA
HETATM   29  H   UNK N   1      28.130  24.360  -2.292  0.00  0.00     0.217 HD
ENDBRANCH  15  28
BRANCH   1  30
HETATM   30  N   UNK N   1      28.739  25.824  -8.587  0.00  0.00     0.091 NA
HETATM   31  C   UNK N   1      28.778  27.208  -9.033  0.00  0.00     0.310 C 
HETATM   32  C   UNK N   1      27.944  25.039  -9.516  0.00  0.00     0.310 C 
ENDBRANCH   1  30
BRANCH  16  33
HETATM   33  O   UNK N   1      27.750  23.867  -5.276  0.00  0.00    -0.374 OA
HETATM   34  H   UNK N   1      27.478  23.024  -5.672  0.00  0.00     0.211 HD
ENDBRANCH  16  33
BRANCH  20  35
HETATM   35  O   UNK N   1      26.050  26.741  -7.843  0.00  0.00    -0.362 OA
HETATM   36  H   UNK N   1      25.123  26.617  -7.786  0.00  0.00     0.217 HD
ENDBRANCH  20  35
BRANCH  19  37
HETATM   37  C   UNK N   1      25.341  27.338  -5.159  0.00  0.00     0.255 C 
HETATM   38  O   UNK N   1      24.278  27.117  -5.725  0.00  0.00    -0.268 OA
HETATM   39  N   UNK N   1      25.375  28.260  -4.180  0.00  0.00    -0.366 N 
HETATM   40  H   UNK N   1      24.629  28.895  -4.076  0.00  0.00     0.159 HD
HETATM   41  H   UNK N   1      26.145  28.300  -3.568  0.00  0.00     0.159 HD
ENDBRANCH  19  37
TORSDOF 9
ENDMDL
MODEL 8
REMARK VINA RESULT:      -6.4      6.306      9.971
REMARK  9 active torsions:
REMARK  status: ('A' for Active; 'I' for Inactive)
REMARK    1  A    between atoms: C_4  and  N_2 
REMARK    2  A    between atoms: C_10  and  C_31 
REMARK    3  A    between atoms: C_13  and  O_30 
REMARK    4  A    between atoms: C_18  and  O_29 
REMARK    5  A    between atoms: C_19  and  O_28 
REMARK    6  A    between atoms: C_22  and  C_25 
REMARK    7  A    between atoms: C_23  and  O_24 
REMARK       I    between atoms: C_25  and  N_27 
REMARK    8  A    between atoms: C_31  and  N_32 
REMARK    9  A    between atoms: N_32  and  O_34 
ROOT
HETATM    1  C   UNK N   1      35.375  10.814  10.863  0.00  0.00     0.286 C 
HETATM    2  C   UNK N   1      34.816  12.240  11.026  0.00  0.00     0.075 C 
HETATM    3  C   UNK N   1      34.187  12.567   9.696  0.00  0.00     0.021 C 
HETATM    4  C   UNK N   1      34.133  14.020   9.325  0.00  0.00     0.030 C 
HETATM    5  C   UNK N   1      34.602  14.097   7.920  0.00  0.00     0.050 C 
HETATM    6  C   UNK N   1      34.269  15.423   7.342  0.00  0.00    -0.033 A 
HETATM    7  C   UNK N   1      33.831  15.517   5.999  0.00  0.00    -0.035 A 
HETATM    8  C   UNK N   1      33.608  16.787   5.464  0.00  0.00     0.012 A 
HETATM    9  C   UNK N   1      33.813  17.938   6.229  0.00  0.00     0.038 A 
HETATM   10  C   UNK N   1      34.223  17.849   7.564  0.00  0.00     0.080 A 
HETATM   11  C   UNK N   1      34.441  16.587   8.148  0.00  0.00     0.055 A 
HETATM   12  C   UNK N   1      34.870  16.416   9.590  0.00  0.00     0.194 C 
HETATM   13  O   UNK N   1      35.238  17.371  10.260  0.00  0.00    -0.287 OA
HETATM   14  C   UNK N   1      34.938  15.018  10.118  0.00  0.00     0.030 C 
HETATM   15  C   UNK N   1      35.717  14.633  11.160  0.00  0.00     0.096 C 
HETATM   16  C   UNK N   1      36.014  13.146  11.335  0.00  0.00     0.177 C 
HETATM   17  C   UNK N   1      36.551  12.686  12.676  0.00  0.00     0.208 C 
HETATM   18  O   UNK N   1      36.762  13.483  13.577  0.00  0.00    -0.288 OA
HETATM   19  C   UNK N   1      36.862  11.217  12.842  0.00  0.00     0.112 C 
HETATM   20  C   UNK N   1      36.331  10.333  11.947  0.00  0.00     0.096 C 
ENDROOT
BRANCH   7  21
HETATM   21  C   UNK N   1      33.577  14.326   5.074  0.00  0.00     0.159 C 
BRANCH  21  22
HETATM   22  N   UNK N   1      32.180  14.074   4.718  0.00  0.00    -0.198 NA
HETATM   23  C   UNK N   1      31.922  12.653   4.901  0.00  0.00     0.144 C 
BRANCH  22  24
HETATM   24  O   UNK N   1      32.026  14.345   3.398  0.00  0.00    -0.309 OA
HETATM   25  C   UNK N   1      30.805  15.021   3.306  0.00  0.00     0.229 C 
ENDBRANCH  22  24
ENDBRANCH  21  22
ENDBRANCH   7  21
BRANCH  10  26
HETATM   26  O   UNK N   1      34.400  18.979   8.268  0.00  0.00    -0.360 OA
HETATM   27  H   UNK N   1      34.137  19.810   7.924  0.00  0.00     0.217 HD
ENDBRANCH  10  26
BRANCH  15  28
HETATM   28  O   UNK N   1      36.422  15.546  11.859  0.00  0.00    -0.361 OA
HETATM   29  H   UNK N   1      36.353  16.461  11.666  0.00  0.00     0.217 HD
ENDBRANCH  15  28
BRANCH   1  30
HETATM   30  N   UNK N   1      34.458   9.857  10.224  0.00  0.00     0.091 NA
HETATM   31  C   UNK N   1      33.728   9.029  11.171  0.00  0.00     0.310 C 
HETATM   32  C   UNK N   1      35.220   9.006   9.325  0.00  0.00     0.310 C 
ENDBRANCH   1  30
BRANCH  16  33
HETATM   33  O   UNK N   1      37.017  12.889  10.390  0.00  0.00    -0.374 OA
HETATM   34  H   UNK N   1      37.843  12.921   9.883  0.00  0.00     0.211 HD
ENDBRANCH  16  33
BRANCH  20  35
HETATM   35  O   UNK N   1      36.636   9.018  12.007  0.00  0.00    -0.362 OA
HETATM   36  H   UNK N   1      36.894   8.532  11.248  0.00  0.00     0.217 HD
ENDBRANCH  20  35
BRANCH  19  37
HETATM   37  C   UNK N   1      37.744  10.753  13.964  0.00  0.00     0.255 C 
HETATM   38  O   UNK N   1      37.621   9.625  14.425  0.00  0.00    -0.268 OA
HETATM   39  N   UNK N   1      38.688  11.562  14.476  0.00  0.00    -0.366 N 
HETATM   40  H   UNK N   1      39.110  11.342  15.338  0.00  0.00     0.159 HD
HETATM   41  H   UNK N   1      38.955  12.376  13.990  0.00  0.00     0.159 HD
ENDBRANCH  19  37
TORSDOF 9
ENDMDL
MODEL 9
REMARK VINA RESULT:      -6.4      3.574      7.496
REMARK  9 active torsions:
REMARK  status: ('A' for Active; 'I' for Inactive)
REMARK    1  A    between atoms: C_4  and  N_2 
REMARK    2  A    between atoms: C_10  and  C_31 
REMARK    3  A    between atoms: C_13  and  O_30 
REMARK    4  A    between atoms: C_18  and  O_29 
REMARK    5  A    between atoms: C_19  and  O_28 
REMARK    6  A    between atoms: C_22  and  C_25 
REMARK    7  A    between atoms: C_23  and  O_24 
REMARK       I    between atoms: C_25  and  N_27 
REMARK    8  A    between atoms: C_31  and  N_32 
REMARK    9  A    between atoms: N_32  and  O_34 
ROOT
HETATM    1  C   UNK N   1      28.289  18.469   6.894  0.00  0.00     0.286 C 
HETATM    2  C   UNK N   1      28.761  17.148   6.258  0.00  0.00     0.075 C 
HETATM    3  C   UNK N   1      30.050  16.815   6.965  0.00  0.00     0.021 C 
HETATM    4  C   UNK N   1      31.042  15.997   6.190  0.00  0.00     0.030 C 
HETATM    5  C   UNK N   1      32.353  16.665   6.378  0.00  0.00     0.050 C 
HETATM    6  C   UNK N   1      33.451  15.765   5.947  0.00  0.00    -0.033 A 
HETATM    7  C   UNK N   1      34.657  15.719   6.689  0.00  0.00    -0.035 A 
HETATM    8  C   UNK N   1      35.699  14.925   6.207  0.00  0.00     0.012 A 
HETATM    9  C   UNK N   1      35.561  14.195   5.024  0.00  0.00     0.038 A 
HETATM   10  C   UNK N   1      34.363  14.219   4.301  0.00  0.00     0.080 A 
HETATM   11  C   UNK N   1      33.281  14.992   4.762  0.00  0.00     0.055 A 
HETATM   12  C   UNK N   1      31.953  15.051   4.039  0.00  0.00     0.194 C 
HETATM   13  O   UNK N   1      31.820  14.587   2.915  0.00  0.00    -0.287 OA
HETATM   14  C   UNK N   1      30.847  15.807   4.707  0.00  0.00     0.030 C 
HETATM   15  C   UNK N   1      29.798  16.363   4.052  0.00  0.00     0.096 C 
HETATM   16  C   UNK N   1      28.979  17.434   4.767  0.00  0.00     0.177 C 
HETATM   17  C   UNK N   1      27.615  17.776   4.203  0.00  0.00     0.208 C 
HETATM   18  O   UNK N   1      27.195  17.228   3.196  0.00  0.00    -0.288 OA
HETATM   19  C   UNK N   1      26.813  18.850   4.901  0.00  0.00     0.112 C 
HETATM   20  C   UNK N   1      27.168  19.206   6.171  0.00  0.00     0.096 C 
ENDROOT
BRANCH   7  21
HETATM   21  C   UNK N   1      34.914  16.477   7.992  0.00  0.00     0.159 C 
BRANCH  21  22
HETATM   22  N   UNK N   1      35.216  15.656   9.166  0.00  0.00    -0.198 NA
HETATM   23  C   UNK N   1      33.952  15.242   9.757  0.00  0.00     0.144 C 
BRANCH  22  24
HETATM   24  O   UNK N   1      35.850  16.437  10.075  0.00  0.00    -0.309 OA
HETATM   25  C   UNK N   1      35.317  16.060  11.312  0.00  0.00     0.229 C 
ENDBRANCH  22  24
ENDBRANCH  21  22
ENDBRANCH   7  21
BRANCH  10  26
HETATM   26  O   UNK N   1      34.268  13.496   3.173  0.00  0.00    -0.360 OA
HETATM   27  H   UNK N   1      34.747  13.735   2.403  0.00  0.00     0.217 HD
ENDBRANCH  10  26
BRANCH  15  28
HETATM   28  O   UNK N   1      29.642  16.171   2.726  0.00  0.00    -0.361 OA
HETATM   29  H   UNK N   1      30.038  16.749   2.103  0.00  0.00     0.217 HD
ENDBRANCH  15  28
BRANCH   1  30
HETATM   30  N   UNK N   1      28.357  18.511   8.363  0.00  0.00     0.091 NA
HETATM   31  C   UNK N   1      29.703  18.707   8.878  0.00  0.00     0.310 C 
HETATM   32  C   UNK N   1      27.813  17.272   8.894  0.00  0.00     0.310 C 
ENDBRANCH   1  30
BRANCH  16  33
HETATM   33  O   UNK N   1      29.764  18.591   4.650  0.00  0.00    -0.374 OA
HETATM   34  H   UNK N   1      30.383  19.314   4.836  0.00  0.00     0.211 HD
ENDBRANCH  16  33
BRANCH  20  35
HETATM   35  O   UNK N   1      26.532  20.210   6.812  0.00  0.00    -0.362 OA
HETATM   36  H   UNK N   1      26.211  20.965   6.359  0.00  0.00     0.217 HD
ENDBRANCH  20  35
BRANCH  19  37
HETATM   37  C   UNK N   1      25.663  19.511   4.200  0.00  0.00     0.255 C 
HETATM   38  O   UNK N   1      24.530  19.436   4.658  0.00  0.00    -0.268 OA
HETATM   39  N   UNK N   1      25.857  20.203   3.063  0.00  0.00    -0.366 N 
HETATM   40  H   UNK N   1      25.088  20.446   2.498  0.00  0.00     0.159 HD
HETATM   41  H   UNK N   1      26.768  20.464   2.795  0.00  0.00     0.159 HD
ENDBRANCH  19  37
TORSDOF 9
ENDMDL
