REMARK  8 active torsions:
REMARK  status: ('A' for Active; 'I' for Inactive)
REMARK    1  A    between atoms: C_2  and  C_4 
REMARK    2  A    between atoms: C_2  and  N_6 
REMARK    3  A    between atoms: C_4  and  O_5 
REMARK    4  A    between atoms: C_8  and  C_18 
REMARK       I    between atoms: C_13  and  N_17 
REMARK    5  A    between atoms: C_18  and  C_20 
REMARK    6  A    between atoms: C_22  and  N_27 
REMARK       I    between atoms: N_27  and  C_28 
REMARK    7  A    between atoms: C_28  and  C_30 
REMARK    8  A    between atoms: C_30  and  C_31 
ROOT
HETATM    1  C   UNK N   1       0.366  -2.713  -0.135  0.00  0.00     0.196 C 
HETATM    2  O   UNK N   1       1.089  -3.638  -0.475  0.00  0.00    -0.287 OA
ENDROOT
BRANCH   1   3
HETATM    3  C   UNK N   1       0.792  -1.323  -0.304  0.00  0.00     0.046 A 
HETATM    4  C   UNK N   1      -0.080  -0.275  -0.580  0.00  0.00     0.110 A 
HETATM    5  N   UNK N   1       0.591   0.894  -0.512  0.00  0.00    -0.330 N 
HETATM    6  C   UNK N   1       1.864   0.582  -0.182  0.00  0.00     0.136 A 
HETATM    7  C   UNK N   1       2.021  -0.765  -0.070  0.00  0.00     0.040 A 
HETATM    8  N   UNK N   1       2.867   1.447   0.094  0.00  0.00    -0.176 N 
HETATM    9  C   UNK N   1       3.234  -1.295   0.335  0.00  0.00     0.122 A 
HETATM   10  N   UNK N   1       4.245  -0.422   0.614  0.00  0.00    -0.201 N 
HETATM   11  C   UNK N   1       4.068   0.936   0.504  0.00  0.00     0.677 A 
ATOM     12  HN  UNK N   1       5.151  -0.785   0.911  1.00  0.00     0.183 HD
HETATM   13  N   UNK N   1       5.116   1.809   0.851  0.00  0.00    -0.234 N 
HETATM   14  H   UNK N   1       6.011   1.479   1.094  0.00  0.00     0.174 HD
HETATM   15  H   UNK N   1       4.949   2.779   0.851  0.00  0.00     0.174 HD
ATOM     16  HN  UNK N   1       2.731   2.454  -0.001  1.00  0.00     0.186 HD
BRANCH   5  17
HETATM   17  C   UNK N   1      -0.010   2.226  -0.682  0.00  0.00     0.052 C 
HETATM   18  C   UNK N   1      -1.487   2.117  -1.067  0.00  0.00     0.041 C 
HETATM   19  C   UNK N   1       0.708   2.979  -1.791  0.00  0.00     0.041 C 
BRANCH  17  20
HETATM   20  C   UNK N   1       0.100   2.984   0.639  0.00  0.00     0.194 C 
BRANCH  20  21
HETATM   21  O   UNK N   1      -0.523   4.232   0.565  0.00  0.00    -0.398 OA
HETATM   22  H   UNK N   1       0.011   5.040   0.513  0.00  0.00     0.209 HD
ENDBRANCH  20  21
ENDBRANCH  17  20
ENDBRANCH   5  17
ENDBRANCH   1   3
BRANCH   1  23
HETATM   23  C   UNK N   1      -0.923  -2.961   0.544  0.00  0.00     0.032 A 
HETATM   24  C   UNK N   1      -1.594  -4.167   0.409  0.00  0.00     0.048 A 
HETATM   25  C   UNK N   1      -2.809  -4.369   1.079  0.00  0.00     0.051 A 
HETATM   26  C   UNK N   1      -3.299  -3.371   1.924  0.00  0.00     0.117 A 
HETATM   27  N   UNK N   1      -2.624  -2.202   2.062  0.00  0.00    -0.372 N 
HETATM   28  C   UNK N   1      -1.472  -1.975   1.383  0.00  0.00     0.103 A 
ATOM     29  HN  UNK N   1      -2.989  -1.483   2.686  1.00  0.00     0.164 HD
BRANCH  25  30
HETATM   30  N   UNK N   1      -3.587  -5.533   0.861  0.00  0.00    -0.326 N 
HETATM   31  C   UNK N   1      -3.511  -6.296  -0.262  0.00  0.00     0.227 C 
HETATM   32  O   UNK N   1      -2.780  -5.984  -1.191  0.00  0.00    -0.273 OA
HETATM   33  H   UNK N   1      -4.221  -5.805   1.564  0.00  0.00     0.169 HD
BRANCH  31  34
HETATM   34  C   UNK N   1      -4.375  -7.502  -0.402  0.00  0.00     0.160 C 
BRANCH  34  35
HETATM   35  C   UNK N   1      -5.842  -7.193  -0.399  0.00  0.00     0.017 A 
HETATM   36  C   UNK N   1      -6.742  -8.224  -0.672  0.00  0.00     0.027 A 
HETATM   37  C   UNK N   1      -8.110  -7.958  -0.679  0.00  0.00     0.027 A 
HETATM   38  C   UNK N   1      -8.565  -6.668  -0.409  0.00  0.00     0.049 A 
HETATM   39  C   UNK N   1      -7.641  -5.657  -0.140  0.00  0.00     0.112 A 
HETATM   40 Cl   UNK N   1     -10.280  -6.325  -0.409  0.00  0.00    -0.083 Cl
HETATM   41  N   UNK N   1      -6.309  -5.935  -0.143  0.00  0.00    -0.367 N 
ATOM     42  HN  UNK N   1      -5.643  -5.186   0.050  1.00  0.00     0.165 HD
ENDBRANCH  34  35
ENDBRANCH  31  34
ENDBRANCH  25  30
ENDBRANCH   1  23
TORSDOF 8
