MODEL 1
REMARK VINA RESULT:      -7.6      0.000      0.000
REMARK  9 active torsions:
REMARK  status: ('A' for Active; 'I' for Inactive)
REMARK    1  A    between atoms: C_7  and  C_6 
REMARK    2  A    between atoms: C_8  and  C_7 
REMARK    3  A    between atoms: C_9  and  C_8 
REMARK    4  A    between atoms: C_12  and  C_9 
REMARK    5  A    between atoms: C_24  and  C_12 
REMARK    6  A    between atoms: C_23  and  C_16 
REMARK    7  A    between atoms: C_24  and  C_17 
REMARK    8  A    between atoms: O_26  and  C_20 
REMARK    9  A    between atoms: O_28  and  C_23 
ROOT
HETATM    1  C   UNK N   1      33.848  11.003  15.267  0.00  0.00     0.046 C 
HETATM    2  C   UNK N   1      35.358   9.294  14.345  0.00  0.00     0.046 C 
HETATM    3  C   UNK N   1      36.926  13.437  15.247  0.00  0.00    -0.012 C 
HETATM    4  C   UNK N   1      36.646  12.018  14.791  0.00  0.00     0.036 C 
HETATM    5  C   UNK N   1      35.452  13.047  17.156  0.00  0.00     0.055 C 
HETATM    6  C   UNK N   1      34.415  10.633  20.546  0.00  0.00     0.045 A 
HETATM    7  C   UNK N   1      33.850   9.056  18.801  0.00  0.00     0.045 A 
HETATM    8  C   UNK N   1      36.361  13.927  16.364  0.00  0.00     0.012 C 
HETATM    9  C   UNK N   1      33.690   9.508  20.124  0.00  0.00    -0.045 A 
HETATM   10  C   UNK N   1      36.147  11.703  17.327  0.00  0.00     0.036 C 
HETATM   11  C   UNK N   1      36.308  11.011  15.936  0.00  0.00     0.032 C 
HETATM   12  C   UNK N   1      35.235  11.326  19.657  0.00  0.00     0.075 A 
HETATM   13  C   UNK N   1      34.673   9.735  17.905  0.00  0.00     0.079 A 
HETATM   14  C   UNK N   1      35.351  10.895  18.320  0.00  0.00     0.013 A 
HETATM   15  C   UNK N   1      35.071  10.146  15.573  0.00  0.00     0.065 C 
HETATM   16  O   UNK N   1      34.763   9.301  16.624  0.00  0.00    -0.340 OA
ENDROOT
BRANCH   9  17
HETATM   17  C   UNK N   1      32.623   8.907  21.025  0.00  0.00    -0.020 C 
HETATM   18  C   UNK N   1      31.412   8.515  20.190  0.00  0.00     0.020 C 
HETATM   19  C   UNK N   1      33.125   7.597  21.633  0.00  0.00     0.020 C 
BRANCH  17  20
HETATM   20  C   UNK N   1      32.147   9.935  22.069  0.00  0.00     0.013 C 
BRANCH  20  21
HETATM   21  C   UNK N   1      32.264   9.503  23.535  0.00  0.00     0.001 C 
BRANCH  21  22
HETATM   22  C   UNK N   1      32.972  10.569  24.364  0.00  0.00     0.000 C 
BRANCH  22  23
HETATM   23  C   UNK N   1      32.171  10.946  25.608  0.00  0.00    -0.000 C 
BRANCH  23  24
HETATM   24  C   UNK N   1      30.963  10.044  25.803  0.00  0.00    -0.005 C 
HETATM   25  C   UNK N   1      29.747  10.844  26.227  0.00  0.00     0.005 C 
ENDBRANCH  23  24
ENDBRANCH  22  23
ENDBRANCH  21  22
ENDBRANCH  20  21
ENDBRANCH  17  20
ENDBRANCH   9  17
BRANCH  12  26
HETATM   26  O   UNK N   1      35.882  12.427  20.081  0.00  0.00    -0.360 OA
HETATM   27  H   UNK N   1      36.302  12.997  19.468  0.00  0.00     0.217 HD
ENDBRANCH  12  26
BRANCH   8  28
HETATM   28  C   UNK N   1      36.704  15.268  16.883  0.00  0.00     0.171 C 
HETATM   29  O   UNK N   1      37.421  16.018  16.243  0.00  0.00    -0.646 OA
BRANCH  28  30
HETATM   30  O   UNK N   1      36.246  15.656  18.090  0.00  0.00    -0.773 OA
HETATM   31  H   UNK N   1      35.610  15.163  18.571  0.00  0.00     0.167 HD
ENDBRANCH  28  30
ENDBRANCH   8  28
TORSDOF 9
ENDMDL
MODEL 2
REMARK VINA RESULT:      -7.5     24.903     28.776
REMARK  9 active torsions:
REMARK  status: ('A' for Active; 'I' for Inactive)
REMARK    1  A    between atoms: C_7  and  C_6 
REMARK    2  A    between atoms: C_8  and  C_7 
REMARK    3  A    between atoms: C_9  and  C_8 
REMARK    4  A    between atoms: C_12  and  C_9 
REMARK    5  A    between atoms: C_24  and  C_12 
REMARK    6  A    between atoms: C_23  and  C_16 
REMARK    7  A    between atoms: C_24  and  C_17 
REMARK    8  A    between atoms: O_26  and  C_20 
REMARK    9  A    between atoms: O_28  and  C_23 
ROOT
HETATM    1  C   UNK N   1      30.477  23.658  -7.644  0.00  0.00     0.046 C 
HETATM    2  C   UNK N   1      29.204  22.001  -8.942  0.00  0.00     0.046 C 
HETATM    3  C   UNK N   1      31.505  20.705  -5.273  0.00  0.00    -0.012 C 
HETATM    4  C   UNK N   1      30.723  20.854  -6.564  0.00  0.00     0.036 C 
HETATM    5  C   UNK N   1      30.581  22.844  -4.539  0.00  0.00     0.055 C 
HETATM    6  C   UNK N   1      27.129  25.294  -3.844  0.00  0.00     0.045 A 
HETATM    7  C   UNK N   1      27.012  25.191  -6.258  0.00  0.00     0.045 A 
HETATM    8  C   UNK N   1      31.441  21.645  -4.315  0.00  0.00     0.012 C 
HETATM    9  C   UNK N   1      26.688  25.847  -5.056  0.00  0.00    -0.045 A 
HETATM   10  C   UNK N   1      29.231  22.352  -5.044  0.00  0.00     0.036 C 
HETATM   11  C   UNK N   1      29.403  21.681  -6.444  0.00  0.00     0.032 C 
HETATM   12  C   UNK N   1      27.922  24.147  -3.832  0.00  0.00     0.075 A 
HETATM   13  C   UNK N   1      27.797  24.040  -6.259  0.00  0.00     0.079 A 
HETATM   14  C   UNK N   1      28.283  23.524  -5.044  0.00  0.00     0.013 A 
HETATM   15  C   UNK N   1      29.282  22.711  -7.598  0.00  0.00     0.065 C 
HETATM   16  O   UNK N   1      28.133  23.464  -7.440  0.00  0.00    -0.340 OA
ENDROOT
BRANCH   9  17
HETATM   17  C   UNK N   1      26.032  27.218  -5.073  0.00  0.00    -0.020 C 
HETATM   18  C   UNK N   1      24.657  27.119  -5.718  0.00  0.00     0.020 C 
HETATM   19  C   UNK N   1      25.765  27.691  -3.643  0.00  0.00     0.020 C 
BRANCH  17  20
HETATM   20  C   UNK N   1      26.861  28.210  -5.910  0.00  0.00     0.013 C 
BRANCH  20  21
HETATM   21  C   UNK N   1      27.627  29.277  -5.120  0.00  0.00     0.001 C 
BRANCH  21  22
HETATM   22  C   UNK N   1      29.106  28.920  -5.010  0.00  0.00     0.000 C 
BRANCH  22  23
HETATM   23  C   UNK N   1      29.438  28.289  -3.660  0.00  0.00    -0.000 C 
BRANCH  23  24
HETATM   24  C   UNK N   1      30.318  27.058  -3.807  0.00  0.00    -0.005 C 
HETATM   25  C   UNK N   1      30.380  26.601  -5.252  0.00  0.00     0.005 C 
ENDBRANCH  23  24
ENDBRANCH  22  23
ENDBRANCH  21  22
ENDBRANCH  20  21
ENDBRANCH  17  20
ENDBRANCH   9  17
BRANCH  12  26
HETATM   26  O   UNK N   1      28.366  23.667  -2.656  0.00  0.00    -0.360 OA
HETATM   27  H   UNK N   1      28.865  22.875  -2.624  0.00  0.00     0.217 HD
ENDBRANCH  12  26
BRANCH   8  28
HETATM   28  C   UNK N   1      32.110  21.467  -3.008  0.00  0.00     0.171 C 
HETATM   29  O   UNK N   1      31.759  22.113  -2.037  0.00  0.00    -0.646 OA
BRANCH  28  30
HETATM   30  O   UNK N   1      33.141  20.606  -2.896  0.00  0.00    -0.773 OA
HETATM   31  H   UNK N   1      33.022  19.677  -2.868  0.00  0.00     0.167 HD
ENDBRANCH  28  30
ENDBRANCH   8  28
TORSDOF 9
ENDMDL
MODEL 3
REMARK VINA RESULT:      -7.4      1.420      3.381
REMARK  9 active torsions:
REMARK  status: ('A' for Active; 'I' for Inactive)
REMARK    1  A    between atoms: C_7  and  C_6 
REMARK    2  A    between atoms: C_8  and  C_7 
REMARK    3  A    between atoms: C_9  and  C_8 
REMARK    4  A    between atoms: C_12  and  C_9 
REMARK    5  A    between atoms: C_24  and  C_12 
REMARK    6  A    between atoms: C_23  and  C_16 
REMARK    7  A    between atoms: C_24  and  C_17 
REMARK    8  A    between atoms: O_26  and  C_20 
REMARK    9  A    between atoms: O_28  and  C_23 
ROOT
HETATM    1  C   UNK N   1      33.822  11.041  15.318  0.00  0.00     0.046 C 
HETATM    2  C   UNK N   1      35.313   9.320  14.388  0.00  0.00     0.046 C 
HETATM    3  C   UNK N   1      36.918  13.452  15.274  0.00  0.00    -0.012 C 
HETATM    4  C   UNK N   1      36.624  12.035  14.821  0.00  0.00     0.036 C 
HETATM    5  C   UNK N   1      35.454  13.075  17.193  0.00  0.00     0.055 C 
HETATM    6  C   UNK N   1      34.423  10.673  20.594  0.00  0.00     0.045 A 
HETATM    7  C   UNK N   1      33.834   9.098  18.854  0.00  0.00     0.045 A 
HETATM    8  C   UNK N   1      36.365  13.947  16.395  0.00  0.00     0.012 C 
HETATM    9  C   UNK N   1      33.687   9.553  20.178  0.00  0.00    -0.045 A 
HETATM   10  C   UNK N   1      36.140  11.726  17.361  0.00  0.00     0.036 C 
HETATM   11  C   UNK N   1      36.287  11.031  15.970  0.00  0.00     0.032 C 
HETATM   12  C   UNK N   1      35.242  11.359  19.699  0.00  0.00     0.075 A 
HETATM   13  C   UNK N   1      34.657   9.769  17.952  0.00  0.00     0.079 A 
HETATM   14  C   UNK N   1      35.346  10.925  18.361  0.00  0.00     0.013 A 
HETATM   15  C   UNK N   1      35.042  10.176  15.617  0.00  0.00     0.065 C 
HETATM   16  O   UNK N   1      34.734   9.333  16.671  0.00  0.00    -0.340 OA
ENDROOT
BRANCH   9  17
HETATM   17  C   UNK N   1      32.621   8.961  21.087  0.00  0.00    -0.020 C 
HETATM   18  C   UNK N   1      33.185   7.745  21.810  0.00  0.00     0.020 C 
HETATM   19  C   UNK N   1      32.268   9.952  22.197  0.00  0.00     0.020 C 
BRANCH  17  20
HETATM   20  C   UNK N   1      31.406   8.486  20.268  0.00  0.00     0.013 C 
BRANCH  20  21
HETATM   21  C   UNK N   1      30.956   7.042  20.514  0.00  0.00     0.001 C 
BRANCH  21  22
HETATM   22  C   UNK N   1      31.244   6.165  19.301  0.00  0.00     0.000 C 
BRANCH  22  23
HETATM   23  C   UNK N   1      31.712   4.769  19.706  0.00  0.00    -0.000 C 
BRANCH  23  24
HETATM   24  C   UNK N   1      33.228   4.651  19.699  0.00  0.00    -0.005 C 
HETATM   25  C   UNK N   1      33.837   5.516  18.613  0.00  0.00     0.005 C 
ENDBRANCH  23  24
ENDBRANCH  22  23
ENDBRANCH  21  22
ENDBRANCH  20  21
ENDBRANCH  17  20
ENDBRANCH   9  17
BRANCH  12  26
HETATM   26  O   UNK N   1      35.900  12.456  20.117  0.00  0.00    -0.360 OA
HETATM   27  H   UNK N   1      36.187  12.528  21.005  0.00  0.00     0.217 HD
ENDBRANCH  12  26
BRANCH   8  28
HETATM   28  C   UNK N   1      36.721  15.287  16.909  0.00  0.00     0.171 C 
HETATM   29  O   UNK N   1      37.422  16.038  16.254  0.00  0.00    -0.646 OA
BRANCH  28  30
HETATM   30  O   UNK N   1      36.294  15.670  18.129  0.00  0.00    -0.773 OA
HETATM   31  H   UNK N   1      35.423  15.978  18.285  0.00  0.00     0.167 HD
ENDBRANCH  28  30
ENDBRANCH   8  28
TORSDOF 9
ENDMDL
MODEL 4
REMARK VINA RESULT:      -7.4     13.213     16.522
REMARK  9 active torsions:
REMARK  status: ('A' for Active; 'I' for Inactive)
REMARK    1  A    between atoms: C_7  and  C_6 
REMARK    2  A    between atoms: C_8  and  C_7 
REMARK    3  A    between atoms: C_9  and  C_8 
REMARK    4  A    between atoms: C_12  and  C_9 
REMARK    5  A    between atoms: C_24  and  C_12 
REMARK    6  A    between atoms: C_23  and  C_16 
REMARK    7  A    between atoms: C_24  and  C_17 
REMARK    8  A    between atoms: O_26  and  C_20 
REMARK    9  A    between atoms: O_28  and  C_23 
ROOT
HETATM    1  C   UNK N   1      32.716  17.215   3.595  0.00  0.00     0.046 C 
HETATM    2  C   UNK N   1      32.475  14.816   3.104  0.00  0.00     0.046 C 
HETATM    3  C   UNK N   1      34.715  16.148   6.799  0.00  0.00    -0.012 C 
HETATM    4  C   UNK N   1      34.090  15.443   5.610  0.00  0.00     0.036 C 
HETATM    5  C   UNK N   1      32.851  17.727   6.763  0.00  0.00     0.055 C 
HETATM    6  C   UNK N   1      28.612  18.385   6.775  0.00  0.00     0.045 A 
HETATM    7  C   UNK N   1      28.808  17.374   4.586  0.00  0.00     0.045 A 
HETATM    8  C   UNK N   1      34.132  17.229   7.345  0.00  0.00     0.012 C 
HETATM    9  C   UNK N   1      28.099  18.193   5.484  0.00  0.00    -0.045 A 
HETATM   10  C   UNK N   1      31.931  16.526   6.582  0.00  0.00     0.036 C 
HETATM   11  C   UNK N   1      32.535  15.553   5.520  0.00  0.00     0.032 C 
HETATM   12  C   UNK N   1      29.832  17.823   7.147  0.00  0.00     0.075 A 
HETATM   13  C   UNK N   1      30.024  16.799   4.949  0.00  0.00     0.079 A 
HETATM   14  C   UNK N   1      30.561  17.043   6.225  0.00  0.00     0.013 A 
HETATM   15  C   UNK N   1      32.082  15.916   4.081  0.00  0.00     0.065 C 
HETATM   16  O   UNK N   1      30.706  16.058   4.040  0.00  0.00    -0.340 OA
ENDROOT
BRANCH   9  17
HETATM   17  C   UNK N   1      26.898  19.000   5.014  0.00  0.00    -0.020 C 
HETATM   18  C   UNK N   1      26.591  20.095   6.026  0.00  0.00     0.020 C 
HETATM   19  C   UNK N   1      27.237  19.742   3.720  0.00  0.00     0.020 C 
BRANCH  17  20
HETATM   20  C   UNK N   1      25.647  18.108   4.908  0.00  0.00     0.013 C 
BRANCH  20  21
HETATM   21  C   UNK N   1      25.293  17.614   3.501  0.00  0.00     0.001 C 
BRANCH  21  22
HETATM   22  C   UNK N   1      25.471  16.104   3.391  0.00  0.00     0.000 C 
BRANCH  22  23
HETATM   23  C   UNK N   1      26.051  15.698   2.039  0.00  0.00    -0.000 C 
BRANCH  23  24
HETATM   24  C   UNK N   1      27.439  15.090   2.173  0.00  0.00    -0.005 C 
HETATM   25  C   UNK N   1      27.525  14.191   3.391  0.00  0.00     0.005 C 
ENDBRANCH  23  24
ENDBRANCH  22  23
ENDBRANCH  21  22
ENDBRANCH  20  21
ENDBRANCH  17  20
ENDBRANCH   9  17
BRANCH  12  26
HETATM   26  O   UNK N   1      30.320  18.062   8.378  0.00  0.00    -0.360 OA
HETATM   27  H   UNK N   1      30.214  18.904   8.775  0.00  0.00     0.217 HD
ENDBRANCH  12  26
BRANCH   8  28
HETATM   28  C   UNK N   1      34.667  17.865   8.568  0.00  0.00     0.171 C 
HETATM   29  O   UNK N   1      34.579  17.308   9.648  0.00  0.00    -0.646 OA
BRANCH  28  30
HETATM   30  O   UNK N   1      35.230  19.088   8.494  0.00  0.00    -0.773 OA
HETATM   31  H   UNK N   1      35.018  19.778   9.092  0.00  0.00     0.167 HD
ENDBRANCH  28  30
ENDBRANCH   8  28
TORSDOF 9
ENDMDL
MODEL 5
REMARK VINA RESULT:      -7.4     13.847     16.364
REMARK  9 active torsions:
REMARK  status: ('A' for Active; 'I' for Inactive)
REMARK    1  A    between atoms: C_7  and  C_6 
REMARK    2  A    between atoms: C_8  and  C_7 
REMARK    3  A    between atoms: C_9  and  C_8 
REMARK    4  A    between atoms: C_12  and  C_9 
REMARK    5  A    between atoms: C_24  and  C_12 
REMARK    6  A    between atoms: C_23  and  C_16 
REMARK    7  A    between atoms: C_24  and  C_17 
REMARK    8  A    between atoms: O_26  and  C_20 
REMARK    9  A    between atoms: O_28  and  C_23 
ROOT
HETATM    1  C   UNK N   1      32.559  16.558   3.015  0.00  0.00     0.046 C 
HETATM    2  C   UNK N   1      33.106  14.184   2.676  0.00  0.00     0.046 C 
HETATM    3  C   UNK N   1      34.707  16.373   6.294  0.00  0.00    -0.012 C 
HETATM    4  C   UNK N   1      34.370  15.438   5.148  0.00  0.00     0.036 C 
HETATM    5  C   UNK N   1      32.439  17.269   6.145  0.00  0.00     0.055 C 
HETATM    6  C   UNK N   1      28.212  16.542   6.086  0.00  0.00     0.045 A 
HETATM    7  C   UNK N   1      28.778  15.521   3.967  0.00  0.00     0.045 A 
HETATM    8  C   UNK N   1      33.796  17.241   6.766  0.00  0.00     0.012 C 
HETATM    9  C   UNK N   1      27.821  16.122   4.806  0.00  0.00    -0.045 A 
HETATM   10  C   UNK N   1      31.954  15.830   6.035  0.00  0.00     0.036 C 
HETATM   11  C   UNK N   1      32.863  15.041   5.040  0.00  0.00     0.032 C 
HETATM   12  C   UNK N   1      29.537  16.420   6.501  0.00  0.00     0.075 A 
HETATM   13  C   UNK N   1      30.103  15.385   4.374  0.00  0.00     0.079 A 
HETATM   14  C   UNK N   1      30.500  15.862   5.636  0.00  0.00     0.013 A 
HETATM   15  C   UNK N   1      32.358  15.156   3.578  0.00  0.00     0.065 C 
HETATM   16  O   UNK N   1      31.010  14.849   3.519  0.00  0.00    -0.340 OA
ENDROOT
BRANCH   9  17
HETATM   17  C   UNK N   1      26.439  16.475   4.277  0.00  0.00    -0.020 C 
HETATM   18  C   UNK N   1      25.859  15.283   3.529  0.00  0.00     0.020 C 
HETATM   19  C   UNK N   1      25.477  16.718   5.441  0.00  0.00     0.020 C 
BRANCH  17  20
HETATM   20  C   UNK N   1      26.518  17.647   3.282  0.00  0.00     0.013 C 
BRANCH  20  21
HETATM   21  C   UNK N   1      25.917  18.974   3.760  0.00  0.00     0.001 C 
BRANCH  21  22
HETATM   22  C   UNK N   1      26.934  20.105   3.656  0.00  0.00     0.000 C 
BRANCH  22  23
HETATM   23  C   UNK N   1      28.027  19.985   4.715  0.00  0.00    -0.000 C 
BRANCH  23  24
HETATM   24  C   UNK N   1      27.482  20.180   6.121  0.00  0.00    -0.005 C 
HETATM   25  C   UNK N   1      26.874  21.559   6.284  0.00  0.00     0.005 C 
ENDBRANCH  23  24
ENDBRANCH  22  23
ENDBRANCH  21  22
ENDBRANCH  20  21
ENDBRANCH  17  20
ENDBRANCH   9  17
BRANCH  12  26
HETATM   26  O   UNK N   1      29.890  16.874   7.718  0.00  0.00    -0.360 OA
HETATM   27  H   UNK N   1      29.374  16.664   8.471  0.00  0.00     0.217 HD
ENDBRANCH  12  26
BRANCH   8  28
HETATM   28  C   UNK N   1      34.069  18.084   7.950  0.00  0.00     0.171 C 
HETATM   29  O   UNK N   1      34.985  18.887   7.943  0.00  0.00    -0.646 OA
BRANCH  28  30
HETATM   30  O   UNK N   1      33.318  17.941   9.061  0.00  0.00    -0.773 OA
HETATM   31  H   UNK N   1      32.748  17.209   9.194  0.00  0.00     0.167 HD
ENDBRANCH  28  30
ENDBRANCH   8  28
TORSDOF 9
ENDMDL
MODEL 6
REMARK VINA RESULT:      -7.2      5.718      8.563
REMARK  9 active torsions:
REMARK  status: ('A' for Active; 'I' for Inactive)
REMARK    1  A    between atoms: C_7  and  C_6 
REMARK    2  A    between atoms: C_8  and  C_7 
REMARK    3  A    between atoms: C_9  and  C_8 
REMARK    4  A    between atoms: C_12  and  C_9 
REMARK    5  A    between atoms: C_24  and  C_12 
REMARK    6  A    between atoms: C_23  and  C_16 
REMARK    7  A    between atoms: C_24  and  C_17 
REMARK    8  A    between atoms: O_26  and  C_20 
REMARK    9  A    between atoms: O_28  and  C_23 
ROOT
HETATM    1  C   UNK N   1      33.490  12.752   8.523  0.00  0.00     0.046 C 
HETATM    2  C   UNK N   1      35.135  11.588   7.113  0.00  0.00     0.046 C 
HETATM    3  C   UNK N   1      34.630  16.067   6.759  0.00  0.00    -0.012 C 
HETATM    4  C   UNK N   1      34.941  14.589   6.624  0.00  0.00     0.036 C 
HETATM    5  C   UNK N   1      34.455  15.746   9.175  0.00  0.00     0.055 C 
HETATM    6  C   UNK N   1      36.220  14.320  12.814  0.00  0.00     0.045 A 
HETATM    7  C   UNK N   1      35.877  12.186  11.726  0.00  0.00     0.045 A 
HETATM    8  C   UNK N   1      34.397  16.616   7.964  0.00  0.00     0.012 C 
HETATM    9  C   UNK N   1      36.057  12.929  12.908  0.00  0.00    -0.045 A 
HETATM   10  C   UNK N   1      35.729  14.916   9.085  0.00  0.00     0.036 C 
HETATM   11  C   UNK N   1      35.643  13.946   7.864  0.00  0.00     0.032 C 
HETATM   12  C   UNK N   1      36.149  14.963  11.580  0.00  0.00     0.075 A 
HETATM   13  C   UNK N   1      35.813  12.817  10.486  0.00  0.00     0.079 A 
HETATM   14  C   UNK N   1      35.919  14.217  10.406  0.00  0.00     0.013 A 
HETATM   15  C   UNK N   1      34.980  12.596   8.244  0.00  0.00     0.065 C 
HETATM   16  O   UNK N   1      35.586  12.075   9.373  0.00  0.00    -0.340 OA
ENDROOT
BRANCH   9  17
HETATM   17  C   UNK N   1      35.898  12.271  14.269  0.00  0.00    -0.020 C 
HETATM   18  C   UNK N   1      34.659  11.385  14.266  0.00  0.00     0.020 C 
HETATM   19  C   UNK N   1      37.065  11.318  14.532  0.00  0.00     0.020 C 
BRANCH  17  20
HETATM   20  C   UNK N   1      35.701  13.330  15.369  0.00  0.00     0.013 C 
BRANCH  20  21
HETATM   21  C   UNK N   1      34.660  12.996  16.444  0.00  0.00     0.001 C 
BRANCH  21  22
HETATM   22  C   UNK N   1      35.186  13.327  17.836  0.00  0.00     0.000 C 
BRANCH  22  23
HETATM   23  C   UNK N   1      35.256  12.088  18.726  0.00  0.00    -0.000 C 
BRANCH  23  24
HETATM   24  C   UNK N   1      35.617  10.839  17.938  0.00  0.00    -0.005 C 
HETATM   25  C   UNK N   1      34.645   9.712  18.227  0.00  0.00     0.005 C 
ENDBRANCH  23  24
ENDBRANCH  22  23
ENDBRANCH  21  22
ENDBRANCH  20  21
ENDBRANCH  17  20
ENDBRANCH   9  17
BRANCH  12  26
HETATM   26  O   UNK N   1      36.265  16.303  11.529  0.00  0.00    -0.360 OA
HETATM   27  H   UNK N   1      36.242  16.812  12.314  0.00  0.00     0.217 HD
ENDBRANCH  12  26
BRANCH   8  28
HETATM   28  C   UNK N   1      34.197  18.072   8.126  0.00  0.00     0.171 C 
HETATM   29  O   UNK N   1      33.078  18.552   8.102  0.00  0.00    -0.646 OA
BRANCH  28  30
HETATM   30  O   UNK N   1      35.265  18.882   8.271  0.00  0.00    -0.773 OA
HETATM   31  H   UNK N   1      35.232  19.799   8.082  0.00  0.00     0.167 HD
ENDBRANCH  28  30
ENDBRANCH   8  28
TORSDOF 9
ENDMDL
MODEL 7
REMARK VINA RESULT:      -7.2      1.445      3.104
REMARK  9 active torsions:
REMARK  status: ('A' for Active; 'I' for Inactive)
REMARK    1  A    between atoms: C_7  and  C_6 
REMARK    2  A    between atoms: C_8  and  C_7 
REMARK    3  A    between atoms: C_9  and  C_8 
REMARK    4  A    between atoms: C_12  and  C_9 
REMARK    5  A    between atoms: C_24  and  C_12 
REMARK    6  A    between atoms: C_23  and  C_16 
REMARK    7  A    between atoms: C_24  and  C_17 
REMARK    8  A    between atoms: O_26  and  C_20 
REMARK    9  A    between atoms: O_28  and  C_23 
ROOT
HETATM    1  C   UNK N   1      33.879  10.945  15.278  0.00  0.00     0.046 C 
HETATM    2  C   UNK N   1      35.427   9.261  14.372  0.00  0.00     0.046 C 
HETATM    3  C   UNK N   1      36.918  13.428  15.291  0.00  0.00    -0.012 C 
HETATM    4  C   UNK N   1      36.666  12.005  14.831  0.00  0.00     0.036 C 
HETATM    5  C   UNK N   1      35.430  13.015  17.184  0.00  0.00     0.055 C 
HETATM    6  C   UNK N   1      34.396  10.584  20.563  0.00  0.00     0.045 A 
HETATM    7  C   UNK N   1      33.875   8.998  18.812  0.00  0.00     0.045 A 
HETATM    8  C   UNK N   1      36.334  13.908  16.402  0.00  0.00     0.012 C 
HETATM    9  C   UNK N   1      33.694   9.447  20.133  0.00  0.00    -0.045 A 
HETATM   10  C   UNK N   1      36.145  11.681  17.362  0.00  0.00     0.036 C 
HETATM   11  C   UNK N   1      36.332  10.993  15.973  0.00  0.00     0.032 C 
HETATM   12  C   UNK N   1      35.215  11.290  19.683  0.00  0.00     0.075 A 
HETATM   13  C   UNK N   1      34.697   9.690  17.925  0.00  0.00     0.079 A 
HETATM   14  C   UNK N   1      35.352  10.861  18.347  0.00  0.00     0.013 A 
HETATM   15  C   UNK N   1      35.113  10.108  15.597  0.00  0.00     0.065 C 
HETATM   16  O   UNK N   1      34.807   9.257  16.644  0.00  0.00    -0.340 OA
ENDROOT
BRANCH   9  17
HETATM   17  C   UNK N   1      32.627   8.829  21.023  0.00  0.00    -0.020 C 
HETATM   18  C   UNK N   1      32.301   9.781  22.166  0.00  0.00     0.020 C 
HETATM   19  C   UNK N   1      31.318   8.680  20.247  0.00  0.00     0.020 C 
BRANCH  17  20
HETATM   20  C   UNK N   1      33.131   7.516  21.649  0.00  0.00     0.013 C 
BRANCH  20  21
HETATM   21  C   UNK N   1      34.342   7.639  22.581  0.00  0.00     0.001 C 
BRANCH  21  22
HETATM   22  C   UNK N   1      35.471   6.715  22.138  0.00  0.00     0.000 C 
BRANCH  22  23
HETATM   23  C   UNK N   1      36.766   7.482  21.885  0.00  0.00    -0.000 C 
BRANCH  23  24
HETATM   24  C   UNK N   1      36.986   7.759  20.406  0.00  0.00    -0.005 C 
HETATM   25  C   UNK N   1      37.955   8.908  20.204  0.00  0.00     0.005 C 
ENDBRANCH  23  24
ENDBRANCH  22  23
ENDBRANCH  21  22
ENDBRANCH  20  21
ENDBRANCH  17  20
ENDBRANCH   9  17
BRANCH  12  26
HETATM   26  O   UNK N   1      35.839  12.401  20.114  0.00  0.00    -0.360 OA
HETATM   27  H   UNK N   1      35.950  13.136  19.543  0.00  0.00     0.217 HD
ENDBRANCH  12  26
BRANCH   8  28
HETATM   28  C   UNK N   1      36.649  15.256  16.924  0.00  0.00     0.171 C 
HETATM   29  O   UNK N   1      37.310  16.039  16.265  0.00  0.00    -0.646 OA
BRANCH  28  30
HETATM   30  O   UNK N   1      36.230  15.611  18.155  0.00  0.00    -0.773 OA
HETATM   31  H   UNK N   1      36.819  15.900  18.825  0.00  0.00     0.167 HD
ENDBRANCH  28  30
ENDBRANCH   8  28
TORSDOF 9
ENDMDL
MODEL 8
REMARK VINA RESULT:      -7.1      6.122      9.542
REMARK  9 active torsions:
REMARK  status: ('A' for Active; 'I' for Inactive)
REMARK    1  A    between atoms: C_7  and  C_6 
REMARK    2  A    between atoms: C_8  and  C_7 
REMARK    3  A    between atoms: C_9  and  C_8 
REMARK    4  A    between atoms: C_12  and  C_9 
REMARK    5  A    between atoms: C_24  and  C_12 
REMARK    6  A    between atoms: C_23  and  C_16 
REMARK    7  A    between atoms: C_24  and  C_17 
REMARK    8  A    between atoms: O_26  and  C_20 
REMARK    9  A    between atoms: O_28  and  C_23 
ROOT
HETATM    1  C   UNK N   1      33.489  12.158   9.096  0.00  0.00     0.046 C 
HETATM    2  C   UNK N   1      35.321  11.331   7.679  0.00  0.00     0.046 C 
HETATM    3  C   UNK N   1      33.383  15.311   6.762  0.00  0.00    -0.012 C 
HETATM    4  C   UNK N   1      34.143  13.999   6.800  0.00  0.00     0.036 C 
HETATM    5  C   UNK N   1      33.484  15.368   9.203  0.00  0.00     0.055 C 
HETATM    6  C   UNK N   1      35.856  15.192  12.772  0.00  0.00     0.045 A 
HETATM    7  C   UNK N   1      36.142  12.904  12.042  0.00  0.00     0.045 A 
HETATM    8  C   UNK N   1      33.069  15.960   7.897  0.00  0.00     0.012 C 
HETATM    9  C   UNK N   1      36.154  13.856  13.079  0.00  0.00    -0.045 A 
HETATM   10  C   UNK N   1      34.948  14.966   9.080  0.00  0.00     0.036 C 
HETATM   11  C   UNK N   1      35.095  13.823   8.026  0.00  0.00     0.032 C 
HETATM   12  C   UNK N   1      35.498  15.563  11.477  0.00  0.00     0.075 A 
HETATM   13  C   UNK N   1      35.795  13.263  10.742  0.00  0.00     0.079 A 
HETATM   14  C   UNK N   1      35.442  14.594  10.455  0.00  0.00     0.013 A 
HETATM   15  C   UNK N   1      34.928  12.420   8.667  0.00  0.00     0.065 C 
HETATM   16  O   UNK N   1      35.744  12.309   9.779  0.00  0.00    -0.340 OA
ENDROOT
BRANCH   9  17
HETATM   17  C   UNK N   1      36.307  13.422  14.528  0.00  0.00    -0.020 C 
HETATM   18  C   UNK N   1      37.212  12.201  14.603  0.00  0.00     0.020 C 
HETATM   19  C   UNK N   1      37.035  14.504  15.327  0.00  0.00     0.020 C 
BRANCH  17  20
HETATM   20  C   UNK N   1      34.945  13.021  15.125  0.00  0.00     0.013 C 
BRANCH  20  21
HETATM   21  C   UNK N   1      34.792  11.546  15.514  0.00  0.00     0.001 C 
BRANCH  21  22
HETATM   22  C   UNK N   1      33.764  10.851  14.628  0.00  0.00     0.000 C 
BRANCH  22  23
HETATM   23  C   UNK N   1      34.427   9.942  13.596  0.00  0.00    -0.000 C 
BRANCH  23  24
HETATM   24  C   UNK N   1      33.823  10.116  12.212  0.00  0.00    -0.005 C 
HETATM   25  C   UNK N   1      34.560   9.277  11.186  0.00  0.00     0.005 C 
ENDBRANCH  23  24
ENDBRANCH  22  23
ENDBRANCH  21  22
ENDBRANCH  20  21
ENDBRANCH  17  20
ENDBRANCH   9  17
BRANCH  12  26
HETATM   26  O   UNK N   1      35.175  16.845  11.225  0.00  0.00    -0.360 OA
HETATM   27  H   UNK N   1      35.593  17.313  10.530  0.00  0.00     0.217 HD
ENDBRANCH  12  26
BRANCH   8  28
HETATM   28  C   UNK N   1      32.424  17.290   7.877  0.00  0.00     0.171 C 
HETATM   29  O   UNK N   1      33.050  18.290   8.184  0.00  0.00    -0.646 OA
BRANCH  28  30
HETATM   30  O   UNK N   1      31.121  17.397   7.546  0.00  0.00    -0.773 OA
HETATM   31  H   UNK N   1      30.664  18.215   7.553  0.00  0.00     0.167 HD
ENDBRANCH  28  30
ENDBRANCH   8  28
TORSDOF 9
ENDMDL
MODEL 9
REMARK VINA RESULT:      -7.0     16.152     18.596
REMARK  9 active torsions:
REMARK  status: ('A' for Active; 'I' for Inactive)
REMARK    1  A    between atoms: C_7  and  C_6 
REMARK    2  A    between atoms: C_8  and  C_7 
REMARK    3  A    between atoms: C_9  and  C_8 
REMARK    4  A    between atoms: C_12  and  C_9 
REMARK    5  A    between atoms: C_24  and  C_12 
REMARK    6  A    between atoms: C_23  and  C_16 
REMARK    7  A    between atoms: C_24  and  C_17 
REMARK    8  A    between atoms: O_26  and  C_20 
REMARK    9  A    between atoms: O_28  and  C_23 
ROOT
HETATM    1  C   UNK N   1      25.551  16.955   3.151  0.00  0.00     0.046 C 
HETATM    2  C   UNK N   1      27.228  17.796   4.741  0.00  0.00     0.046 C 
HETATM    3  C   UNK N   1      24.050  20.581   3.134  0.00  0.00    -0.012 C 
HETATM    4  C   UNK N   1      25.249  19.892   3.757  0.00  0.00     0.036 C 
HETATM    5  C   UNK N   1      22.770  18.529   3.482  0.00  0.00     0.055 C 
HETATM    6  C   UNK N   1      21.425  15.464   6.165  0.00  0.00     0.045 A 
HETATM    7  C   UNK N   1      23.780  14.910   6.144  0.00  0.00     0.045 A 
HETATM    8  C   UNK N   1      22.877  19.938   3.002  0.00  0.00     0.012 C 
HETATM    9  C   UNK N   1      22.445  14.519   6.355  0.00  0.00    -0.045 A 
HETATM   10  C   UNK N   1      23.376  18.472   4.878  0.00  0.00     0.036 C 
HETATM   11  C   UNK N   1      24.905  18.785   4.804  0.00  0.00     0.032 C 
HETATM   12  C   UNK N   1      21.722  16.752   5.720  0.00  0.00     0.075 A 
HETATM   13  C   UNK N   1      24.091  16.197   5.709  0.00  0.00     0.079 A 
HETATM   14  C   UNK N   1      23.059  17.121   5.465  0.00  0.00     0.013 A 
HETATM   15  C   UNK N   1      25.746  17.504   4.560  0.00  0.00     0.065 C 
HETATM   16  O   UNK N   1      25.384  16.522   5.466  0.00  0.00    -0.340 OA
ENDROOT
BRANCH   9  17
HETATM   17  C   UNK N   1      22.094  13.061   6.605  0.00  0.00    -0.020 C 
HETATM   18  C   UNK N   1      20.638  12.815   6.236  0.00  0.00     0.020 C 
HETATM   19  C   UNK N   1      22.898  12.158   5.668  0.00  0.00     0.020 C 
BRANCH  17  20
HETATM   20  C   UNK N   1      22.256  12.708   8.096  0.00  0.00     0.013 C 
BRANCH  20  21
HETATM   21  C   UNK N   1      21.378  13.502   9.071  0.00  0.00     0.001 C 
BRANCH  21  22
HETATM   22  C   UNK N   1      21.417  12.887  10.466  0.00  0.00     0.000 C 
BRANCH  22  23
HETATM   23  C   UNK N   1      22.363  11.691  10.533  0.00  0.00    -0.000 C 
BRANCH  23  24
HETATM   24  C   UNK N   1      23.493  11.914  11.527  0.00  0.00    -0.005 C 
HETATM   25  C   UNK N   1      24.776  12.299  10.816  0.00  0.00     0.005 C 
ENDBRANCH  23  24
ENDBRANCH  22  23
ENDBRANCH  21  22
ENDBRANCH  20  21
ENDBRANCH  17  20
ENDBRANCH   9  17
BRANCH  12  26
HETATM   26  O   UNK N   1      20.718  17.621   5.505  0.00  0.00    -0.360 OA
HETATM   27  H   UNK N   1      19.843  17.410   5.762  0.00  0.00     0.217 HD
ENDBRANCH  12  26
BRANCH   8  28
HETATM   28  C   UNK N   1      21.670  20.624   2.496  0.00  0.00     0.171 C 
HETATM   29  O   UNK N   1      21.512  20.807   1.301  0.00  0.00    -0.646 OA
BRANCH  28  30
HETATM   30  O   UNK N   1      20.747  21.083   3.365  0.00  0.00    -0.773 OA
HETATM   31  H   UNK N   1      20.139  20.519   3.801  0.00  0.00     0.167 HD
ENDBRANCH  28  30
ENDBRANCH   8  28
TORSDOF 9
ENDMDL
