MODEL 1
REMARK VINA RESULT:      -7.8      0.000      0.000
REMARK  10 active torsions:
REMARK  status: ('A' for Active; 'I' for Inactive)
REMARK    1  A    between atoms: N_2  and  C_3 
REMARK       I    between atoms: N_2  and  C_19 
REMARK    2  A    between atoms: C_3  and  C_4 
REMARK    3  A    between atoms: C_4  and  C_5 
REMARK    4  A    between atoms: C_7  and  C_15 
REMARK    5  A    between atoms: C_9  and  C_11 
REMARK    6  A    between atoms: C_21  and  C_19 
REMARK    7  A    between atoms: C_21  and  C_22 
REMARK    8  A    between atoms: C_21  and  N_28 
REMARK    9  A    between atoms: N_31  and  C_34 
REMARK   10  A    between atoms: C_34  and  C_35 
ROOT
HETATM    1  C   UNK N   1      29.715  14.270   2.716  0.00  0.00     0.152 C 
HETATM    2  N   UNK N   1      28.807  14.847   3.678  0.00  0.00    -0.354 N 
HETATM    3  C   UNK N   1      27.627  15.389   3.272  0.00  0.00     0.246 C 
HETATM    4  O   UNK N   1      27.326  15.371   2.084  0.00  0.00    -0.271 OA
ENDROOT
BRANCH   3   5
HETATM    5  C   UNK N   1      26.752  16.122   4.261  0.00  0.00     0.206 C 
BRANCH   5   6
HETATM    6  C   UNK N   1      26.824  17.605   4.036  0.00  0.00    -0.027 A 
HETATM    7  C   UNK N   1      25.738  18.255   3.441  0.00  0.00     0.010 A 
HETATM    8  C   UNK N   1      25.709  19.650   3.365  0.00  0.00     0.001 A 
HETATM    9  C   UNK N   1      26.763  20.399   3.894  0.00  0.00     0.000 A 
HETATM   10  C   UNK N   1      27.846  19.754   4.497  0.00  0.00     0.001 A 
HETATM   11  C   UNK N   1      27.871  18.359   4.580  0.00  0.00     0.010 A 
ENDBRANCH   5   6
BRANCH   5  12
HETATM   12  N   UNK N   1      25.479  15.504   4.730  0.00  0.00    -0.393 N 
HETATM   13  C   UNK N   1      25.301  14.071   4.479  0.00  0.00     0.137 C 
HETATM   14  C   UNK N   1      26.040  13.228   5.516  0.00  0.00     0.136 C 
HETATM   15  N   UNK N   1      25.717  13.612   6.894  0.00  0.00    -0.409 N 
HETATM   16  C   UNK N   1      25.720  15.055   7.161  0.00  0.00     0.136 C 
HETATM   17  C   UNK N   1      25.009  15.869   6.070  0.00  0.00     0.137 C 
BRANCH  15  18
HETATM   18  C   UNK N   1      24.590  12.873   7.473  0.00  0.00     0.121 C 
BRANCH  18  19
HETATM   19  C   UNK N   1      24.588  12.837   8.994  0.00  0.00     0.003 A 
HETATM   20  C   UNK N   1      23.196  13.188   9.477  0.00  0.00     0.007 A 
HETATM   21  C   UNK N   1      23.650  11.744   9.469  0.00  0.00     0.007 A 
ENDBRANCH  18  19
ENDBRANCH  15  18
ENDBRANCH   5  12
ENDBRANCH   3   5
BRANCH   2  22
HETATM   22  C   UNK N   1      29.210  14.904   5.074  0.00  0.00     0.130 C 
BRANCH  22  23
HETATM   23  C   UNK N   1      30.694  15.250   5.199  0.00  0.00     0.058 C 
BRANCH  23  24
HETATM   24  C   UNK N   1      30.871  16.095   6.408  0.00  0.00    -0.055 A 
HETATM   25  C   UNK N   1      32.158  16.443   6.821  0.00  0.00     0.023 A 
HETATM   26  C   UNK N   1      32.337  17.398   7.828  0.00  0.00     0.049 A 
HETATM   27  C   UNK N   1      31.213  17.993   8.425  0.00  0.00     0.032 A 
HETATM   28  C   UNK N   1      29.920  17.624   8.027  0.00  0.00     0.049 A 
HETATM   29  C   UNK N   1      29.757  16.683   7.009  0.00  0.00     0.023 A 
BRANCH  26  30
HETATM   30  C   UNK N   1      33.728  17.806   8.216  0.00  0.00     0.417 C 
HETATM   31  F   UNK N   1      33.860  19.184   8.213  0.00  0.00    -0.166 F 
HETATM   32  F   UNK N   1      34.014  17.328   9.480  0.00  0.00    -0.166 F 
HETATM   33  F   UNK N   1      34.635  17.274   7.314  0.00  0.00    -0.166 F 
ENDBRANCH  26  30
BRANCH  28  34
HETATM   34  C   UNK N   1      28.721  18.258   8.669  0.00  0.00     0.417 C 
HETATM   35  F   UNK N   1      27.735  17.306   8.851  0.00  0.00    -0.166 F 
HETATM   36  F   UNK N   1      28.241  19.263   7.852  0.00  0.00    -0.166 F 
HETATM   37  F   UNK N   1      29.046  18.802   9.901  0.00  0.00    -0.166 F 
ENDBRANCH  28  34
ENDBRANCH  23  24
ENDBRANCH  22  23
ENDBRANCH   2  22
TORSDOF 10
ENDMDL
MODEL 2
REMARK VINA RESULT:      -7.8      0.222      2.961
REMARK  10 active torsions:
REMARK  status: ('A' for Active; 'I' for Inactive)
REMARK    1  A    between atoms: N_2  and  C_3 
REMARK       I    between atoms: N_2  and  C_19 
REMARK    2  A    between atoms: C_3  and  C_4 
REMARK    3  A    between atoms: C_4  and  C_5 
REMARK    4  A    between atoms: C_7  and  C_15 
REMARK    5  A    between atoms: C_9  and  C_11 
REMARK    6  A    between atoms: C_21  and  C_19 
REMARK    7  A    between atoms: C_21  and  C_22 
REMARK    8  A    between atoms: C_21  and  N_28 
REMARK    9  A    between atoms: N_31  and  C_34 
REMARK   10  A    between atoms: C_34  and  C_35 
ROOT
HETATM    1  C   UNK N   1      29.523  14.495   2.745  0.00  0.00     0.152 C 
HETATM    2  N   UNK N   1      28.594  14.987   3.732  0.00  0.00    -0.354 N 
HETATM    3  C   UNK N   1      27.391  15.498   3.352  0.00  0.00     0.246 C 
HETATM    4  O   UNK N   1      27.090  15.523   2.165  0.00  0.00    -0.271 OA
ENDROOT
BRANCH   3   5
HETATM    5  C   UNK N   1      26.488  16.146   4.374  0.00  0.00     0.206 C 
BRANCH   5   6
HETATM    6  C   UNK N   1      26.471  17.637   4.198  0.00  0.00    -0.027 A 
HETATM    7  C   UNK N   1      27.591  18.380   4.586  0.00  0.00     0.010 A 
HETATM    8  C   UNK N   1      27.669  19.743   4.288  0.00  0.00     0.001 A 
HETATM    9  C   UNK N   1      26.630  20.365   3.591  0.00  0.00     0.000 A 
HETATM   10  C   UNK N   1      25.512  19.625   3.194  0.00  0.00     0.001 A 
HETATM   11  C   UNK N   1      25.439  18.260   3.484  0.00  0.00     0.010 A 
ENDBRANCH   5   6
BRANCH   5  12
HETATM   12  N   UNK N   1      25.259  15.441   4.836  0.00  0.00    -0.393 N 
HETATM   13  C   UNK N   1      25.161  14.008   4.541  0.00  0.00     0.137 C 
HETATM   14  C   UNK N   1      25.961  13.178   5.543  0.00  0.00     0.136 C 
HETATM   15  N   UNK N   1      25.632  13.499   6.936  0.00  0.00    -0.409 N 
HETATM   16  C   UNK N   1      25.555  14.930   7.249  0.00  0.00     0.136 C 
HETATM   17  C   UNK N   1      24.785  15.735   6.192  0.00  0.00     0.137 C 
BRANCH  15  18
HETATM   18  C   UNK N   1      24.558  12.677   7.502  0.00  0.00     0.121 C 
BRANCH  18  19
HETATM   19  C   UNK N   1      24.498  12.695   9.022  0.00  0.00     0.003 A 
HETATM   20  C   UNK N   1      23.117  13.156   9.440  0.00  0.00     0.007 A 
HETATM   21  C   UNK N   1      23.472  11.685   9.497  0.00  0.00     0.007 A 
ENDBRANCH  18  19
ENDBRANCH  15  18
ENDBRANCH   5  12
ENDBRANCH   3   5
BRANCH   2  22
HETATM   22  C   UNK N   1      28.996  14.995   5.130  0.00  0.00     0.130 C 
BRANCH  22  23
HETATM   23  C   UNK N   1      30.505  15.201   5.262  0.00  0.00     0.058 C 
BRANCH  23  24
HETATM   24  C   UNK N   1      30.739  16.274   6.262  0.00  0.00    -0.055 A 
HETATM   25  C   UNK N   1      29.652  16.843   6.927  0.00  0.00     0.023 A 
HETATM   26  C   UNK N   1      29.864  17.702   8.010  0.00  0.00     0.049 A 
HETATM   27  C   UNK N   1      31.177  17.995   8.413  0.00  0.00     0.032 A 
HETATM   28  C   UNK N   1      32.270  17.444   7.728  0.00  0.00     0.049 A 
HETATM   29  C   UNK N   1      32.043  16.574   6.662  0.00  0.00     0.023 A 
BRANCH  26  30
HETATM   30  C   UNK N   1      28.683  18.255   8.753  0.00  0.00     0.417 C 
HETATM   31  F   UNK N   1      28.030  19.216   8.001  0.00  0.00    -0.166 F 
HETATM   32  F   UNK N   1      27.801  17.233   9.044  0.00  0.00    -0.166 F 
HETATM   33  F   UNK N   1      29.111  18.835   9.936  0.00  0.00    -0.166 F 
ENDBRANCH  26  30
BRANCH  28  34
HETATM   34  C   UNK N   1      33.672  17.762   8.159  0.00  0.00     0.417 C 
HETATM   35  F   UNK N   1      33.833  19.133   8.239  0.00  0.00    -0.166 F 
HETATM   36  F   UNK N   1      34.563  17.249   7.237  0.00  0.00    -0.166 F 
HETATM   37  F   UNK N   1      33.948  17.210   9.400  0.00  0.00    -0.166 F 
ENDBRANCH  28  34
ENDBRANCH  23  24
ENDBRANCH  22  23
ENDBRANCH   2  22
TORSDOF 10
ENDMDL
MODEL 3
REMARK VINA RESULT:      -7.5      2.925      4.627
REMARK  10 active torsions:
REMARK  status: ('A' for Active; 'I' for Inactive)
REMARK    1  A    between atoms: N_2  and  C_3 
REMARK       I    between atoms: N_2  and  C_19 
REMARK    2  A    between atoms: C_3  and  C_4 
REMARK    3  A    between atoms: C_4  and  C_5 
REMARK    4  A    between atoms: C_7  and  C_15 
REMARK    5  A    between atoms: C_9  and  C_11 
REMARK    6  A    between atoms: C_21  and  C_19 
REMARK    7  A    between atoms: C_21  and  C_22 
REMARK    8  A    between atoms: C_21  and  N_28 
REMARK    9  A    between atoms: N_31  and  C_34 
REMARK   10  A    between atoms: C_34  and  C_35 
ROOT
HETATM    1  C   UNK N   1      26.160  15.550   2.740  0.00  0.00     0.152 C 
HETATM    2  N   UNK N   1      25.047  15.787   3.628  0.00  0.00    -0.354 N 
HETATM    3  C   UNK N   1      23.781  15.465   3.246  0.00  0.00     0.246 C 
HETATM    4  O   UNK N   1      23.588  14.954   2.149  0.00  0.00    -0.271 OA
ENDROOT
BRANCH   3   5
HETATM    5  C   UNK N   1      22.608  15.851   4.116  0.00  0.00     0.206 C 
BRANCH   5   6
HETATM    6  C   UNK N   1      21.903  17.052   3.554  0.00  0.00    -0.027 A 
HETATM    7  C   UNK N   1      20.845  16.861   2.659  0.00  0.00     0.010 A 
HETATM    8  C   UNK N   1      20.069  17.947   2.245  0.00  0.00     0.001 A 
HETATM    9  C   UNK N   1      20.345  19.227   2.733  0.00  0.00     0.000 A 
HETATM   10  C   UNK N   1      21.396  19.421   3.634  0.00  0.00     0.001 A 
HETATM   11  C   UNK N   1      22.166  18.333   4.055  0.00  0.00     0.010 A 
ENDBRANCH   5   6
BRANCH   5  12
HETATM   12  N   UNK N   1      21.827  14.798   4.824  0.00  0.00    -0.393 N 
HETATM   13  C   UNK N   1      22.564  13.618   5.286  0.00  0.00     0.137 C 
HETATM   14  C   UNK N   1      23.295  13.895   6.598  0.00  0.00     0.136 C 
HETATM   15  N   UNK N   1      22.417  14.460   7.627  0.00  0.00    -0.409 N 
HETATM   16  C   UNK N   1      21.534  15.542   7.176  0.00  0.00     0.136 C 
HETATM   17  C   UNK N   1      20.858  15.242   5.830  0.00  0.00     0.137 C 
BRANCH  15  18
HETATM   18  C   UNK N   1      21.784  13.457   8.490  0.00  0.00     0.121 C 
BRANCH  18  19
HETATM   19  C   UNK N   1      22.453  13.295   9.847  0.00  0.00     0.003 A 
HETATM   20  C   UNK N   1      21.528  12.494  10.742  0.00  0.00     0.007 A 
HETATM   21  C   UNK N   1      22.725  11.824  10.100  0.00  0.00     0.007 A 
ENDBRANCH  18  19
ENDBRANCH  15  18
ENDBRANCH   5  12
ENDBRANCH   3   5
BRANCH   2  22
HETATM   22  C   UNK N   1      25.295  16.442   4.903  0.00  0.00     0.130 C 
BRANCH  22  23
HETATM   23  C   UNK N   1      26.585  15.924   5.540  0.00  0.00     0.058 C 
BRANCH  23  24
HETATM   24  C   UNK N   1      27.270  17.068   6.192  0.00  0.00    -0.055 A 
HETATM   25  C   UNK N   1      27.051  18.362   5.717  0.00  0.00     0.023 A 
HETATM   26  C   UNK N   1      27.521  19.464   6.440  0.00  0.00     0.049 A 
HETATM   27  C   UNK N   1      28.224  19.255   7.638  0.00  0.00     0.032 A 
HETATM   28  C   UNK N   1      28.467  17.954   8.102  0.00  0.00     0.049 A 
HETATM   29  C   UNK N   1      27.975  16.866   7.380  0.00  0.00     0.023 A 
BRANCH  26  30
HETATM   30  C   UNK N   1      27.222  20.849   5.948  0.00  0.00     0.417 C 
HETATM   31  F   UNK N   1      25.989  21.282   6.403  0.00  0.00    -0.166 F 
HETATM   32  F   UNK N   1      28.198  21.719   6.393  0.00  0.00    -0.166 F 
HETATM   33  F   UNK N   1      27.208  20.855   4.562  0.00  0.00    -0.166 F 
ENDBRANCH  26  30
BRANCH  28  34
HETATM   34  C   UNK N   1      29.221  17.734   9.380  0.00  0.00     0.417 C 
HETATM   35  F   UNK N   1      30.436  17.136   9.104  0.00  0.00    -0.166 F 
HETATM   36  F   UNK N   1      28.485  16.914  10.212  0.00  0.00    -0.166 F 
HETATM   37  F   UNK N   1      29.455  18.935  10.032  0.00  0.00    -0.166 F 
ENDBRANCH  28  34
ENDBRANCH  23  24
ENDBRANCH  22  23
ENDBRANCH   2  22
TORSDOF 10
ENDMDL
MODEL 4
REMARK VINA RESULT:      -7.4      2.935      4.322
REMARK  10 active torsions:
REMARK  status: ('A' for Active; 'I' for Inactive)
REMARK    1  A    between atoms: N_2  and  C_3 
REMARK       I    between atoms: N_2  and  C_19 
REMARK    2  A    between atoms: C_3  and  C_4 
REMARK    3  A    between atoms: C_4  and  C_5 
REMARK    4  A    between atoms: C_7  and  C_15 
REMARK    5  A    between atoms: C_9  and  C_11 
REMARK    6  A    between atoms: C_21  and  C_19 
REMARK    7  A    between atoms: C_21  and  C_22 
REMARK    8  A    between atoms: C_21  and  N_28 
REMARK    9  A    between atoms: N_31  and  C_34 
REMARK   10  A    between atoms: C_34  and  C_35 
ROOT
HETATM    1  C   UNK N   1      26.160  15.557   2.449  0.00  0.00     0.152 C 
HETATM    2  N   UNK N   1      25.088  15.757   3.394  0.00  0.00    -0.354 N 
HETATM    3  C   UNK N   1      23.813  15.407   3.073  0.00  0.00     0.246 C 
HETATM    4  O   UNK N   1      23.577  14.903   1.981  0.00  0.00    -0.271 OA
ENDROOT
BRANCH   3   5
HETATM    5  C   UNK N   1      22.676  15.756   4.004  0.00  0.00     0.206 C 
BRANCH   5   6
HETATM    6  C   UNK N   1      21.905  16.935   3.483  0.00  0.00    -0.027 A 
HETATM    7  C   UNK N   1      20.766  16.710   2.702  0.00  0.00     0.010 A 
HETATM    8  C   UNK N   1      19.941  17.778   2.338  0.00  0.00     0.001 A 
HETATM    9  C   UNK N   1      20.248  19.073   2.765  0.00  0.00     0.000 A 
HETATM   10  C   UNK N   1      21.381  19.300   3.552  0.00  0.00     0.001 A 
HETATM   11  C   UNK N   1      22.201  18.231   3.923  0.00  0.00     0.010 A 
ENDBRANCH   5   6
BRANCH   5  12
HETATM   12  N   UNK N   1      21.967  14.678   4.750  0.00  0.00    -0.393 N 
HETATM   13  C   UNK N   1      22.739  13.477   5.082  0.00  0.00     0.137 C 
HETATM   14  C   UNK N   1      23.609  13.699   6.318  0.00  0.00     0.136 C 
HETATM   15  N   UNK N   1      22.851  14.224   7.458  0.00  0.00    -0.409 N 
HETATM   16  C   UNK N   1      21.933  15.327   7.147  0.00  0.00     0.136 C 
HETATM   17  C   UNK N   1      21.114  15.085   5.871  0.00  0.00     0.137 C 
BRANCH  15  18
HETATM   18  C   UNK N   1      22.306  13.190   8.343  0.00  0.00     0.121 C 
BRANCH  18  19
HETATM   19  C   UNK N   1      22.133  13.637   9.787  0.00  0.00     0.003 A 
HETATM   20  C   UNK N   1      20.743  13.246  10.244  0.00  0.00     0.007 A 
HETATM   21  C   UNK N   1      21.937  12.419  10.669  0.00  0.00     0.007 A 
ENDBRANCH  18  19
ENDBRANCH  15  18
ENDBRANCH   5  12
ENDBRANCH   3   5
BRANCH   2  22
HETATM   22  C   UNK N   1      25.384  16.406   4.662  0.00  0.00     0.130 C 
BRANCH  22  23
HETATM   23  C   UNK N   1      26.876  16.319   4.983  0.00  0.00     0.058 C 
BRANCH  23  24
HETATM   24  C   UNK N   1      27.198  17.379   5.972  0.00  0.00    -0.055 A 
HETATM   25  C   UNK N   1      27.905  17.048   7.129  0.00  0.00     0.023 A 
HETATM   26  C   UNK N   1      28.393  18.058   7.966  0.00  0.00     0.049 A 
HETATM   27  C   UNK N   1      28.155  19.403   7.637  0.00  0.00     0.032 A 
HETATM   28  C   UNK N   1      27.422  19.734   6.489  0.00  0.00     0.049 A 
HETATM   29  C   UNK N   1      26.959  18.717   5.653  0.00  0.00     0.023 A 
BRANCH  26  30
HETATM   30  C   UNK N   1      29.204  17.686   9.172  0.00  0.00     0.417 C 
HETATM   31  F   UNK N   1      28.423  17.042  10.116  0.00  0.00    -0.166 F 
HETATM   32  F   UNK N   1      30.237  16.850   8.794  0.00  0.00    -0.166 F 
HETATM   33  F   UNK N   1      29.734  18.830   9.744  0.00  0.00    -0.166 F 
ENDBRANCH  26  30
BRANCH  28  34
HETATM   34  C   UNK N   1      27.167  21.171   6.142  0.00  0.00     0.417 C 
HETATM   35  F   UNK N   1      26.968  21.292   4.780  0.00  0.00    -0.166 F 
HETATM   36  F   UNK N   1      28.257  21.935   6.515  0.00  0.00    -0.166 F 
HETATM   37  F   UNK N   1      26.044  21.649   6.799  0.00  0.00    -0.166 F 
ENDBRANCH  28  34
ENDBRANCH  23  24
ENDBRANCH  22  23
ENDBRANCH   2  22
TORSDOF 10
ENDMDL
MODEL 5
REMARK VINA RESULT:      -7.3     13.615     16.087
REMARK  10 active torsions:
REMARK  status: ('A' for Active; 'I' for Inactive)
REMARK    1  A    between atoms: N_2  and  C_3 
REMARK       I    between atoms: N_2  and  C_19 
REMARK    2  A    between atoms: C_3  and  C_4 
REMARK    3  A    between atoms: C_4  and  C_5 
REMARK    4  A    between atoms: C_7  and  C_15 
REMARK    5  A    between atoms: C_9  and  C_11 
REMARK    6  A    between atoms: C_21  and  C_19 
REMARK    7  A    between atoms: C_21  and  C_22 
REMARK    8  A    between atoms: C_21  and  N_28 
REMARK    9  A    between atoms: N_31  and  C_34 
REMARK   10  A    between atoms: C_34  and  C_35 
ROOT
HETATM    1  C   UNK N   1      25.499  25.937  -9.583  0.00  0.00     0.152 C 
HETATM    2  N   UNK N   1      26.494  25.111  -8.943  0.00  0.00    -0.354 N 
HETATM    3  C   UNK N   1      26.128  23.973  -8.292  0.00  0.00     0.246 C 
HETATM    4  O   UNK N   1      24.949  23.640  -8.265  0.00  0.00    -0.271 OA
ENDROOT
BRANCH   3   5
HETATM    5  C   UNK N   1      27.151  23.194  -7.500  0.00  0.00     0.206 C 
BRANCH   5   6
HETATM    6  C   UNK N   1      27.202  23.677  -6.079  0.00  0.00    -0.027 A 
HETATM    7  C   UNK N   1      26.011  24.040  -5.442  0.00  0.00     0.010 A 
HETATM    8  C   UNK N   1      26.007  24.340  -4.077  0.00  0.00     0.001 A 
HETATM    9  C   UNK N   1      27.193  24.265  -3.343  0.00  0.00     0.000 A 
HETATM   10  C   UNK N   1      28.384  23.894  -3.974  0.00  0.00     0.001 A 
HETATM   11  C   UNK N   1      28.387  23.587  -5.337  0.00  0.00     0.010 A 
ENDBRANCH   5   6
BRANCH   5  12
HETATM   12  N   UNK N   1      27.387  21.753  -7.802  0.00  0.00    -0.393 N 
HETATM   13  C   UNK N   1      26.901  21.253  -9.091  0.00  0.00     0.137 C 
HETATM   14  C   UNK N   1      27.865  21.603 -10.223  0.00  0.00     0.136 C 
HETATM   15  N   UNK N   1      29.245  21.200  -9.938  0.00  0.00    -0.409 N 
HETATM   16  C   UNK N   1      29.732  21.533  -8.593  0.00  0.00     0.136 C 
HETATM   17  C   UNK N   1      28.713  21.210  -7.490  0.00  0.00     0.137 C 
BRANCH  15  18
HETATM   18  C   UNK N   1      29.586  19.854 -10.409  0.00  0.00     0.121 C 
BRANCH  18  19
HETATM   19  C   UNK N   1      30.734  19.203  -9.652  0.00  0.00     0.003 A 
HETATM   20  C   UNK N   1      30.185  18.026  -8.872  0.00  0.00     0.007 A 
HETATM   21  C   UNK N   1      30.938  17.791 -10.165  0.00  0.00     0.007 A 
ENDBRANCH  18  19
ENDBRANCH  15  18
ENDBRANCH   5  12
ENDBRANCH   3   5
BRANCH   2  22
HETATM   22  C   UNK N   1      27.879  25.554  -8.944  0.00  0.00     0.130 C 
BRANCH  22  23
HETATM   23  C   UNK N   1      27.980  27.025  -8.537  0.00  0.00     0.058 C 
BRANCH  23  24
HETATM   24  C   UNK N   1      28.021  27.092  -7.054  0.00  0.00    -0.055 A 
HETATM   25  C   UNK N   1      29.241  26.948  -6.393  0.00  0.00     0.023 A 
HETATM   26  C   UNK N   1      29.331  27.210  -5.021  0.00  0.00     0.049 A 
HETATM   27  C   UNK N   1      28.182  27.607  -4.317  0.00  0.00     0.032 A 
HETATM   28  C   UNK N   1      26.950  27.726  -4.977  0.00  0.00     0.049 A 
HETATM   29  C   UNK N   1      26.880  27.480  -6.348  0.00  0.00     0.023 A 
BRANCH  26  30
HETATM   30  C   UNK N   1      30.663  27.112  -4.339  0.00  0.00     0.417 C 
HETATM   31  F   UNK N   1      31.619  27.860  -5.005  0.00  0.00    -0.166 F 
HETATM   32  F   UNK N   1      30.554  27.573  -3.042  0.00  0.00    -0.166 F 
HETATM   33  F   UNK N   1      31.075  25.789  -4.317  0.00  0.00    -0.166 F 
ENDBRANCH  26  30
BRANCH  28  34
HETATM   34  C   UNK N   1      25.724  28.147  -4.221  0.00  0.00     0.417 C 
HETATM   35  F   UNK N   1      24.599  27.885  -4.980  0.00  0.00    -0.166 F 
HETATM   36  F   UNK N   1      25.791  29.501  -3.954  0.00  0.00    -0.166 F 
HETATM   37  F   UNK N   1      25.620  27.461  -3.022  0.00  0.00    -0.166 F 
ENDBRANCH  28  34
ENDBRANCH  23  24
ENDBRANCH  22  23
ENDBRANCH   2  22
TORSDOF 10
ENDMDL
MODEL 6
REMARK VINA RESULT:      -7.1      5.086      7.896
REMARK  10 active torsions:
REMARK  status: ('A' for Active; 'I' for Inactive)
REMARK    1  A    between atoms: N_2  and  C_3 
REMARK       I    between atoms: N_2  and  C_19 
REMARK    2  A    between atoms: C_3  and  C_4 
REMARK    3  A    between atoms: C_4  and  C_5 
REMARK    4  A    between atoms: C_7  and  C_15 
REMARK    5  A    between atoms: C_9  and  C_11 
REMARK    6  A    between atoms: C_21  and  C_19 
REMARK    7  A    between atoms: C_21  and  C_22 
REMARK    8  A    between atoms: C_21  and  N_28 
REMARK    9  A    between atoms: N_31  and  C_34 
REMARK   10  A    between atoms: C_34  and  C_35 
ROOT
HETATM    1  C   UNK N   1      20.767  16.777   7.508  0.00  0.00     0.152 C 
HETATM    2  N   UNK N   1      21.595  15.675   7.082  0.00  0.00    -0.354 N 
HETATM    3  C   UNK N   1      21.243  14.394   7.377  0.00  0.00     0.246 C 
HETATM    4  O   UNK N   1      20.208  14.175   7.994  0.00  0.00    -0.271 OA
ENDROOT
BRANCH   3   5
HETATM    5  C   UNK N   1      22.187  13.259   7.060  0.00  0.00     0.206 C 
BRANCH   5   6
HETATM    6  C   UNK N   1      22.885  12.785   8.302  0.00  0.00    -0.027 A 
HETATM    7  C   UNK N   1      24.162  13.276   8.594  0.00  0.00     0.010 A 
HETATM    8  C   UNK N   1      24.768  12.979   9.817  0.00  0.00     0.001 A 
HETATM    9  C   UNK N   1      24.092  12.198  10.758  0.00  0.00     0.000 A 
HETATM   10  C   UNK N   1      22.812  11.712  10.474  0.00  0.00     0.001 A 
HETATM   11  C   UNK N   1      22.203  12.016   9.254  0.00  0.00     0.010 A 
ENDBRANCH   5   6
BRANCH   5  12
HETATM   12  N   UNK N   1      21.845  12.285   5.985  0.00  0.00    -0.393 N 
HETATM   13  C   UNK N   1      20.790  12.672   5.044  0.00  0.00     0.137 C 
HETATM   14  C   UNK N   1      21.325  13.610   3.963  0.00  0.00     0.136 C 
HETATM   15  N   UNK N   1      22.520  13.083   3.297  0.00  0.00    -0.409 N 
HETATM   16  C   UNK N   1      23.544  12.529   4.190  0.00  0.00     0.136 C 
HETATM   17  C   UNK N   1      22.959  11.632   5.290  0.00  0.00     0.137 C 
BRANCH  15  18
HETATM   18  C   UNK N   1      22.236  12.283   2.101  0.00  0.00     0.121 C 
BRANCH  18  19
HETATM   19  C   UNK N   1      22.069  13.104   0.831  0.00  0.00     0.003 A 
HETATM   20  C   UNK N   1      23.062  14.248   0.869  0.00  0.00     0.007 A 
HETATM   21  C   UNK N   1      23.346  13.030   0.014  0.00  0.00     0.007 A 
ENDBRANCH  18  19
ENDBRANCH  15  18
ENDBRANCH   5  12
ENDBRANCH   3   5
BRANCH   2  22
HETATM   22  C   UNK N   1      22.846  15.964   6.398  0.00  0.00     0.130 C 
BRANCH  22  23
HETATM   23  C   UNK N   1      22.609  16.872   5.190  0.00  0.00     0.058 C 
BRANCH  23  24
HETATM   24  C   UNK N   1      23.926  17.168   4.571  0.00  0.00    -0.055 A 
HETATM   25  C   UNK N   1      24.564  16.187   3.810  0.00  0.00     0.023 A 
HETATM   26  C   UNK N   1      25.697  16.512   3.055  0.00  0.00     0.049 A 
HETATM   27  C   UNK N   1      26.190  17.826   3.079  0.00  0.00     0.032 A 
HETATM   28  C   UNK N   1      25.564  18.806   3.864  0.00  0.00     0.049 A 
HETATM   29  C   UNK N   1      24.425  18.472   4.597  0.00  0.00     0.023 A 
BRANCH  26  30
HETATM   30  C   UNK N   1      26.333  15.460   2.194  0.00  0.00     0.417 C 
HETATM   31  F   UNK N   1      26.005  15.644   0.862  0.00  0.00    -0.166 F 
HETATM   32  F   UNK N   1      27.706  15.517   2.333  0.00  0.00    -0.166 F 
HETATM   33  F   UNK N   1      25.889  14.208   2.589  0.00  0.00    -0.166 F 
ENDBRANCH  26  30
BRANCH  28  34
HETATM   34  C   UNK N   1      26.096  20.208   3.890  0.00  0.00     0.417 C 
HETATM   35  F   UNK N   1      25.632  20.900   2.787  0.00  0.00    -0.166 F 
HETATM   36  F   UNK N   1      27.477  20.177   3.864  0.00  0.00    -0.166 F 
HETATM   37  F   UNK N   1      25.687  20.874   5.035  0.00  0.00    -0.166 F 
ENDBRANCH  28  34
ENDBRANCH  23  24
ENDBRANCH  22  23
ENDBRANCH   2  22
TORSDOF 10
ENDMDL
MODEL 7
REMARK VINA RESULT:      -6.9     13.454     16.519
REMARK  10 active torsions:
REMARK  status: ('A' for Active; 'I' for Inactive)
REMARK    1  A    between atoms: N_2  and  C_3 
REMARK       I    between atoms: N_2  and  C_19 
REMARK    2  A    between atoms: C_3  and  C_4 
REMARK    3  A    between atoms: C_4  and  C_5 
REMARK    4  A    between atoms: C_7  and  C_15 
REMARK    5  A    between atoms: C_9  and  C_11 
REMARK    6  A    between atoms: C_21  and  C_19 
REMARK    7  A    between atoms: C_21  and  C_22 
REMARK    8  A    between atoms: C_21  and  N_28 
REMARK    9  A    between atoms: N_31  and  C_34 
REMARK   10  A    between atoms: C_34  and  C_35 
ROOT
HETATM    1  C   UNK N   1      31.389  26.016  -8.701  0.00  0.00     0.152 C 
HETATM    2  N   UNK N   1      30.774  25.667  -7.444  0.00  0.00    -0.354 N 
HETATM    3  C   UNK N   1      30.499  24.366  -7.150  0.00  0.00     0.246 C 
HETATM    4  O   UNK N   1      30.792  23.487  -7.951  0.00  0.00    -0.271 OA
ENDROOT
BRANCH   3   5
HETATM    5  C   UNK N   1      29.722  24.022  -5.902  0.00  0.00     0.206 C 
BRANCH   5   6
HETATM    6  C   UNK N   1      28.290  23.717  -6.235  0.00  0.00    -0.027 A 
HETATM    7  C   UNK N   1      27.999  23.031  -7.419  0.00  0.00     0.010 A 
HETATM    8  C   UNK N   1      26.697  22.595  -7.678  0.00  0.00     0.001 A 
HETATM    9  C   UNK N   1      25.684  22.834  -6.746  0.00  0.00     0.000 A 
HETATM   10  C   UNK N   1      25.972  23.511  -5.558  0.00  0.00     0.001 A 
HETATM   11  C   UNK N   1      27.275  23.940  -5.296  0.00  0.00     0.010 A 
ENDBRANCH   5   6
BRANCH   5  12
HETATM   12  N   UNK N   1      30.392  23.301  -4.783  0.00  0.00    -0.393 N 
HETATM   13  C   UNK N   1      30.115  21.867  -4.652  0.00  0.00     0.137 C 
HETATM   14  C   UNK N   1      30.957  21.046  -5.626  0.00  0.00     0.136 C 
HETATM   15  N   UNK N   1      32.387  21.362  -5.545  0.00  0.00    -0.409 N 
HETATM   16  C   UNK N   1      32.713  22.793  -5.507  0.00  0.00     0.136 C 
HETATM   17  C   UNK N   1      31.811  23.588  -4.552  0.00  0.00     0.137 C 
BRANCH  15  18
HETATM   18  C   UNK N   1      33.132  20.527  -4.598  0.00  0.00     0.121 C 
BRANCH  18  19
HETATM   19  C   UNK N   1      33.796  19.313  -5.231  0.00  0.00     0.003 A 
HETATM   20  C   UNK N   1      35.251  19.292  -4.811  0.00  0.00     0.007 A 
HETATM   21  C   UNK N   1      34.258  18.367  -4.139  0.00  0.00     0.007 A 
ENDBRANCH  18  19
ENDBRANCH  15  18
ENDBRANCH   5  12
ENDBRANCH   3   5
BRANCH   2  22
HETATM   22  C   UNK N   1      30.387  26.732  -6.533  0.00  0.00     0.130 C 
BRANCH  22  23
HETATM   23  C   UNK N   1      29.683  27.863  -7.285  0.00  0.00     0.058 C 
BRANCH  23  24
HETATM   24  C   UNK N   1      28.241  27.522  -7.386  0.00  0.00    -0.055 A 
HETATM   25  C   UNK N   1      27.769  26.862  -8.521  0.00  0.00     0.023 A 
HETATM   26  C   UNK N   1      26.465  26.354  -8.545  0.00  0.00     0.049 A 
HETATM   27  C   UNK N   1      25.635  26.525  -7.424  0.00  0.00     0.032 A 
HETATM   28  C   UNK N   1      26.102  27.212  -6.294  0.00  0.00     0.049 A 
HETATM   29  C   UNK N   1      27.410  27.696  -6.277  0.00  0.00     0.023 A 
BRANCH  26  30
HETATM   30  C   UNK N   1      25.994  25.593  -9.749  0.00  0.00     0.417 C 
HETATM   31  F   UNK N   1      25.596  26.454 -10.757  0.00  0.00    -0.166 F 
HETATM   32  F   UNK N   1      27.017  24.792 -10.219  0.00  0.00    -0.166 F 
HETATM   33  F   UNK N   1      24.918  24.794  -9.400  0.00  0.00    -0.166 F 
ENDBRANCH  26  30
BRANCH  28  34
HETATM   34  C   UNK N   1      25.213  27.396  -5.100  0.00  0.00     0.417 C 
HETATM   35  F   UNK N   1      23.891  27.260  -5.481  0.00  0.00    -0.166 F 
HETATM   36  F   UNK N   1      25.409  28.656  -4.570  0.00  0.00    -0.166 F 
HETATM   37  F   UNK N   1      25.491  26.454  -4.122  0.00  0.00    -0.166 F 
ENDBRANCH  28  34
ENDBRANCH  23  24
ENDBRANCH  22  23
ENDBRANCH   2  22
TORSDOF 10
ENDMDL
MODEL 8
REMARK VINA RESULT:      -6.9      4.684      8.110
REMARK  10 active torsions:
REMARK  status: ('A' for Active; 'I' for Inactive)
REMARK    1  A    between atoms: N_2  and  C_3 
REMARK       I    between atoms: N_2  and  C_19 
REMARK    2  A    between atoms: C_3  and  C_4 
REMARK    3  A    between atoms: C_4  and  C_5 
REMARK    4  A    between atoms: C_7  and  C_15 
REMARK    5  A    between atoms: C_9  and  C_11 
REMARK    6  A    between atoms: C_21  and  C_19 
REMARK    7  A    between atoms: C_21  and  C_22 
REMARK    8  A    between atoms: C_21  and  N_28 
REMARK    9  A    between atoms: N_31  and  C_34 
REMARK   10  A    between atoms: C_34  and  C_35 
ROOT
HETATM    1  C   UNK N   1      25.611  12.377   5.741  0.00  0.00     0.152 C 
HETATM    2  N   UNK N   1      25.546  13.818   5.784  0.00  0.00    -0.354 N 
HETATM    3  C   UNK N   1      26.453  14.568   5.099  0.00  0.00     0.246 C 
HETATM    4  O   UNK N   1      27.317  14.016   4.430  0.00  0.00    -0.271 OA
ENDROOT
BRANCH   3   5
HETATM    5  C   UNK N   1      26.472  16.069   5.267  0.00  0.00     0.206 C 
BRANCH   5   6
HETATM    6  C   UNK N   1      27.584  16.486   6.186  0.00  0.00    -0.027 A 
HETATM    7  C   UNK N   1      28.866  16.675   5.659  0.00  0.00     0.010 A 
HETATM    8  C   UNK N   1      29.881  17.215   6.453  0.00  0.00     0.001 A 
HETATM    9  C   UNK N   1      29.613  17.579   7.775  0.00  0.00     0.000 A 
HETATM   10  C   UNK N   1      28.331  17.400   8.303  0.00  0.00     0.001 A 
HETATM   11  C   UNK N   1      27.314  16.868   7.506  0.00  0.00     0.010 A 
ENDBRANCH   5   6
BRANCH   5  12
HETATM   12  N   UNK N   1      26.079  16.950   4.131  0.00  0.00    -0.393 N 
HETATM   13  C   UNK N   1      24.873  16.579   3.385  0.00  0.00     0.137 C 
HETATM   14  C   UNK N   1      23.607  17.027   4.113  0.00  0.00     0.136 C 
HETATM   15  N   UNK N   1      23.637  18.446   4.481  0.00  0.00    -0.409 N 
HETATM   16  C   UNK N   1      24.890  18.911   5.086  0.00  0.00     0.136 C 
HETATM   17  C   UNK N   1      26.138  18.399   4.353  0.00  0.00     0.137 C 
BRANCH  15  18
HETATM   18  C   UNK N   1      23.063  19.339   3.469  0.00  0.00     0.121 C 
BRANCH  18  19
HETATM   19  C   UNK N   1      21.569  19.578   3.629  0.00  0.00     0.003 A 
HETATM   20  C   UNK N   1      21.133  20.584   2.583  0.00  0.00     0.007 A 
HETATM   21  C   UNK N   1      20.849  19.111   2.378  0.00  0.00     0.007 A 
ENDBRANCH  18  19
ENDBRANCH  15  18
ENDBRANCH   5  12
ENDBRANCH   3   5
BRANCH   2  22
HETATM   22  C   UNK N   1      24.544  14.450   6.627  0.00  0.00     0.130 C 
BRANCH  22  23
HETATM   23  C   UNK N   1      23.134  14.146   6.119  0.00  0.00     0.058 C 
BRANCH  23  24
HETATM   24  C   UNK N   1      22.223  14.094   7.291  0.00  0.00    -0.055 A 
HETATM   25  C   UNK N   1      22.469  13.176   8.313  0.00  0.00     0.023 A 
HETATM   26  C   UNK N   1      21.749  13.250   9.511  0.00  0.00     0.049 A 
HETATM   27  C   UNK N   1      20.771  14.246   9.669  0.00  0.00     0.032 A 
HETATM   28  C   UNK N   1      20.505  15.151   8.631  0.00  0.00     0.049 A 
HETATM   29  C   UNK N   1      21.245  15.077   7.450  0.00  0.00     0.023 A 
BRANCH  26  30
HETATM   30  C   UNK N   1      22.070  12.295  10.623  0.00  0.00     0.417 C 
HETATM   31  F   UNK N   1      23.037  12.820  11.463  0.00  0.00    -0.166 F 
HETATM   32  F   UNK N   1      20.928  12.037  11.355  0.00  0.00    -0.166 F 
HETATM   33  F   UNK N   1      22.546  11.108  10.090  0.00  0.00    -0.166 F 
ENDBRANCH  26  30
BRANCH  28  34
HETATM   34  C   UNK N   1      19.458  16.212   8.801  0.00  0.00     0.417 C 
HETATM   35  F   UNK N   1      18.828  16.440   7.592  0.00  0.00    -0.166 F 
HETATM   36  F   UNK N   1      20.053  17.380   9.235  0.00  0.00    -0.166 F 
HETATM   37  F   UNK N   1      18.505  15.825   9.731  0.00  0.00    -0.166 F 
ENDBRANCH  28  34
ENDBRANCH  23  24
ENDBRANCH  22  23
ENDBRANCH   2  22
TORSDOF 10
ENDMDL
MODEL 9
REMARK VINA RESULT:      -6.8      5.758      9.169
REMARK  10 active torsions:
REMARK  status: ('A' for Active; 'I' for Inactive)
REMARK    1  A    between atoms: N_2  and  C_3 
REMARK       I    between atoms: N_2  and  C_19 
REMARK    2  A    between atoms: C_3  and  C_4 
REMARK    3  A    between atoms: C_4  and  C_5 
REMARK    4  A    between atoms: C_7  and  C_15 
REMARK    5  A    between atoms: C_9  and  C_11 
REMARK    6  A    between atoms: C_21  and  C_19 
REMARK    7  A    between atoms: C_21  and  C_22 
REMARK    8  A    between atoms: C_21  and  N_28 
REMARK    9  A    between atoms: N_31  and  C_34 
REMARK   10  A    between atoms: C_34  and  C_35 
ROOT
HETATM    1  C   UNK N   1      20.168  17.016   7.444  0.00  0.00     0.152 C 
HETATM    2  N   UNK N   1      20.749  15.877   6.776  0.00  0.00    -0.354 N 
HETATM    3  C   UNK N   1      20.586  14.625   7.283  0.00  0.00     0.246 C 
HETATM    4  O   UNK N   1      19.928  14.463   8.304  0.00  0.00    -0.271 OA
ENDROOT
BRANCH   3   5
HETATM    5  C   UNK N   1      21.319  13.458   6.665  0.00  0.00     0.206 C 
BRANCH   5   6
HETATM    6  C   UNK N   1      22.458  13.021   7.541  0.00  0.00    -0.027 A 
HETATM    7  C   UNK N   1      23.721  13.591   7.349  0.00  0.00     0.010 A 
HETATM    8  C   UNK N   1      24.757  13.324   8.247  0.00  0.00     0.001 A 
HETATM    9  C   UNK N   1      24.529  12.495   9.349  0.00  0.00     0.000 A 
HETATM   10  C   UNK N   1      23.266  11.931   9.549  0.00  0.00     0.001 A 
HETATM   11  C   UNK N   1      22.228  12.204   8.655  0.00  0.00     0.010 A 
ENDBRANCH   5   6
BRANCH   5  12
HETATM   12  N   UNK N   1      20.570  12.448   5.864  0.00  0.00    -0.393 N 
HETATM   13  C   UNK N   1      19.426  12.929   5.086  0.00  0.00     0.137 C 
HETATM   14  C   UNK N   1      19.874  13.571   3.774  0.00  0.00     0.136 C 
HETATM   15  N   UNK N   1      20.771  12.708   2.999  0.00  0.00    -0.409 N 
HETATM   16  C   UNK N   1      21.844  12.066   3.767  0.00  0.00     0.136 C 
HETATM   17  C   UNK N   1      21.360  11.478   5.099  0.00  0.00     0.137 C 
BRANCH  15  18
HETATM   18  C   UNK N   1      20.083  11.837   2.040  0.00  0.00     0.121 C 
BRANCH  18  19
HETATM   19  C   UNK N   1      19.816  12.488   0.691  0.00  0.00     0.003 A 
HETATM   20  C   UNK N   1      18.908  11.576  -0.108  0.00  0.00     0.007 A 
HETATM   21  C   UNK N   1      18.337  12.805   0.570  0.00  0.00     0.007 A 
ENDBRANCH  18  19
ENDBRANCH  15  18
ENDBRANCH   5  12
ENDBRANCH   3   5
BRANCH   2  22
HETATM   22  C   UNK N   1      21.570  16.101   5.596  0.00  0.00     0.130 C 
BRANCH  22  23
HETATM   23  C   UNK N   1      22.810  16.925   5.944  0.00  0.00     0.058 C 
BRANCH  23  24
HETATM   24  C   UNK N   1      23.010  17.933   4.872  0.00  0.00    -0.055 A 
HETATM   25  C   UNK N   1      21.899  18.475   4.222  0.00  0.00     0.023 A 
HETATM   26  C   UNK N   1      22.054  19.566   3.360  0.00  0.00     0.049 A 
HETATM   27  C   UNK N   1      23.335  20.102   3.146  0.00  0.00     0.032 A 
HETATM   28  C   UNK N   1      24.454  19.540   3.779  0.00  0.00     0.049 A 
HETATM   29  C   UNK N   1      24.281  18.465   4.651  0.00  0.00     0.023 A 
BRANCH  26  30
HETATM   30  C   UNK N   1      20.842  20.175   2.719  0.00  0.00     0.417 C 
HETATM   31  F   UNK N   1      20.039  19.201   2.151  0.00  0.00    -0.166 F 
HETATM   32  F   UNK N   1      20.113  20.863   3.669  0.00  0.00    -0.166 F 
HETATM   33  F   UNK N   1      21.237  21.055   1.725  0.00  0.00    -0.166 F 
ENDBRANCH  26  30
BRANCH  28  34
HETATM   34  C   UNK N   1      25.821  20.113   3.546  0.00  0.00     0.417 C 
HETATM   35  F   UNK N   1      26.194  20.880   4.634  0.00  0.00    -0.166 F 
HETATM   36  F   UNK N   1      25.802  20.903   2.414  0.00  0.00    -0.166 F 
HETATM   37  F   UNK N   1      26.758  19.106   3.371  0.00  0.00    -0.166 F 
ENDBRANCH  28  34
ENDBRANCH  23  24
ENDBRANCH  22  23
ENDBRANCH   2  22
TORSDOF 10
ENDMDL
