REMARK  6 active torsions:
REMARK  status: ('A' for Active; 'I' for Inactive)
REMARK    1  A    between atoms: C_5  and  C_25 
REMARK    2  A    between atoms: C_7  and  N_8 
REMARK       I    between atoms: N_8  and  C_9 
REMARK    3  A    between atoms: C_14  and  C_17 
REMARK       I    between atoms: C_25  and  N_27 
REMARK    4  A    between atoms: N_27  and  C_28 
REMARK    5  A    between atoms: C_30  and  C_41 
REMARK    6  A    between atoms: C_32  and  N_34 
ROOT
HETATM    1  C   UNK N   1      -2.543   7.993   2.140  0.00  0.00     0.050 C 
HETATM    2  C   UNK N   1      -1.358   7.594   1.326  0.00  0.00    -0.035 A 
HETATM    3  C   UNK N   1      -0.282   8.488   1.256  0.00  0.00     0.010 A 
HETATM    4  C   UNK N   1       0.877   8.147   0.555  0.00  0.00     0.018 A 
HETATM    5  C   UNK N   1       0.958   6.908  -0.085  0.00  0.00     0.034 A 
HETATM    6  C   UNK N   1      -0.119   6.019  -0.021  0.00  0.00     0.047 A 
HETATM    7  C   UNK N   1      -1.279   6.340   0.657  0.00  0.00     0.056 A 
ENDROOT
BRANCH   5   8
HETATM    8  C   UNK N   1       2.210   6.416  -0.658  0.00  0.00     0.256 C 
HETATM    9  O   UNK N   1       3.241   7.066  -0.556  0.00  0.00    -0.267 OA
HETATM   10  N   UNK N   1       2.221   5.121  -1.055  0.00  0.00    -0.323 N 
HETATM   11  H   UNK N   1       1.370   4.746  -1.377  0.00  0.00     0.169 HD
BRANCH  10  12
HETATM   12  C   UNK N   1       3.334   4.262  -1.051  0.00  0.00     0.037 A 
HETATM   13  C   UNK N   1       4.639   4.736  -0.906  0.00  0.00     0.046 A 
HETATM   14  C   UNK N   1       5.664   3.868  -0.524  0.00  0.00     0.052 A 
HETATM   15  C   UNK N   1       5.364   2.519  -0.245  0.00  0.00     0.046 A 
HETATM   16  C   UNK N   1       4.051   2.043  -0.407  0.00  0.00     0.042 A 
HETATM   17  C   UNK N   1       3.057   2.927  -0.807  0.00  0.00     0.059 A 
BRANCH  14  18
HETATM   18  C   UNK N   1       7.035   4.432  -0.307  0.00  0.00     0.417 C 
HETATM   19  F   UNK N   1       7.855   3.516   0.327  0.00  0.00    -0.166 F 
HETATM   20  F   UNK N   1       7.592   4.779  -1.523  0.00  0.00    -0.166 F 
HETATM   21  F   UNK N   1       6.943   5.565   0.485  0.00  0.00    -0.166 F 
ENDBRANCH  14  18
BRANCH  16  22
HETATM   22  N   UNK N   1       3.677   0.708  -0.031  0.00  0.00    -0.317 N 
HETATM   23  C   UNK N   1       4.466  -0.243   0.496  0.00  0.00     0.122 A 
HETATM   24  C   UNK N   1       3.658  -1.325   0.764  0.00  0.00     0.022 A 
HETATM   25  N   UNK N   1       2.388  -1.051   0.413  0.00  0.00    -0.354 N 
HETATM   26  C   UNK N   1       4.092  -2.610   1.369  0.00  0.00     0.069 C 
HETATM   27  C   UNK N   1       2.423   0.205  -0.070  0.00  0.00     0.188 A 
ATOM     28  HN  UNK N   1       1.575  -1.662   0.496  1.00  0.00     0.166 HD
ENDBRANCH  16  22
ENDBRANCH  10  12
ENDBRANCH   5   8
BRANCH   7  29
HETATM   29  N   UNK N   1      -2.356   5.405   0.621  0.00  0.00    -0.191 N 
HETATM   30  C   UNK N   1      -3.653   5.843   0.282  0.00  0.00     0.683 A 
HETATM   31  N   UNK N   1      -4.744   5.056   0.475  0.00  0.00    -0.202 N 
HETATM   32  N   UNK N   1      -3.806   7.095  -0.192  0.00  0.00    -0.189 N 
HETATM   33  C   UNK N   1      -5.991   5.545   0.218  0.00  0.00     0.108 A 
ATOM     34  HN  UNK N   1      -4.630   4.100   0.813  1.00  0.00     0.183 HD
HETATM   35  C   UNK N   1      -6.156   6.872  -0.212  0.00  0.00     0.050 A 
HETATM   36  C   UNK N   1      -5.007   7.643  -0.425  0.00  0.00     0.078 A 
ATOM     37  HN  UNK N   1      -2.972   7.650  -0.381  1.00  0.00     0.184 HD
HETATM   38  H   UNK N   1      -2.195   4.457   0.833  0.00  0.00     0.184 HD
BRANCH  36  39
HETATM   39  C   UNK N   1      -5.021   9.071  -0.757  0.00  0.00     0.075 A 
HETATM   40  C   UNK N   1      -6.191   9.830  -0.727  0.00  0.00     0.119 A 
HETATM   41  N   UNK N   1      -6.120  11.173  -0.931  0.00  0.00    -0.372 N 
HETATM   42  C   UNK N   1      -4.930  11.789  -1.167  0.00  0.00     0.104 A 
ATOM     43  HN  UNK N   1      -6.975  11.729  -0.906  1.00  0.00     0.164 HD
HETATM   44  C   UNK N   1      -3.761  11.033  -1.207  0.00  0.00     0.105 A 
HETATM   45  N   UNK N   1      -3.831   9.697  -0.991  0.00  0.00    -0.362 N 
ATOM     46  HN  UNK N   1      -2.973   9.145  -1.003  1.00  0.00     0.165 HD
ENDBRANCH  36  39
ENDBRANCH   7  29
TORSDOF 6
