MODEL 1
REMARK VINA RESULT:      -9.9      0.000      0.000
REMARK  17 active torsions:
REMARK  status: ('A' for Active; 'I' for Inactive)
REMARK    1  A    between atoms: C_21  and  C_19 
REMARK    2  A    between atoms: C_38  and  C_19 
REMARK    3  A    between atoms: N_54  and  C_21 
REMARK    4  A    between atoms: C_36  and  C_32 
REMARK    5  A    between atoms: N_55  and  C_32 
REMARK    6  A    between atoms: C_38  and  C_33 
REMARK    7  A    between atoms: S_63  and  C_33 
REMARK    8  A    between atoms: C_42  and  C_34 
REMARK    9  A    between atoms: C_45  and  C_35 
REMARK   10  A    between atoms: C_38  and  N_52 
REMARK   11  A    between atoms: N_56  and  C_39 
REMARK   12  A    between atoms: S_63  and  C_40 
REMARK   13  A    between atoms: S_65  and  C_41 
REMARK   14  A    between atoms: N_52  and  C_43 
REMARK   15  A    between atoms: S_64  and  C_44 
REMARK       I    between atoms: N_53  and  C_45 
REMARK   16  A    between atoms: S_64  and  C_47 
REMARK   17  A    between atoms: S_65  and  N_53 
ROOT
HETATM    1  O   UNK N   1      29.516  15.897   3.220  0.00  0.00    -0.200 OA
HETATM    2  O   UNK N   1      30.790  16.799   2.182  0.00  0.00    -0.200 OA
HETATM    3  S   UNK N   1      30.607  16.839   3.703  0.00  0.00     0.265 S 
ENDROOT
BRANCH   3   4
HETATM    4  C   UNK N   1      29.587  16.067   5.004  0.00  0.00     0.081 C 
HETATM    5  C   UNK N   1      28.602  15.135   4.645  0.00  0.00     0.027 C 
HETATM    6  C   UNK N   1      27.464  15.019   5.413  0.00  0.00     0.032 C 
HETATM    7  C   UNK N   1      27.280  15.854   6.512  0.00  0.00     0.050 C 
HETATM    8  C   UNK N   1      28.373  16.579   7.034  0.00  0.00     0.096 C 
HETATM    9  C   UNK N   1      29.496  16.700   6.246  0.00  0.00     0.051 C 
BRANCH   7  10
HETATM   10  N   UNK N   1      25.998  16.425   6.597  0.00  0.00    -0.383 N 
HETATM   11  H   UNK N   1      25.755  17.057   7.312  0.00  0.00     0.160 HD
BRANCH  10  12
HETATM   12  C   UNK N   1      25.036  16.022   5.550  0.00  0.00     0.093 C 
BRANCH  12  13
HETATM   13  C   UNK N   1      24.231  14.695   5.829  0.00  0.00     0.056 C 
BRANCH  13  14
HETATM   14  C   UNK N   1      23.471  14.583   7.172  0.00  0.00     0.274 C 
BRANCH  14  15
HETATM   15  N   UNK N   1      23.562  13.249   7.777  0.00  0.00     0.092 N 
HETATM   16  C   UNK N   1      22.266  12.949   8.406  0.00  0.00     0.298 C 
HETATM   17  C   UNK N   1      22.210  13.404   9.881  0.00  0.00     0.198 C 
HETATM   18  O   UNK N   1      23.238  12.885  10.717  0.00  0.00    -0.388 OA
HETATM   19  C   UNK N   1      24.319  12.346   9.979  0.00  0.00     0.198 C 
HETATM   20  C   UNK N   1      24.664  13.200   8.751  0.00  0.00     0.298 C 
ENDBRANCH  14  15
ENDBRANCH  13  14
ENDBRANCH  12  13
BRANCH  12  21
HETATM   21  C   UNK N   1      24.105  17.157   5.146  0.00  0.00     0.104 C 
BRANCH  21  22
HETATM   22  S   UNK N   1      24.605  17.957   3.583  0.00  0.00    -0.128 SA
BRANCH  22  23
HETATM   23  C   UNK N   1      25.866  19.022   4.276  0.00  0.00     0.000 A 
HETATM   24  C   UNK N   1      25.463  20.091   5.078  0.00  0.00     0.018 A 
HETATM   25  C   UNK N   1      26.414  20.953   5.627  0.00  0.00     0.001 A 
HETATM   26  C   UNK N   1      27.773  20.748   5.372  0.00  0.00     0.000 A 
HETATM   27  C   UNK N   1      28.182  19.678   4.574  0.00  0.00     0.001 A 
HETATM   28  C   UNK N   1      27.231  18.816   4.028  0.00  0.00     0.018 A 
ENDBRANCH  22  23
ENDBRANCH  21  22
ENDBRANCH  12  21
ENDBRANCH  10  12
ENDBRANCH   7  10
BRANCH   8  29
HETATM   29  S   UNK N   1      28.350  17.582   8.531  0.00  0.00     0.278 S 
HETATM   30  O   UNK N   1      27.376  16.933   9.526  0.00  0.00    -0.213 OA
HETATM   31  O   UNK N   1      27.637  18.917   8.275  0.00  0.00    -0.213 OA
BRANCH  29  32
HETATM   32  C   UNK N   1      29.914  17.897   9.433  0.00  0.00     0.503 C 
HETATM   33  F   UNK N   1      30.884  18.353   8.560  0.00  0.00    -0.157 F 
HETATM   34  F   UNK N   1      29.700  18.856  10.403  0.00  0.00    -0.157 F 
HETATM   35  F   UNK N   1      30.357  16.740  10.047  0.00  0.00    -0.157 F 
ENDBRANCH  29  32
ENDBRANCH   8  29
ENDBRANCH   3   4
BRANCH   3  36
HETATM   36  N   UNK N   1      31.946  15.669   3.988  0.00  0.00    -0.246 N 
HETATM   37  C   UNK N   1      32.880  15.384   4.940  0.00  0.00     0.265 C 
HETATM   38  O   UNK N   1      33.619  14.421   4.732  0.00  0.00    -0.267 OA
HETATM   39  H   UNK N   1      32.028  15.048   3.229  0.00  0.00     0.182 HD
BRANCH  37  40
HETATM   40  C   UNK N   1      32.989  16.028   6.270  0.00  0.00     0.033 C 
HETATM   41  C   UNK N   1      32.564  15.373   7.407  0.00  0.00     0.019 C 
HETATM   42  C   UNK N   1      33.085  15.657   8.631  0.00  0.00     0.030 C 
HETATM   43  C   UNK N   1      34.094  16.604   8.727  0.00  0.00     0.030 C 
HETATM   44  C   UNK N   1      34.304  17.491   7.658  0.00  0.00     0.030 C 
HETATM   45  C   UNK N   1      33.750  17.189   6.415  0.00  0.00     0.019 C 
BRANCH  43  46
HETATM   46  N   UNK N   1      35.241  16.200   9.446  0.00  0.00    -0.378 N 
HETATM   47  C   UNK N   1      35.956  15.032   8.987  0.00  0.00     0.153 C 
HETATM   48  C   UNK N   1      36.872  14.484  10.046  0.00  0.00     0.292 C 
HETATM   49  N   UNK N   1      36.166  14.323  11.319  0.00  0.00     0.095 N 
HETATM   50  C   UNK N   1      35.805  15.607  11.887  0.00  0.00     0.292 C 
HETATM   51  C   UNK N   1      35.259  16.607  10.863  0.00  0.00     0.153 C 
BRANCH  49  52
HETATM   52  C   UNK N   1      35.058  13.346  11.386  0.00  0.00     0.307 C 
BRANCH  52  53
HETATM   53  C   UNK N   1      35.546  11.929  11.600  0.00  0.00    -0.044 C 
HETATM   54  C   UNK N   1      35.719  11.102  10.352  0.00  0.00     0.045 C 
HETATM   55  C   UNK N   1      36.917  10.171  10.404  0.00  0.00    -0.044 C 
HETATM   56  C   UNK N   1      36.873   9.264   9.192  0.00  0.00     0.015 C 
HETATM   57  C   UNK N   1      38.218  10.956  10.367  0.00  0.00     0.015 C 
HETATM   58  C   UNK N   1      36.805   9.319  11.662  0.00  0.00     0.013 C 
HETATM   59  C   UNK N   1      36.673  10.140  12.953  0.00  0.00     0.040 C 
HETATM   60  C   UNK N   1      35.930  11.459  12.831  0.00  0.00    -0.044 C 
BRANCH  60  61
HETATM   61  C   UNK N   1      35.760  12.283  14.074  0.00  0.00    -0.029 A 
HETATM   62  C   UNK N   1      36.798  13.111  14.543  0.00  0.00     0.013 A 
HETATM   63  C   UNK N   1      36.700  13.759  15.772  0.00  0.00     0.024 A 
HETATM   64  C   UNK N   1      35.560  13.590  16.555  0.00  0.00     0.034 A 
HETATM   65  C   UNK N   1      34.498  12.808  16.085  0.00  0.00     0.024 A 
HETATM   66 Cl   UNK N   1      35.475  14.346  18.130  0.00  0.00    -0.084 Cl
HETATM   67  C   UNK N   1      34.593  12.165  14.843  0.00  0.00     0.013 A 
ENDBRANCH  60  61
ENDBRANCH  52  53
ENDBRANCH  49  52
ENDBRANCH  43  46
ENDBRANCH  37  40
ENDBRANCH   3  36
TORSDOF 17
ENDMDL
MODEL 2
REMARK VINA RESULT:      -9.5      7.241     12.189
REMARK  17 active torsions:
REMARK  status: ('A' for Active; 'I' for Inactive)
REMARK    1  A    between atoms: C_21  and  C_19 
REMARK    2  A    between atoms: C_38  and  C_19 
REMARK    3  A    between atoms: N_54  and  C_21 
REMARK    4  A    between atoms: C_36  and  C_32 
REMARK    5  A    between atoms: N_55  and  C_32 
REMARK    6  A    between atoms: C_38  and  C_33 
REMARK    7  A    between atoms: S_63  and  C_33 
REMARK    8  A    between atoms: C_42  and  C_34 
REMARK    9  A    between atoms: C_45  and  C_35 
REMARK   10  A    between atoms: C_38  and  N_52 
REMARK   11  A    between atoms: N_56  and  C_39 
REMARK   12  A    between atoms: S_63  and  C_40 
REMARK   13  A    between atoms: S_65  and  C_41 
REMARK   14  A    between atoms: N_52  and  C_43 
REMARK   15  A    between atoms: S_64  and  C_44 
REMARK       I    between atoms: N_53  and  C_45 
REMARK   16  A    between atoms: S_64  and  C_47 
REMARK   17  A    between atoms: S_65  and  N_53 
ROOT
HETATM    1  O   UNK N   1      21.094  13.940   0.662  0.00  0.00    -0.200 OA
HETATM    2  O   UNK N   1      20.203  12.296   0.785  0.00  0.00    -0.200 OA
HETATM    3  S   UNK N   1      21.160  12.934   1.798  0.00  0.00     0.265 S 
ENDROOT
BRANCH   3   4
HETATM    4  C   UNK N   1      22.098  14.478   2.047  0.00  0.00     0.081 C 
HETATM    5  C   UNK N   1      23.487  14.418   2.232  0.00  0.00     0.027 C 
HETATM    6  C   UNK N   1      24.111  15.370   3.009  0.00  0.00     0.032 C 
HETATM    7  C   UNK N   1      23.356  16.357   3.639  0.00  0.00     0.050 C 
HETATM    8  C   UNK N   1      22.023  16.586   3.233  0.00  0.00     0.096 C 
HETATM    9  C   UNK N   1      21.409  15.618   2.472  0.00  0.00     0.051 C 
BRANCH   7  10
HETATM   10  N   UNK N   1      23.690  16.568   4.988  0.00  0.00    -0.383 N 
HETATM   11  H   UNK N   1      23.400  17.373   5.477  0.00  0.00     0.160 HD
BRANCH  10  12
HETATM   12  C   UNK N   1      24.501  15.513   5.631  0.00  0.00     0.093 C 
BRANCH  12  13
HETATM   13  C   UNK N   1      25.957  15.933   6.066  0.00  0.00     0.056 C 
BRANCH  13  14
HETATM   14  C   UNK N   1      26.662  17.039   5.247  0.00  0.00     0.274 C 
BRANCH  14  15
HETATM   15  N   UNK N   1      27.631  17.811   6.034  0.00  0.00     0.092 N 
HETATM   16  C   UNK N   1      28.654  18.328   5.110  0.00  0.00     0.298 C 
HETATM   17  C   UNK N   1      29.845  17.358   4.950  0.00  0.00     0.198 C 
HETATM   18  O   UNK N   1      30.492  16.985   6.161  0.00  0.00    -0.388 OA
HETATM   19  C   UNK N   1      29.713  17.277   7.307  0.00  0.00     0.198 C 
HETATM   20  C   UNK N   1      28.225  16.972   7.087  0.00  0.00     0.298 C 
ENDBRANCH  14  15
ENDBRANCH  13  14
ENDBRANCH  12  13
BRANCH  12  21
HETATM   21  C   UNK N   1      23.762  14.823   6.769  0.00  0.00     0.104 C 
BRANCH  21  22
HETATM   22  S   UNK N   1      24.826  13.673   7.707  0.00  0.00    -0.128 SA
BRANCH  22  23
HETATM   23  C   UNK N   1      23.593  13.159   8.899  0.00  0.00     0.000 A 
HETATM   24  C   UNK N   1      23.841  12.012   9.656  0.00  0.00     0.018 A 
HETATM   25  C   UNK N   1      22.900  11.570  10.586  0.00  0.00     0.001 A 
HETATM   26  C   UNK N   1      21.705  12.274  10.761  0.00  0.00     0.000 A 
HETATM   27  C   UNK N   1      21.453  13.424  10.009  0.00  0.00     0.001 A 
HETATM   28  C   UNK N   1      22.396  13.865   9.082  0.00  0.00     0.018 A 
ENDBRANCH  22  23
ENDBRANCH  21  22
ENDBRANCH  12  21
ENDBRANCH  10  12
ENDBRANCH   7  10
BRANCH   8  29
HETATM   29  S   UNK N   1      20.958  17.912   3.830  0.00  0.00     0.278 S 
HETATM   30  O   UNK N   1      21.207  18.085   5.336  0.00  0.00    -0.213 OA
HETATM   31  O   UNK N   1      19.491  17.460   3.842  0.00  0.00    -0.213 OA
BRANCH  29  32
HETATM   32  C   UNK N   1      21.070  19.575   3.068  0.00  0.00     0.503 C 
HETATM   33  F   UNK N   1      20.079  20.397   3.570  0.00  0.00    -0.157 F 
HETATM   34  F   UNK N   1      22.299  20.131   3.359  0.00  0.00    -0.157 F 
HETATM   35  F   UNK N   1      20.940  19.486   1.695  0.00  0.00    -0.157 F 
ENDBRANCH  29  32
ENDBRANCH   8  29
ENDBRANCH   3   4
BRANCH   3  36
HETATM   36  N   UNK N   1      19.813  13.526   2.837  0.00  0.00    -0.246 N 
HETATM   37  C   UNK N   1      19.214  13.218   4.023  0.00  0.00     0.265 C 
HETATM   38  O   UNK N   1      18.295  13.949   4.396  0.00  0.00    -0.267 OA
HETATM   39  H   UNK N   1      19.379  14.308   2.425  0.00  0.00     0.182 HD
BRANCH  37  40
HETATM   40  C   UNK N   1      19.663  12.180   4.979  0.00  0.00     0.033 C 
HETATM   41  C   UNK N   1      19.453  10.842   4.717  0.00  0.00     0.019 C 
HETATM   42  C   UNK N   1      20.253   9.877   5.248  0.00  0.00     0.030 C 
HETATM   43  C   UNK N   1      21.325  10.257   6.041  0.00  0.00     0.030 C 
HETATM   44  C   UNK N   1      21.357  11.557   6.572  0.00  0.00     0.030 C 
HETATM   45  C   UNK N   1      20.521  12.528   6.025  0.00  0.00     0.019 C 
BRANCH  43  46
HETATM   46  N   UNK N   1      22.570   9.686   5.696  0.00  0.00    -0.378 N 
HETATM   47  C   UNK N   1      23.759  10.221   6.317  0.00  0.00     0.153 C 
HETATM   48  C   UNK N   1      25.005   9.827   5.573  0.00  0.00     0.292 C 
HETATM   49  N   UNK N   1      24.871  10.102   4.141  0.00  0.00     0.095 N 
HETATM   50  C   UNK N   1      23.885   9.236   3.528  0.00  0.00     0.292 C 
HETATM   51  C   UNK N   1      22.614   9.053   4.365  0.00  0.00     0.153 C 
BRANCH  49  52
HETATM   52  C   UNK N   1      24.732  11.510   3.709  0.00  0.00     0.307 C 
BRANCH  52  53
HETATM   53  C   UNK N   1      26.025  12.083   3.169  0.00  0.00    -0.044 C 
HETATM   54  C   UNK N   1      26.861  12.854   4.158  0.00  0.00     0.045 C 
HETATM   55  C   UNK N   1      28.354  12.653   3.975  0.00  0.00    -0.044 C 
HETATM   56  C   UNK N   1      29.084  13.618   4.886  0.00  0.00     0.015 C 
HETATM   57  C   UNK N   1      28.763  11.238   4.351  0.00  0.00     0.015 C 
HETATM   58  C   UNK N   1      28.706  12.979   2.528  0.00  0.00     0.013 C 
HETATM   59  C   UNK N   1      27.898  12.171   1.501  0.00  0.00     0.040 C 
HETATM   60  C   UNK N   1      26.477  11.816   1.901  0.00  0.00    -0.044 C 
BRANCH  60  61
HETATM   61  C   UNK N   1      25.646  11.045   0.917  0.00  0.00    -0.029 A 
HETATM   62  C   UNK N   1      24.475  11.600   0.365  0.00  0.00     0.013 A 
HETATM   63  C   UNK N   1      23.625  10.836  -0.431  0.00  0.00     0.024 A 
HETATM   64  C   UNK N   1      23.931   9.502  -0.689  0.00  0.00     0.034 A 
HETATM   65  C   UNK N   1      25.114   8.946  -0.188  0.00  0.00     0.024 A 
HETATM   66 Cl   UNK N   1      22.821   8.527  -1.626  0.00  0.00    -0.084 Cl
HETATM   67  C   UNK N   1      25.975   9.718   0.604  0.00  0.00     0.013 A 
ENDBRANCH  60  61
ENDBRANCH  52  53
ENDBRANCH  49  52
ENDBRANCH  43  46
ENDBRANCH  37  40
ENDBRANCH   3  36
TORSDOF 17
ENDMDL
MODEL 3
REMARK VINA RESULT:      -9.5      5.862      9.794
REMARK  17 active torsions:
REMARK  status: ('A' for Active; 'I' for Inactive)
REMARK    1  A    between atoms: C_21  and  C_19 
REMARK    2  A    between atoms: C_38  and  C_19 
REMARK    3  A    between atoms: N_54  and  C_21 
REMARK    4  A    between atoms: C_36  and  C_32 
REMARK    5  A    between atoms: N_55  and  C_32 
REMARK    6  A    between atoms: C_38  and  C_33 
REMARK    7  A    between atoms: S_63  and  C_33 
REMARK    8  A    between atoms: C_42  and  C_34 
REMARK    9  A    between atoms: C_45  and  C_35 
REMARK   10  A    between atoms: C_38  and  N_52 
REMARK   11  A    between atoms: N_56  and  C_39 
REMARK   12  A    between atoms: S_63  and  C_40 
REMARK   13  A    between atoms: S_65  and  C_41 
REMARK   14  A    between atoms: N_52  and  C_43 
REMARK   15  A    between atoms: S_64  and  C_44 
REMARK       I    between atoms: N_53  and  C_45 
REMARK   16  A    between atoms: S_64  and  C_47 
REMARK   17  A    between atoms: S_65  and  N_53 
ROOT
HETATM    1  O   UNK N   1      22.330  11.677   0.321  0.00  0.00    -0.200 OA
HETATM    2  O   UNK N   1      24.135  11.882  -0.140  0.00  0.00    -0.200 OA
HETATM    3  S   UNK N   1      23.133  12.966   0.274  0.00  0.00     0.265 S 
ENDROOT
BRANCH   3   4
HETATM    4  C   UNK N   1      21.409  13.122   0.849  0.00  0.00     0.081 C 
HETATM    5  C   UNK N   1      20.649  14.232   0.453  0.00  0.00     0.027 C 
HETATM    6  C   UNK N   1      19.667  14.718   1.290  0.00  0.00     0.032 C 
HETATM    7  C   UNK N   1      19.467  14.132   2.538  0.00  0.00     0.050 C 
HETATM    8  C   UNK N   1      20.023  12.865   2.816  0.00  0.00     0.096 C 
HETATM    9  C   UNK N   1      21.014  12.403   1.980  0.00  0.00     0.051 C 
BRANCH   7  10
HETATM   10  N   UNK N   1      19.337  15.051   3.594  0.00  0.00    -0.383 N 
HETATM   11  H   UNK N   1      18.464  15.429   3.851  0.00  0.00     0.160 HD
BRANCH  10  12
HETATM   12  C   UNK N   1      20.584  15.415   4.298  0.00  0.00     0.093 C 
BRANCH  12  13
HETATM   13  C   UNK N   1      21.259  16.768   3.848  0.00  0.00     0.056 C 
BRANCH  13  14
HETATM   14  C   UNK N   1      20.363  18.026   3.764  0.00  0.00     0.274 C 
BRANCH  14  15
HETATM   15  N   UNK N   1      21.093  19.273   4.019  0.00  0.00     0.092 N 
HETATM   16  C   UNK N   1      20.420  20.351   3.276  0.00  0.00     0.298 C 
HETATM   17  C   UNK N   1      20.993  20.530   1.853  0.00  0.00     0.198 C 
HETATM   18  O   UNK N   1      22.396  20.757   1.787  0.00  0.00    -0.388 OA
HETATM   19  C   UNK N   1      23.059  20.421   2.992  0.00  0.00     0.198 C 
HETATM   20  C   UNK N   1      22.502  19.135   3.619  0.00  0.00     0.298 C 
ENDBRANCH  14  15
ENDBRANCH  13  14
ENDBRANCH  12  13
BRANCH  12  21
HETATM   21  C   UNK N   1      20.440  15.348   5.812  0.00  0.00     0.104 C 
BRANCH  21  22
HETATM   22  S   UNK N   1      21.909  15.984   6.690  0.00  0.00    -0.128 SA
BRANCH  22  23
HETATM   23  C   UNK N   1      21.948  14.741   7.978  0.00  0.00     0.000 A 
HETATM   24  C   UNK N   1      20.912  14.723   8.912  0.00  0.00     0.018 A 
HETATM   25  C   UNK N   1      20.912  13.778   9.941  0.00  0.00     0.001 A 
HETATM   26  C   UNK N   1      21.953  12.850  10.037  0.00  0.00     0.000 A 
HETATM   27  C   UNK N   1      22.990  12.861   9.102  0.00  0.00     0.001 A 
HETATM   28  C   UNK N   1      22.987  13.804   8.075  0.00  0.00     0.018 A 
ENDBRANCH  22  23
ENDBRANCH  21  22
ENDBRANCH  12  21
ENDBRANCH  10  12
ENDBRANCH   7  10
BRANCH   8  29
HETATM   29  S   UNK N   1      19.741  11.899   4.312  0.00  0.00     0.278 S 
HETATM   30  O   UNK N   1      19.259  10.501   3.895  0.00  0.00    -0.213 OA
HETATM   31  O   UNK N   1      18.500  12.410   5.056  0.00  0.00    -0.213 OA
BRANCH  29  32
HETATM   32  C   UNK N   1      21.109  11.665   5.508  0.00  0.00     0.503 C 
HETATM   33  F   UNK N   1      21.571  10.363   5.455  0.00  0.00    -0.157 F 
HETATM   34  F   UNK N   1      22.147  12.519   5.193  0.00  0.00    -0.157 F 
HETATM   35  F   UNK N   1      20.680  11.947   6.792  0.00  0.00    -0.157 F 
ENDBRANCH  29  32
ENDBRANCH   8  29
ENDBRANCH   3   4
BRANCH   3  36
HETATM   36  N   UNK N   1      23.755  13.025   1.963  0.00  0.00    -0.246 N 
HETATM   37  C   UNK N   1      24.949  13.033   2.622  0.00  0.00     0.265 C 
HETATM   38  O   UNK N   1      24.913  13.121   3.851  0.00  0.00    -0.267 OA
HETATM   39  H   UNK N   1      23.008  13.063   2.604  0.00  0.00     0.182 HD
BRANCH  37  40
HETATM   40  C   UNK N   1      26.288  13.102   1.993  0.00  0.00     0.033 C 
HETATM   41  C   UNK N   1      27.067  14.233   2.115  0.00  0.00     0.019 C 
HETATM   42  C   UNK N   1      28.424  14.178   2.028  0.00  0.00     0.030 C 
HETATM   43  C   UNK N   1      29.034  12.947   1.847  0.00  0.00     0.030 C 
HETATM   44  C   UNK N   1      28.263  11.859   1.404  0.00  0.00     0.030 C 
HETATM   45  C   UNK N   1      26.875  11.940   1.488  0.00  0.00     0.019 C 
BRANCH  43  46
HETATM   46  N   UNK N   1      30.085  12.650   2.744  0.00  0.00    -0.378 N 
HETATM   47  C   UNK N   1      29.802  12.685   4.159  0.00  0.00     0.153 C 
HETATM   48  C   UNK N   1      31.059  12.766   4.980  0.00  0.00     0.292 C 
HETATM   49  N   UNK N   1      31.936  13.833   4.493  0.00  0.00     0.095 N 
HETATM   50  C   UNK N   1      32.469  13.519   3.183  0.00  0.00     0.292 C 
HETATM   51  C   UNK N   1      31.438  12.917   2.222  0.00  0.00     0.153 C 
BRANCH  49  52
HETATM   52  C   UNK N   1      31.460  15.230   4.589  0.00  0.00     0.307 C 
BRANCH  52  53
HETATM   53  C   UNK N   1      31.573  15.787   5.992  0.00  0.00    -0.044 C 
HETATM   54  C   UNK N   1      32.881  15.527   6.695  0.00  0.00     0.045 C 
HETATM   55  C   UNK N   1      33.342  16.683   7.563  0.00  0.00    -0.044 C 
HETATM   56  C   UNK N   1      34.548  16.234   8.361  0.00  0.00     0.015 C 
HETATM   57  C   UNK N   1      33.749  17.874   6.712  0.00  0.00     0.015 C 
HETATM   58  C   UNK N   1      32.215  17.035   8.528  0.00  0.00     0.013 C 
HETATM   59  C   UNK N   1      30.883  17.350   7.831  0.00  0.00     0.040 C 
HETATM   60  C   UNK N   1      30.607  16.587   6.547  0.00  0.00    -0.044 C 
BRANCH  60  61
HETATM   61  C   UNK N   1      29.305  16.850   5.845  0.00  0.00    -0.029 A 
HETATM   62  C   UNK N   1      28.211  15.978   5.998  0.00  0.00     0.013 A 
HETATM   63  C   UNK N   1      27.056  16.136   5.236  0.00  0.00     0.024 A 
HETATM   64  C   UNK N   1      26.975  17.169   4.306  0.00  0.00     0.034 A 
HETATM   65  C   UNK N   1      28.035  18.074   4.172  0.00  0.00     0.024 A 
HETATM   66 Cl   UNK N   1      25.553  17.316   3.298  0.00  0.00    -0.084 Cl
HETATM   67  C   UNK N   1      29.193  17.922   4.947  0.00  0.00     0.013 A 
ENDBRANCH  60  61
ENDBRANCH  52  53
ENDBRANCH  49  52
ENDBRANCH  43  46
ENDBRANCH  37  40
ENDBRANCH   3  36
TORSDOF 17
ENDMDL
MODEL 4
REMARK VINA RESULT:      -9.4      1.557      2.037
REMARK  17 active torsions:
REMARK  status: ('A' for Active; 'I' for Inactive)
REMARK    1  A    between atoms: C_21  and  C_19 
REMARK    2  A    between atoms: C_38  and  C_19 
REMARK    3  A    between atoms: N_54  and  C_21 
REMARK    4  A    between atoms: C_36  and  C_32 
REMARK    5  A    between atoms: N_55  and  C_32 
REMARK    6  A    between atoms: C_38  and  C_33 
REMARK    7  A    between atoms: S_63  and  C_33 
REMARK    8  A    between atoms: C_42  and  C_34 
REMARK    9  A    between atoms: C_45  and  C_35 
REMARK   10  A    between atoms: C_38  and  N_52 
REMARK   11  A    between atoms: N_56  and  C_39 
REMARK   12  A    between atoms: S_63  and  C_40 
REMARK   13  A    between atoms: S_65  and  C_41 
REMARK   14  A    between atoms: N_52  and  C_43 
REMARK   15  A    between atoms: S_64  and  C_44 
REMARK       I    between atoms: N_53  and  C_45 
REMARK   16  A    between atoms: S_64  and  C_47 
REMARK   17  A    between atoms: S_65  and  N_53 
ROOT
HETATM    1  O   UNK N   1      32.170  15.316   4.126  0.00  0.00    -0.200 OA
HETATM    2  O   UNK N   1      33.263  16.347   3.006  0.00  0.00    -0.200 OA
HETATM    3  S   UNK N   1      32.011  16.786   3.774  0.00  0.00     0.265 S 
ENDROOT
BRANCH   3   4
HETATM    4  C   UNK N   1      30.805  16.118   4.968  0.00  0.00     0.081 C 
HETATM    5  C   UNK N   1      29.933  15.095   4.569  0.00  0.00     0.027 C 
HETATM    6  C   UNK N   1      28.682  15.007   5.138  0.00  0.00     0.032 C 
HETATM    7  C   UNK N   1      28.275  15.957   6.072  0.00  0.00     0.050 C 
HETATM    8  C   UNK N   1      29.231  16.802   6.675  0.00  0.00     0.096 C 
HETATM    9  C   UNK N   1      30.471  16.891   6.084  0.00  0.00     0.051 C 
BRANCH   7  10
HETATM   10  N   UNK N   1      26.979  16.459   5.860  0.00  0.00    -0.383 N 
HETATM   11  H   UNK N   1      26.792  17.425   5.832  0.00  0.00     0.160 HD
BRANCH  10  12
HETATM   12  C   UNK N   1      25.912  15.451   5.681  0.00  0.00     0.093 C 
BRANCH  12  13
HETATM   13  C   UNK N   1      25.199  14.962   6.999  0.00  0.00     0.056 C 
BRANCH  13  14
HETATM   14  C   UNK N   1      24.266  13.732   6.898  0.00  0.00     0.274 C 
BRANCH  14  15
HETATM   15  N   UNK N   1      24.585  12.684   7.875  0.00  0.00     0.092 N 
HETATM   16  C   UNK N   1      23.417  11.794   7.981  0.00  0.00     0.298 C 
HETATM   17  C   UNK N   1      22.430  12.249   9.078  0.00  0.00     0.198 C 
HETATM   18  O   UNK N   1      22.992  12.398  10.377  0.00  0.00    -0.388 OA
HETATM   19  C   UNK N   1      24.406  12.454  10.355  0.00  0.00     0.198 C 
HETATM   20  C   UNK N   1      24.934  13.280   9.174  0.00  0.00     0.298 C 
ENDBRANCH  14  15
ENDBRANCH  13  14
ENDBRANCH  12  13
BRANCH  12  21
HETATM   21  C   UNK N   1      24.897  15.859   4.623  0.00  0.00     0.104 C 
BRANCH  21  22
HETATM   22  S   UNK N   1      23.605  16.971   5.276  0.00  0.00    -0.128 SA
BRANCH  22  23
HETATM   23  C   UNK N   1      24.020  18.398   4.278  0.00  0.00     0.000 A 
HETATM   24  C   UNK N   1      22.980  19.170   3.760  0.00  0.00     0.018 A 
HETATM   25  C   UNK N   1      23.261  20.284   2.966  0.00  0.00     0.001 A 
HETATM   26  C   UNK N   1      24.587  20.626   2.688  0.00  0.00     0.000 A 
HETATM   27  C   UNK N   1      25.633  19.860   3.207  0.00  0.00     0.001 A 
HETATM   28  C   UNK N   1      25.350  18.749   4.002  0.00  0.00     0.018 A 
ENDBRANCH  22  23
ENDBRANCH  21  22
ENDBRANCH  12  21
ENDBRANCH  10  12
ENDBRANCH   7  10
BRANCH   8  29
HETATM   29  S   UNK N   1      28.906  17.975   8.004  0.00  0.00     0.278 S 
HETATM   30  O   UNK N   1      27.756  17.422   8.860  0.00  0.00    -0.213 OA
HETATM   31  O   UNK N   1      28.252  19.249   7.450  0.00  0.00    -0.213 OA
BRANCH  29  32
HETATM   32  C   UNK N   1      30.258  18.441   9.151  0.00  0.00     0.503 C 
HETATM   33  F   UNK N   1      30.815  19.646   8.766  0.00  0.00    -0.157 F 
HETATM   34  F   UNK N   1      29.752  18.571  10.428  0.00  0.00    -0.157 F 
HETATM   35  F   UNK N   1      31.238  17.466   9.161  0.00  0.00    -0.157 F 
ENDBRANCH  29  32
ENDBRANCH   8  29
ENDBRANCH   3   4
BRANCH   3  36
HETATM   36  N   UNK N   1      32.974  17.543   5.094  0.00  0.00    -0.246 N 
HETATM   37  C   UNK N   1      33.740  17.165   6.157  0.00  0.00     0.265 C 
HETATM   38  O   UNK N   1      34.271  18.062   6.815  0.00  0.00    -0.267 OA
HETATM   39  H   UNK N   1      32.937  18.525   5.028  0.00  0.00     0.182 HD
BRANCH  37  40
HETATM   40  C   UNK N   1      34.119  15.777   6.506  0.00  0.00     0.033 C 
HETATM   41  C   UNK N   1      35.315  15.244   6.075  0.00  0.00     0.019 C 
HETATM   42  C   UNK N   1      35.932  14.236   6.751  0.00  0.00     0.030 C 
HETATM   43  C   UNK N   1      35.356  13.763   7.920  0.00  0.00     0.030 C 
HETATM   44  C   UNK N   1      34.009  14.059   8.188  0.00  0.00     0.030 C 
HETATM   45  C   UNK N   1      33.391  15.084   7.476  0.00  0.00     0.019 C 
BRANCH  43  46
HETATM   46  N   UNK N   1      36.219  13.686   9.036  0.00  0.00    -0.378 N 
HETATM   47  C   UNK N   1      36.685  12.383   9.447  0.00  0.00     0.153 C 
HETATM   48  C   UNK N   1      37.231  12.399  10.848  0.00  0.00     0.292 C 
HETATM   49  N   UNK N   1      36.293  13.046  11.769  0.00  0.00     0.095 N 
HETATM   50  C   UNK N   1      36.175  14.463  11.491  0.00  0.00     0.292 C 
HETATM   51  C   UNK N   1      36.089  14.797   9.998  0.00  0.00     0.153 C 
BRANCH  49  52
HETATM   52  C   UNK N   1      34.981  12.404  11.998  0.00  0.00     0.307 C 
BRANCH  52  53
HETATM   53  C   UNK N   1      35.103  11.057  12.678  0.00  0.00    -0.044 C 
HETATM   54  C   UNK N   1      34.961   9.855  11.779  0.00  0.00     0.045 C 
HETATM   55  C   UNK N   1      35.879   8.707  12.154  0.00  0.00    -0.044 C 
HETATM   56  C   UNK N   1      35.510   7.503  11.314  0.00  0.00     0.015 C 
HETATM   57  C   UNK N   1      37.331   9.058  11.875  0.00  0.00     0.015 C 
HETATM   58  C   UNK N   1      35.650   8.373  13.624  0.00  0.00     0.013 C 
HETATM   59  C   UNK N   1      35.835   9.572  14.565  0.00  0.00     0.040 C 
HETATM   60  C   UNK N   1      35.448  10.928  14.000  0.00  0.00    -0.044 C 
BRANCH  60  61
HETATM   61  C   UNK N   1      35.593  12.125  14.895  0.00  0.00    -0.029 A 
HETATM   62  C   UNK N   1      36.744  12.934  14.843  0.00  0.00     0.013 A 
HETATM   63  C   UNK N   1      36.947  13.953  15.770  0.00  0.00     0.024 A 
HETATM   64  C   UNK N   1      36.002  14.180  16.768  0.00  0.00     0.034 A 
HETATM   65  C   UNK N   1      34.830  13.416  16.809  0.00  0.00     0.024 A 
HETATM   66 Cl   UNK N   1      36.300  15.410  17.976  0.00  0.00    -0.084 Cl
HETATM   67  C   UNK N   1      34.620  12.398  15.868  0.00  0.00     0.013 A 
ENDBRANCH  60  61
ENDBRANCH  52  53
ENDBRANCH  49  52
ENDBRANCH  43  46
ENDBRANCH  37  40
ENDBRANCH   3  36
TORSDOF 17
ENDMDL
MODEL 5
REMARK VINA RESULT:      -9.3      8.536     12.606
REMARK  17 active torsions:
REMARK  status: ('A' for Active; 'I' for Inactive)
REMARK    1  A    between atoms: C_21  and  C_19 
REMARK    2  A    between atoms: C_38  and  C_19 
REMARK    3  A    between atoms: N_54  and  C_21 
REMARK    4  A    between atoms: C_36  and  C_32 
REMARK    5  A    between atoms: N_55  and  C_32 
REMARK    6  A    between atoms: C_38  and  C_33 
REMARK    7  A    between atoms: S_63  and  C_33 
REMARK    8  A    between atoms: C_42  and  C_34 
REMARK    9  A    between atoms: C_45  and  C_35 
REMARK   10  A    between atoms: C_38  and  N_52 
REMARK   11  A    between atoms: N_56  and  C_39 
REMARK   12  A    between atoms: S_63  and  C_40 
REMARK   13  A    between atoms: S_65  and  C_41 
REMARK   14  A    between atoms: N_52  and  C_43 
REMARK   15  A    between atoms: S_64  and  C_44 
REMARK       I    between atoms: N_53  and  C_45 
REMARK   16  A    between atoms: S_64  and  C_47 
REMARK   17  A    between atoms: S_65  and  N_53 
ROOT
HETATM    1  O   UNK N   1      19.611  18.041   2.255  0.00  0.00    -0.200 OA
HETATM    2  O   UNK N   1      19.622  17.255   0.553  0.00  0.00    -0.200 OA
HETATM    3  S   UNK N   1      20.654  17.100   1.675  0.00  0.00     0.265 S 
ENDROOT
BRANCH   3   4
HETATM    4  C   UNK N   1      20.918  17.613   3.406  0.00  0.00     0.081 C 
HETATM    5  C   UNK N   1      22.140  18.194   3.774  0.00  0.00     0.027 C 
HETATM    6  C   UNK N   1      22.620  18.016   5.053  0.00  0.00     0.032 C 
HETATM    7  C   UNK N   1      21.911  17.226   5.957  0.00  0.00     0.050 C 
HETATM    8  C   UNK N   1      20.569  16.884   5.687  0.00  0.00     0.096 C 
HETATM    9  C   UNK N   1      20.111  17.052   4.400  0.00  0.00     0.051 C 
BRANCH   7  10
HETATM   10  N   UNK N   1      22.704  16.311   6.672  0.00  0.00    -0.383 N 
HETATM   11  H   UNK N   1      22.925  16.444   7.622  0.00  0.00     0.160 HD
BRANCH  10  12
HETATM   12  C   UNK N   1      23.185  15.137   5.915  0.00  0.00     0.093 C 
BRANCH  12  13
HETATM   13  C   UNK N   1      24.580  15.304   5.199  0.00  0.00     0.056 C 
BRANCH  13  14
HETATM   14  C   UNK N   1      24.606  15.261   3.653  0.00  0.00     0.274 C 
BRANCH  14  15
HETATM   15  N   UNK N   1      25.434  16.316   3.059  0.00  0.00     0.092 N 
HETATM   16  C   UNK N   1      26.341  15.685   2.086  0.00  0.00     0.298 C 
HETATM   17  C   UNK N   1      27.681  15.258   2.724  0.00  0.00     0.198 C 
HETATM   18  O   UNK N   1      28.396  16.293   3.388  0.00  0.00    -0.388 OA
HETATM   19  C   UNK N   1      27.591  17.427   3.654  0.00  0.00     0.198 C 
HETATM   20  C   UNK N   1      26.176  17.038   4.105  0.00  0.00     0.298 C 
ENDBRANCH  14  15
ENDBRANCH  13  14
ENDBRANCH  12  13
BRANCH  12  21
HETATM   21  C   UNK N   1      23.136  13.855   6.734  0.00  0.00     0.104 C 
BRANCH  21  22
HETATM   22  S   UNK N   1      24.645  13.594   7.728  0.00  0.00    -0.128 SA
BRANCH  22  23
HETATM   23  C   UNK N   1      23.830  13.012   9.212  0.00  0.00     0.000 A 
HETATM   24  C   UNK N   1      22.454  13.211   9.334  0.00  0.00     0.018 A 
HETATM   25  C   UNK N   1      21.783  12.784  10.482  0.00  0.00     0.001 A 
HETATM   26  C   UNK N   1      22.489  12.158  11.512  0.00  0.00     0.000 A 
HETATM   27  C   UNK N   1      23.866  11.953  11.394  0.00  0.00     0.001 A 
HETATM   28  C   UNK N   1      24.534  12.378  10.246  0.00  0.00     0.018 A 
ENDBRANCH  22  23
ENDBRANCH  21  22
ENDBRANCH  12  21
ENDBRANCH  10  12
ENDBRANCH   7  10
BRANCH   8  29
HETATM   29  S   UNK N   1      19.464  16.005   6.807  0.00  0.00     0.278 S 
HETATM   30  O   UNK N   1      19.844  14.517   6.783  0.00  0.00    -0.213 OA
HETATM   31  O   UNK N   1      18.046  15.939   6.223  0.00  0.00    -0.213 OA
BRANCH  29  32
HETATM   32  C   UNK N   1      19.369  16.511   8.565  0.00  0.00     0.503 C 
HETATM   33  F   UNK N   1      18.167  17.147   8.814  0.00  0.00    -0.157 F 
HETATM   34  F   UNK N   1      19.455  15.393   9.371  0.00  0.00    -0.157 F 
HETATM   35  F   UNK N   1      20.411  17.362   8.879  0.00  0.00    -0.157 F 
ENDBRANCH  29  32
ENDBRANCH   8  29
ENDBRANCH   3   4
BRANCH   3  36
HETATM   36  N   UNK N   1      19.985  15.511   2.196  0.00  0.00    -0.246 N 
HETATM   37  C   UNK N   1      20.129  14.187   1.903  0.00  0.00     0.265 C 
HETATM   38  O   UNK N   1      19.461  13.389   2.563  0.00  0.00    -0.267 OA
HETATM   39  H   UNK N   1      19.315  15.636   2.907  0.00  0.00     0.182 HD
BRANCH  37  40
HETATM   40  C   UNK N   1      21.124  13.606   0.973  0.00  0.00     0.033 C 
HETATM   41  C   UNK N   1      22.338  14.226   0.762  0.00  0.00     0.019 C 
HETATM   42  C   UNK N   1      23.436  13.528   0.365  0.00  0.00     0.030 C 
HETATM   43  C   UNK N   1      23.335  12.154   0.205  0.00  0.00     0.030 C 
HETATM   44  C   UNK N   1      22.063  11.569   0.100  0.00  0.00     0.030 C 
HETATM   45  C   UNK N   1      20.949  12.305   0.498  0.00  0.00     0.019 C 
BRANCH  43  46
HETATM   46  N   UNK N   1      24.328  11.391   0.860  0.00  0.00    -0.378 N 
HETATM   47  C   UNK N   1      24.089   9.978   1.042  0.00  0.00     0.153 C 
HETATM   48  C   UNK N   1      24.994   9.388   2.088  0.00  0.00     0.292 C 
HETATM   49  N   UNK N   1      24.972  10.188   3.314  0.00  0.00     0.095 N 
HETATM   50  C   UNK N   1      25.582  11.486   3.107  0.00  0.00     0.292 C 
HETATM   51  C   UNK N   1      25.186  12.153   1.785  0.00  0.00     0.153 C 
BRANCH  49  52
HETATM   52  C   UNK N   1      23.705  10.274   4.071  0.00  0.00     0.307 C 
BRANCH  52  53
HETATM   53  C   UNK N   1      23.393   9.001   4.830  0.00  0.00    -0.044 C 
HETATM   54  C   UNK N   1      24.569   8.334   5.498  0.00  0.00     0.045 C 
HETATM   55  C   UNK N   1      24.230   7.713   6.840  0.00  0.00    -0.044 C 
HETATM   56  C   UNK N   1      25.425   6.914   7.315  0.00  0.00     0.015 C 
HETATM   57  C   UNK N   1      23.929   8.784   7.875  0.00  0.00     0.015 C 
HETATM   58  C   UNK N   1      23.050   6.767   6.644  0.00  0.00     0.013 C 
HETATM   59  C   UNK N   1      21.823   7.436   6.007  0.00  0.00     0.040 C 
HETATM   60  C   UNK N   1      22.112   8.546   5.012  0.00  0.00    -0.044 C 
BRANCH  60  61
HETATM   61  C   UNK N   1      20.940   9.212   4.349  0.00  0.00    -0.029 A 
HETATM   62  C   UNK N   1      20.075  10.050   5.078  0.00  0.00     0.013 A 
HETATM   63  C   UNK N   1      18.907  10.548   4.506  0.00  0.00     0.024 A 
HETATM   64  C   UNK N   1      18.583  10.216   3.192  0.00  0.00     0.034 A 
HETATM   65  C   UNK N   1      19.454   9.422   2.437  0.00  0.00     0.024 A 
HETATM   66 Cl   UNK N   1      17.078  10.782   2.504  0.00  0.00    -0.084 Cl
HETATM   67  C   UNK N   1      20.635   8.929   3.009  0.00  0.00     0.013 A 
ENDBRANCH  60  61
ENDBRANCH  52  53
ENDBRANCH  49  52
ENDBRANCH  43  46
ENDBRANCH  37  40
ENDBRANCH   3  36
TORSDOF 17
ENDMDL
MODEL 6
REMARK VINA RESULT:      -9.3      1.794      3.831
REMARK  17 active torsions:
REMARK  status: ('A' for Active; 'I' for Inactive)
REMARK    1  A    between atoms: C_21  and  C_19 
REMARK    2  A    between atoms: C_38  and  C_19 
REMARK    3  A    between atoms: N_54  and  C_21 
REMARK    4  A    between atoms: C_36  and  C_32 
REMARK    5  A    between atoms: N_55  and  C_32 
REMARK    6  A    between atoms: C_38  and  C_33 
REMARK    7  A    between atoms: S_63  and  C_33 
REMARK    8  A    between atoms: C_42  and  C_34 
REMARK    9  A    between atoms: C_45  and  C_35 
REMARK   10  A    between atoms: C_38  and  N_52 
REMARK   11  A    between atoms: N_56  and  C_39 
REMARK   12  A    between atoms: S_63  and  C_40 
REMARK   13  A    between atoms: S_65  and  C_41 
REMARK   14  A    between atoms: N_52  and  C_43 
REMARK   15  A    between atoms: S_64  and  C_44 
REMARK       I    between atoms: N_53  and  C_45 
REMARK   16  A    between atoms: S_64  and  C_47 
REMARK   17  A    between atoms: S_65  and  N_53 
ROOT
HETATM    1  O   UNK N   1      29.892  15.934   2.999  0.00  0.00    -0.200 OA
HETATM    2  O   UNK N   1      31.256  16.823   2.070  0.00  0.00    -0.200 OA
HETATM    3  S   UNK N   1      30.970  16.837   3.576  0.00  0.00     0.265 S 
ENDROOT
BRANCH   3   4
HETATM    4  C   UNK N   1      29.846  16.065   4.788  0.00  0.00     0.081 C 
HETATM    5  C   UNK N   1      28.863  15.170   4.342  0.00  0.00     0.027 C 
HETATM    6  C   UNK N   1      27.674  15.068   5.030  0.00  0.00     0.032 C 
HETATM    7  C   UNK N   1      27.438  15.885   6.134  0.00  0.00     0.050 C 
HETATM    8  C   UNK N   1      28.513  16.568   6.744  0.00  0.00     0.096 C 
HETATM    9  C   UNK N   1      29.688  16.674   6.036  0.00  0.00     0.051 C 
BRANCH   7  10
HETATM   10  N   UNK N   1      26.169  16.489   6.147  0.00  0.00    -0.383 N 
HETATM   11  H   UNK N   1      26.034  17.425   5.872  0.00  0.00     0.160 HD
BRANCH  10  12
HETATM   12  C   UNK N   1      25.047  15.637   6.595  0.00  0.00     0.093 C 
BRANCH  12  13
HETATM   13  C   UNK N   1      24.063  15.144   5.466  0.00  0.00     0.056 C 
BRANCH  13  14
HETATM   14  C   UNK N   1      23.416  16.215   4.557  0.00  0.00     0.274 C 
BRANCH  14  15
HETATM   15  N   UNK N   1      22.272  15.708   3.791  0.00  0.00     0.092 N 
HETATM   16  C   UNK N   1      21.618  16.855   3.141  0.00  0.00     0.298 C 
HETATM   17  C   UNK N   1      20.509  17.474   4.020  0.00  0.00     0.198 C 
HETATM   18  O   UNK N   1      19.496  16.571   4.447  0.00  0.00    -0.388 OA
HETATM   19  C   UNK N   1      19.875  15.216   4.293  0.00  0.00     0.198 C 
HETATM   20  C   UNK N   1      21.344  14.981   4.672  0.00  0.00     0.298 C 
ENDBRANCH  14  15
ENDBRANCH  13  14
ENDBRANCH  12  13
BRANCH  12  21
HETATM   21  C   UNK N   1      25.507  14.479   7.469  0.00  0.00     0.104 C 
BRANCH  21  22
HETATM   22  S   UNK N   1      24.668  12.910   7.063  0.00  0.00    -0.128 SA
BRANCH  22  23
HETATM   23  C   UNK N   1      23.927  12.636   8.670  0.00  0.00     0.000 A 
HETATM   24  C   UNK N   1      24.771  12.419   9.760  0.00  0.00     0.018 A 
HETATM   25  C   UNK N   1      24.233  12.188  11.027  0.00  0.00     0.001 A 
HETATM   26  C   UNK N   1      22.847  12.172  11.206  0.00  0.00     0.000 A 
HETATM   27  C   UNK N   1      21.998  12.394  10.119  0.00  0.00     0.001 A 
HETATM   28  C   UNK N   1      22.537  12.626   8.855  0.00  0.00     0.018 A 
ENDBRANCH  22  23
ENDBRANCH  21  22
ENDBRANCH  12  21
ENDBRANCH  10  12
ENDBRANCH   7  10
BRANCH   8  29
HETATM   29  S   UNK N   1      28.416  17.538   8.259  0.00  0.00     0.278 S 
HETATM   30  O   UNK N   1      27.366  16.891   9.175  0.00  0.00    -0.213 OA
HETATM   31  O   UNK N   1      27.750  18.894   7.989  0.00  0.00    -0.213 OA
BRANCH  29  32
HETATM   32  C   UNK N   1      29.925  17.797   9.266  0.00  0.00     0.503 C 
HETATM   33  F   UNK N   1      30.289  16.618   9.890  0.00  0.00    -0.157 F 
HETATM   34  F   UNK N   1      30.959  18.206   8.448  0.00  0.00    -0.157 F 
HETATM   35  F   UNK N   1      29.706  18.772  10.221  0.00  0.00    -0.157 F 
ENDBRANCH  29  32
ENDBRANCH   8  29
ENDBRANCH   3   4
BRANCH   3  36
HETATM   36  N   UNK N   1      32.257  15.627   3.925  0.00  0.00    -0.246 N 
HETATM   37  C   UNK N   1      33.125  15.305   4.927  0.00  0.00     0.265 C 
HETATM   38  O   UNK N   1      33.849  14.324   4.751  0.00  0.00    -0.267 OA
HETATM   39  H   UNK N   1      32.368  15.012   3.163  0.00  0.00     0.182 HD
BRANCH  37  40
HETATM   40  C   UNK N   1      33.173  15.930   6.269  0.00  0.00     0.033 C 
HETATM   41  C   UNK N   1      32.709  15.255   7.378  0.00  0.00     0.019 C 
HETATM   42  C   UNK N   1      33.176  15.527   8.626  0.00  0.00     0.030 C 
HETATM   43  C   UNK N   1      34.169  16.483   8.776  0.00  0.00     0.030 C 
HETATM   44  C   UNK N   1      34.412  17.388   7.729  0.00  0.00     0.030 C 
HETATM   45  C   UNK N   1      33.913  17.098   6.461  0.00  0.00     0.019 C 
BRANCH  43  46
HETATM   46  N   UNK N   1      35.291  16.082   9.536  0.00  0.00    -0.378 N 
HETATM   47  C   UNK N   1      36.030  14.921   9.098  0.00  0.00     0.153 C 
HETATM   48  C   UNK N   1      36.908  14.372  10.188  0.00  0.00     0.292 C 
HETATM   49  N   UNK N   1      36.155  14.199  11.432  0.00  0.00     0.095 N 
HETATM   50  C   UNK N   1      35.766  15.477  11.994  0.00  0.00     0.292 C 
HETATM   51  C   UNK N   1      35.253  16.480  10.956  0.00  0.00     0.153 C 
BRANCH  49  52
HETATM   52  C   UNK N   1      35.051  13.215  11.452  0.00  0.00     0.307 C 
BRANCH  52  53
HETATM   53  C   UNK N   1      35.538  11.801  11.686  0.00  0.00    -0.044 C 
HETATM   54  C   UNK N   1      35.728  10.961  10.448  0.00  0.00     0.045 C 
HETATM   55  C   UNK N   1      36.926  10.033  10.524  0.00  0.00    -0.044 C 
HETATM   56  C   UNK N   1      36.898   9.113   9.321  0.00  0.00     0.015 C 
HETATM   57  C   UNK N   1      38.226  10.818  10.495  0.00  0.00     0.015 C 
HETATM   58  C   UNK N   1      36.799   9.193  11.790  0.00  0.00     0.013 C 
HETATM   59  C   UNK N   1      36.652  10.028  13.071  0.00  0.00     0.040 C 
HETATM   60  C   UNK N   1      35.908  11.345  12.926  0.00  0.00    -0.044 C 
BRANCH  60  61
HETATM   61  C   UNK N   1      35.723  12.181  14.159  0.00  0.00    -0.029 A 
HETATM   62  C   UNK N   1      36.759  13.003  14.640  0.00  0.00     0.013 A 
HETATM   63  C   UNK N   1      36.644  13.663  15.861  0.00  0.00     0.024 A 
HETATM   64  C   UNK N   1      35.488  13.512  16.623  0.00  0.00     0.034 A 
HETATM   65  C   UNK N   1      34.428  12.736  16.141  0.00  0.00     0.024 A 
HETATM   66 Cl   UNK N   1      35.380  14.282  18.190  0.00  0.00    -0.084 Cl
HETATM   67  C   UNK N   1      34.539  12.081  14.906  0.00  0.00     0.013 A 
ENDBRANCH  60  61
ENDBRANCH  52  53
ENDBRANCH  49  52
ENDBRANCH  43  46
ENDBRANCH  37  40
ENDBRANCH   3  36
TORSDOF 17
ENDMDL
MODEL 7
REMARK VINA RESULT:      -9.3      1.952      3.227
REMARK  17 active torsions:
REMARK  status: ('A' for Active; 'I' for Inactive)
REMARK    1  A    between atoms: C_21  and  C_19 
REMARK    2  A    between atoms: C_38  and  C_19 
REMARK    3  A    between atoms: N_54  and  C_21 
REMARK    4  A    between atoms: C_36  and  C_32 
REMARK    5  A    between atoms: N_55  and  C_32 
REMARK    6  A    between atoms: C_38  and  C_33 
REMARK    7  A    between atoms: S_63  and  C_33 
REMARK    8  A    between atoms: C_42  and  C_34 
REMARK    9  A    between atoms: C_45  and  C_35 
REMARK   10  A    between atoms: C_38  and  N_52 
REMARK   11  A    between atoms: N_56  and  C_39 
REMARK   12  A    between atoms: S_63  and  C_40 
REMARK   13  A    between atoms: S_65  and  C_41 
REMARK   14  A    between atoms: N_52  and  C_43 
REMARK   15  A    between atoms: S_64  and  C_44 
REMARK       I    between atoms: N_53  and  C_45 
REMARK   16  A    between atoms: S_64  and  C_47 
REMARK   17  A    between atoms: S_65  and  N_53 
ROOT
HETATM    1  O   UNK N   1      30.081  16.022   3.183  0.00  0.00    -0.200 OA
HETATM    2  O   UNK N   1      31.479  16.887   2.283  0.00  0.00    -0.200 OA
HETATM    3  S   UNK N   1      31.181  16.881   3.787  0.00  0.00     0.265 S 
ENDROOT
BRANCH   3   4
HETATM    4  C   UNK N   1      30.023  16.120   4.973  0.00  0.00     0.081 C 
HETATM    5  C   UNK N   1      29.049  15.225   4.508  0.00  0.00     0.027 C 
HETATM    6  C   UNK N   1      27.841  15.132   5.165  0.00  0.00     0.032 C 
HETATM    7  C   UNK N   1      27.580  15.956   6.258  0.00  0.00     0.050 C 
HETATM    8  C   UNK N   1      28.640  16.639   6.891  0.00  0.00     0.096 C 
HETATM    9  C   UNK N   1      29.834  16.737   6.213  0.00  0.00     0.051 C 
BRANCH   7  10
HETATM   10  N   UNK N   1      26.312  16.564   6.234  0.00  0.00    -0.383 N 
HETATM   11  H   UNK N   1      26.138  17.423   6.683  0.00  0.00     0.160 HD
BRANCH  10  12
HETATM   12  C   UNK N   1      25.257  15.841   5.493  0.00  0.00     0.093 C 
BRANCH  12  13
HETATM   13  C   UNK N   1      23.937  15.537   6.298  0.00  0.00     0.056 C 
BRANCH  13  14
HETATM   14  C   UNK N   1      23.996  14.446   7.393  0.00  0.00     0.274 C 
BRANCH  14  15
HETATM   15  N   UNK N   1      22.755  13.671   7.506  0.00  0.00     0.092 N 
HETATM   16  C   UNK N   1      21.631  14.621   7.542  0.00  0.00     0.298 C 
HETATM   17  C   UNK N   1      21.270  15.049   8.982  0.00  0.00     0.198 C 
HETATM   18  O   UNK N   1      20.976  13.983   9.877  0.00  0.00    -0.388 OA
HETATM   19  C   UNK N   1      21.416  12.728   9.391  0.00  0.00     0.198 C 
HETATM   20  C   UNK N   1      22.786  12.821   8.706  0.00  0.00     0.298 C 
ENDBRANCH  14  15
ENDBRANCH  13  14
ENDBRANCH  12  13
BRANCH  12  21
HETATM   21  C   UNK N   1      24.947  16.481   4.147  0.00  0.00     0.104 C 
BRANCH  21  22
HETATM   22  S   UNK N   1      24.125  18.102   4.309  0.00  0.00    -0.128 SA
BRANCH  22  23
HETATM   23  C   UNK N   1      25.608  19.076   4.550  0.00  0.00     0.000 A 
HETATM   24  C   UNK N   1      26.763  18.707   3.859  0.00  0.00     0.018 A 
HETATM   25  C   UNK N   1      27.944  19.432   4.030  0.00  0.00     0.001 A 
HETATM   26  C   UNK N   1      27.971  20.529   4.896  0.00  0.00     0.000 A 
HETATM   27  C   UNK N   1      26.817  20.906   5.586  0.00  0.00     0.001 A 
HETATM   28  C   UNK N   1      25.638  20.181   5.413  0.00  0.00     0.018 A 
ENDBRANCH  22  23
ENDBRANCH  21  22
ENDBRANCH  12  21
ENDBRANCH  10  12
ENDBRANCH   7  10
BRANCH   8  29
HETATM   29  S   UNK N   1      28.507  17.619   8.397  0.00  0.00     0.278 S 
HETATM   30  O   UNK N   1      27.443  16.971   9.297  0.00  0.00    -0.213 OA
HETATM   31  O   UNK N   1      27.838  18.969   8.104  0.00  0.00    -0.213 OA
BRANCH  29  32
HETATM   32  C   UNK N   1      29.994  17.895   9.432  0.00  0.00     0.503 C 
HETATM   33  F   UNK N   1      29.691  18.732  10.489  0.00  0.00    -0.157 F 
HETATM   34  F   UNK N   1      30.437  16.687   9.933  0.00  0.00    -0.157 F 
HETATM   35  F   UNK N   1      31.008  18.457   8.678  0.00  0.00    -0.157 F 
ENDBRANCH  29  32
ENDBRANCH   8  29
ENDBRANCH   3   4
BRANCH   3  36
HETATM   36  N   UNK N   1      32.427  15.625   4.122  0.00  0.00    -0.246 N 
HETATM   37  C   UNK N   1      33.262  15.246   5.132  0.00  0.00     0.265 C 
HETATM   38  O   UNK N   1      33.964  14.252   4.939  0.00  0.00    -0.267 OA
HETATM   39  H   UNK N   1      32.540  15.034   3.343  0.00  0.00     0.182 HD
BRANCH  37  40
HETATM   40  C   UNK N   1      33.294  15.824   6.496  0.00  0.00     0.033 C 
HETATM   41  C   UNK N   1      32.811  15.112   7.574  0.00  0.00     0.019 C 
HETATM   42  C   UNK N   1      33.262  15.337   8.838  0.00  0.00     0.030 C 
HETATM   43  C   UNK N   1      34.258  16.282   9.035  0.00  0.00     0.030 C 
HETATM   44  C   UNK N   1      34.521  17.221   8.024  0.00  0.00     0.030 C 
HETATM   45  C   UNK N   1      34.038  16.980   6.740  0.00  0.00     0.019 C 
BRANCH  43  46
HETATM   46  N   UNK N   1      35.367  15.848   9.796  0.00  0.00    -0.378 N 
HETATM   47  C   UNK N   1      36.009  14.611   9.418  0.00  0.00     0.153 C 
HETATM   48  C   UNK N   1      36.872  14.067  10.523  0.00  0.00     0.292 C 
HETATM   49  N   UNK N   1      36.140  14.028  11.791  0.00  0.00     0.095 N 
HETATM   50  C   UNK N   1      35.858  15.364  12.277  0.00  0.00     0.292 C 
HETATM   51  C   UNK N   1      35.393  16.336  11.187  0.00  0.00     0.153 C 
BRANCH  49  52
HETATM   52  C   UNK N   1      34.969  13.131  11.896  0.00  0.00     0.307 C 
BRANCH  52  53
HETATM   53  C   UNK N   1      35.321  11.784  12.491  0.00  0.00    -0.044 C 
HETATM   54  C   UNK N   1      35.795  11.805  13.922  0.00  0.00     0.045 C 
HETATM   55  C   UNK N   1      35.314  10.619  14.736  0.00  0.00    -0.044 C 
HETATM   56  C   UNK N   1      36.006  10.648  16.083  0.00  0.00     0.015 C 
HETATM   57  C   UNK N   1      33.814  10.689  14.968  0.00  0.00     0.015 C 
HETATM   58  C   UNK N   1      35.715   9.343  14.003  0.00  0.00     0.013 C 
HETATM   59  C   UNK N   1      35.204   9.278  12.556  0.00  0.00     0.040 C 
HETATM   60  C   UNK N   1      35.105  10.605  11.824  0.00  0.00    -0.044 C 
BRANCH  60  61
HETATM   61  C   UNK N   1      34.630  10.582  10.400  0.00  0.00    -0.029 A 
HETATM   62  C   UNK N   1      35.503  10.892   9.340  0.00  0.00     0.013 A 
HETATM   63  C   UNK N   1      35.032  11.018   8.035  0.00  0.00     0.024 A 
HETATM   64  C   UNK N   1      33.677  10.836   7.768  0.00  0.00     0.034 A 
HETATM   65  C   UNK N   1      32.801  10.482   8.800  0.00  0.00     0.024 A 
HETATM   66 Cl   UNK N   1      33.079  11.069   6.140  0.00  0.00    -0.084 Cl
HETATM   67  C   UNK N   1      33.278  10.344  10.112  0.00  0.00     0.013 A 
ENDBRANCH  60  61
ENDBRANCH  52  53
ENDBRANCH  49  52
ENDBRANCH  43  46
ENDBRANCH  37  40
ENDBRANCH   3  36
TORSDOF 17
ENDMDL
MODEL 8
REMARK VINA RESULT:      -9.3      1.437      2.212
REMARK  17 active torsions:
REMARK  status: ('A' for Active; 'I' for Inactive)
REMARK    1  A    between atoms: C_21  and  C_19 
REMARK    2  A    between atoms: C_38  and  C_19 
REMARK    3  A    between atoms: N_54  and  C_21 
REMARK    4  A    between atoms: C_36  and  C_32 
REMARK    5  A    between atoms: N_55  and  C_32 
REMARK    6  A    between atoms: C_38  and  C_33 
REMARK    7  A    between atoms: S_63  and  C_33 
REMARK    8  A    between atoms: C_42  and  C_34 
REMARK    9  A    between atoms: C_45  and  C_35 
REMARK   10  A    between atoms: C_38  and  N_52 
REMARK   11  A    between atoms: N_56  and  C_39 
REMARK   12  A    between atoms: S_63  and  C_40 
REMARK   13  A    between atoms: S_65  and  C_41 
REMARK   14  A    between atoms: N_52  and  C_43 
REMARK   15  A    between atoms: S_64  and  C_44 
REMARK       I    between atoms: N_53  and  C_45 
REMARK   16  A    between atoms: S_64  and  C_47 
REMARK   17  A    between atoms: S_65  and  N_53 
ROOT
HETATM    1  O   UNK N   1      30.150  16.060   3.286  0.00  0.00    -0.200 OA
HETATM    2  O   UNK N   1      31.507  16.866   2.275  0.00  0.00    -0.200 OA
HETATM    3  S   UNK N   1      31.284  16.937   3.790  0.00  0.00     0.265 S 
ENDROOT
BRANCH   3   4
HETATM    4  C   UNK N   1      30.182  16.247   5.070  0.00  0.00     0.081 C 
HETATM    5  C   UNK N   1      29.256  15.254   4.719  0.00  0.00     0.027 C 
HETATM    6  C   UNK N   1      28.062  15.165   5.400  0.00  0.00     0.032 C 
HETATM    7  C   UNK N   1      27.764  16.088   6.401  0.00  0.00     0.050 C 
HETATM    8  C   UNK N   1      28.790  16.894   6.941  0.00  0.00     0.096 C 
HETATM    9  C   UNK N   1      29.970  16.984   6.238  0.00  0.00     0.051 C 
BRANCH   7  10
HETATM   10  N   UNK N   1      26.464  16.619   6.331  0.00  0.00    -0.383 N 
HETATM   11  H   UNK N   1      26.286  17.580   6.451  0.00  0.00     0.160 HD
BRANCH  10  12
HETATM   12  C   UNK N   1      25.379  15.650   6.064  0.00  0.00     0.093 C 
BRANCH  12  13
HETATM   13  C   UNK N   1      24.970  14.725   7.273  0.00  0.00     0.056 C 
BRANCH  13  14
HETATM   14  C   UNK N   1      25.138  13.197   7.099  0.00  0.00     0.274 C 
BRANCH  14  15
HETATM   15  N   UNK N   1      24.374  12.417   8.079  0.00  0.00     0.092 N 
HETATM   16  C   UNK N   1      22.970  12.389   7.640  0.00  0.00     0.298 C 
HETATM   17  C   UNK N   1      22.150  13.562   8.220  0.00  0.00     0.198 C 
HETATM   18  O   UNK N   1      22.167  13.672   9.639  0.00  0.00    -0.388 OA
HETATM   19  C   UNK N   1      23.209  12.919  10.231  0.00  0.00     0.198 C 
HETATM   20  C   UNK N   1      24.512  13.001   9.423  0.00  0.00     0.298 C 
ENDBRANCH  14  15
ENDBRANCH  13  14
ENDBRANCH  12  13
BRANCH  12  21
HETATM   21  C   UNK N   1      24.158  16.303   5.431  0.00  0.00     0.104 C 
BRANCH  21  22
HETATM   22  S   UNK N   1      23.347  15.232   4.195  0.00  0.00    -0.128 SA
BRANCH  22  23
HETATM   23  C   UNK N   1      24.834  14.722   3.338  0.00  0.00     0.000 A 
HETATM   24  C   UNK N   1      25.549  15.683   2.624  0.00  0.00     0.018 A 
HETATM   25  C   UNK N   1      26.707  15.323   1.930  0.00  0.00     0.001 A 
HETATM   26  C   UNK N   1      27.150  13.998   1.950  0.00  0.00     0.000 A 
HETATM   27  C   UNK N   1      26.440  13.032   2.667  0.00  0.00     0.001 A 
HETATM   28  C   UNK N   1      25.285  13.394   3.360  0.00  0.00     0.018 A 
ENDBRANCH  22  23
ENDBRANCH  21  22
ENDBRANCH  12  21
ENDBRANCH  10  12
ENDBRANCH   7  10
BRANCH   8  29
HETATM   29  S   UNK N   1      28.614  18.023   8.334  0.00  0.00     0.278 S 
HETATM   30  O   UNK N   1      27.619  17.406   9.328  0.00  0.00    -0.213 OA
HETATM   31  O   UNK N   1      27.842  19.281   7.914  0.00  0.00    -0.213 OA
BRANCH  29  32
HETATM   32  C   UNK N   1      30.097  18.517   9.290  0.00  0.00     0.503 C 
HETATM   33  F   UNK N   1      29.742  18.841  10.586  0.00  0.00    -0.157 F 
HETATM   34  F   UNK N   1      30.993  17.467   9.324  0.00  0.00    -0.157 F 
HETATM   35  F   UNK N   1      30.713  19.603   8.698  0.00  0.00    -0.157 F 
ENDBRANCH  29  32
ENDBRANCH   8  29
ENDBRANCH   3   4
BRANCH   3  36
HETATM   36  N   UNK N   1      32.538  15.689   4.127  0.00  0.00    -0.246 N 
HETATM   37  C   UNK N   1      33.365  15.307   5.142  0.00  0.00     0.265 C 
HETATM   38  O   UNK N   1      34.078  14.321   4.946  0.00  0.00    -0.267 OA
HETATM   39  H   UNK N   1      32.664  15.107   3.343  0.00  0.00     0.182 HD
BRANCH  37  40
HETATM   40  C   UNK N   1      33.378  15.871   6.511  0.00  0.00     0.033 C 
HETATM   41  C   UNK N   1      32.892  15.143   7.577  0.00  0.00     0.019 C 
HETATM   42  C   UNK N   1      33.330  15.360   8.848  0.00  0.00     0.030 C 
HETATM   43  C   UNK N   1      34.312  16.314   9.064  0.00  0.00     0.030 C 
HETATM   44  C   UNK N   1      34.573  17.267   8.065  0.00  0.00     0.030 C 
HETATM   45  C   UNK N   1      34.106  17.033   6.774  0.00  0.00     0.019 C 
BRANCH  43  46
HETATM   46  N   UNK N   1      35.418  15.886   9.831  0.00  0.00    -0.378 N 
HETATM   47  C   UNK N   1      36.126  14.702   9.402  0.00  0.00     0.153 C 
HETATM   48  C   UNK N   1      36.983  14.133  10.499  0.00  0.00     0.292 C 
HETATM   49  N   UNK N   1      36.220  13.989  11.741  0.00  0.00     0.095 N 
HETATM   50  C   UNK N   1      35.865  15.281  12.294  0.00  0.00     0.292 C 
HETATM   51  C   UNK N   1      35.386  16.293  11.248  0.00  0.00     0.153 C 
BRANCH  49  52
HETATM   52  C   UNK N   1      35.089  13.037  11.761  0.00  0.00     0.307 C 
BRANCH  52  53
HETATM   53  C   UNK N   1      35.544  11.596  11.854  0.00  0.00    -0.044 C 
HETATM   54  C   UNK N   1      35.637  10.854  10.546  0.00  0.00     0.045 C 
HETATM   55  C   UNK N   1      36.808   9.891  10.478  0.00  0.00    -0.044 C 
HETATM   56  C   UNK N   1      36.684   9.071   9.210  0.00  0.00     0.015 C 
HETATM   57  C   UNK N   1      38.128  10.641  10.434  0.00  0.00     0.015 C 
HETATM   58  C   UNK N   1      36.727   8.956  11.679  0.00  0.00     0.013 C 
HETATM   59  C   UNK N   1      36.678   9.689  13.028  0.00  0.00     0.040 C 
HETATM   60  C   UNK N   1      35.969  11.032  13.031  0.00  0.00    -0.044 C 
BRANCH  60  61
HETATM   61  C   UNK N   1      35.879  11.772  14.334  0.00  0.00    -0.029 A 
HETATM   62  C   UNK N   1      34.725  11.689  15.137  0.00  0.00     0.013 A 
HETATM   63  C   UNK N   1      34.580  12.488  16.268  0.00  0.00     0.024 A 
HETATM   64  C   UNK N   1      35.587  13.385  16.618  0.00  0.00     0.034 A 
HETATM   65  C   UNK N   1      36.761  13.448  15.859  0.00  0.00     0.024 A 
HETATM   66 Cl   UNK N   1      35.365  14.439  17.996  0.00  0.00    -0.084 Cl
HETATM   67  C   UNK N   1      36.913  12.636  14.726  0.00  0.00     0.013 A 
ENDBRANCH  60  61
ENDBRANCH  52  53
ENDBRANCH  49  52
ENDBRANCH  43  46
ENDBRANCH  37  40
ENDBRANCH   3  36
TORSDOF 17
ENDMDL
MODEL 9
REMARK VINA RESULT:      -9.2      2.482      3.827
REMARK  17 active torsions:
REMARK  status: ('A' for Active; 'I' for Inactive)
REMARK    1  A    between atoms: C_21  and  C_19 
REMARK    2  A    between atoms: C_38  and  C_19 
REMARK    3  A    between atoms: N_54  and  C_21 
REMARK    4  A    between atoms: C_36  and  C_32 
REMARK    5  A    between atoms: N_55  and  C_32 
REMARK    6  A    between atoms: C_38  and  C_33 
REMARK    7  A    between atoms: S_63  and  C_33 
REMARK    8  A    between atoms: C_42  and  C_34 
REMARK    9  A    between atoms: C_45  and  C_35 
REMARK   10  A    between atoms: C_38  and  N_52 
REMARK   11  A    between atoms: N_56  and  C_39 
REMARK   12  A    between atoms: S_63  and  C_40 
REMARK   13  A    between atoms: S_65  and  C_41 
REMARK   14  A    between atoms: N_52  and  C_43 
REMARK   15  A    between atoms: S_64  and  C_44 
REMARK       I    between atoms: N_53  and  C_45 
REMARK   16  A    between atoms: S_64  and  C_47 
REMARK   17  A    between atoms: S_65  and  N_53 
ROOT
HETATM    1  O   UNK N   1      30.298  16.290   3.161  0.00  0.00    -0.200 OA
HETATM    2  O   UNK N   1      31.743  17.108   2.290  0.00  0.00    -0.200 OA
HETATM    3  S   UNK N   1      31.434  17.080   3.792  0.00  0.00     0.265 S 
ENDROOT
BRANCH   3   4
HETATM    4  C   UNK N   1      30.231  16.347   4.952  0.00  0.00     0.081 C 
HETATM    5  C   UNK N   1      29.273  15.443   4.472  0.00  0.00     0.027 C 
HETATM    6  C   UNK N   1      28.042  15.366   5.086  0.00  0.00     0.032 C 
HETATM    7  C   UNK N   1      27.743  16.216   6.149  0.00  0.00     0.050 C 
HETATM    8  C   UNK N   1      28.781  16.912   6.805  0.00  0.00     0.096 C 
HETATM    9  C   UNK N   1      29.999  16.993   6.170  0.00  0.00     0.051 C 
BRANCH   7  10
HETATM   10  N   UNK N   1      26.479  16.825   6.065  0.00  0.00    -0.383 N 
HETATM   11  H   UNK N   1      26.317  17.739   6.395  0.00  0.00     0.160 HD
BRANCH  10  12
HETATM   12  C   UNK N   1      25.405  16.014   5.452  0.00  0.00     0.093 C 
BRANCH  12  13
HETATM   13  C   UNK N   1      24.413  15.313   6.456  0.00  0.00     0.056 C 
BRANCH  13  14
HETATM   14  C   UNK N   1      23.145  14.648   5.869  0.00  0.00     0.274 C 
BRANCH  14  15
HETATM   15  N   UNK N   1      21.989  14.713   6.771  0.00  0.00     0.092 N 
HETATM   16  C   UNK N   1      20.847  14.086   6.086  0.00  0.00     0.298 C 
HETATM   17  C   UNK N   1      20.023  15.105   5.267  0.00  0.00     0.198 C 
HETATM   18  O   UNK N   1      19.539  16.225   6.000  0.00  0.00    -0.388 OA
HETATM   19  C   UNK N   1      20.196  16.386   7.243  0.00  0.00     0.198 C 
HETATM   20  C   UNK N   1      21.702  16.107   7.142  0.00  0.00     0.298 C 
ENDBRANCH  14  15
ENDBRANCH  13  14
ENDBRANCH  12  13
BRANCH  12  21
HETATM   21  C   UNK N   1      24.650  16.771   4.369  0.00  0.00     0.104 C 
BRANCH  21  22
HETATM   22  S   UNK N   1      25.003  18.562   4.381  0.00  0.00    -0.128 SA
BRANCH  22  23
HETATM   23  C   UNK N   1      23.378  19.109   3.867  0.00  0.00     0.000 A 
HETATM   24  C   UNK N   1      22.266  18.388   4.307  0.00  0.00     0.018 A 
HETATM   25  C   UNK N   1      20.982  18.774   3.918  0.00  0.00     0.001 A 
HETATM   26  C   UNK N   1      20.807  19.882   3.084  0.00  0.00     0.000 A 
HETATM   27  C   UNK N   1      21.916  20.609   2.644  0.00  0.00     0.001 A 
HETATM   28  C   UNK N   1      23.197  20.223   3.035  0.00  0.00     0.018 A 
ENDBRANCH  22  23
ENDBRANCH  21  22
ENDBRANCH  12  21
ENDBRANCH  10  12
ENDBRANCH   7  10
BRANCH   8  29
HETATM   29  S   UNK N   1      28.595  17.926   8.283  0.00  0.00     0.278 S 
HETATM   30  O   UNK N   1      27.572  17.245   9.205  0.00  0.00    -0.213 OA
HETATM   31  O   UNK N   1      27.849  19.227   7.954  0.00  0.00    -0.213 OA
BRANCH  29  32
HETATM   32  C   UNK N   1      30.066  18.316   9.304  0.00  0.00     0.503 C 
HETATM   33  F   UNK N   1      29.676  18.709  10.571  0.00  0.00    -0.157 F 
HETATM   34  F   UNK N   1      30.862  17.194   9.411  0.00  0.00    -0.157 F 
HETATM   35  F   UNK N   1      30.805  19.327   8.718  0.00  0.00    -0.157 F 
ENDBRANCH  29  32
ENDBRANCH   8  29
ENDBRANCH   3   4
BRANCH   3  36
HETATM   36  N   UNK N   1      32.615  15.757   4.104  0.00  0.00    -0.246 N 
HETATM   37  C   UNK N   1      33.391  15.288   5.123  0.00  0.00     0.265 C 
HETATM   38  O   UNK N   1      34.062  14.278   4.901  0.00  0.00    -0.267 OA
HETATM   39  H   UNK N   1      32.739  15.207   3.297  0.00  0.00     0.182 HD
BRANCH  37  40
HETATM   40  C   UNK N   1      33.386  15.785   6.518  0.00  0.00     0.033 C 
HETATM   41  C   UNK N   1      32.925  14.991   7.548  0.00  0.00     0.019 C 
HETATM   42  C   UNK N   1      33.355  15.161   8.828  0.00  0.00     0.030 C 
HETATM   43  C   UNK N   1      34.307  16.134   9.091  0.00  0.00     0.030 C 
HETATM   44  C   UNK N   1      34.537  17.142   8.139  0.00  0.00     0.030 C 
HETATM   45  C   UNK N   1      34.077  16.956   6.838  0.00  0.00     0.019 C 
BRANCH  43  46
HETATM   46  N   UNK N   1      35.427  15.704   9.837  0.00  0.00    -0.378 N 
HETATM   47  C   UNK N   1      36.011  14.425   9.511  0.00  0.00     0.153 C 
HETATM   48  C   UNK N   1      36.895  13.915  10.616  0.00  0.00     0.292 C 
HETATM   49  N   UNK N   1      36.209  13.977  11.909  0.00  0.00     0.095 N 
HETATM   50  C   UNK N   1      35.992  15.348  12.324  0.00  0.00     0.292 C 
HETATM   51  C   UNK N   1      35.521  16.271  11.195  0.00  0.00     0.153 C 
BRANCH  49  52
HETATM   52  C   UNK N   1      35.012  13.131  12.107  0.00  0.00     0.307 C 
BRANCH  52  53
HETATM   53  C   UNK N   1      35.349  11.778  12.698  0.00  0.00    -0.044 C 
HETATM   54  C   UNK N   1      35.755  11.781  14.149  0.00  0.00     0.045 C 
HETATM   55  C   UNK N   1      35.248  10.578  14.922  0.00  0.00    -0.044 C 
HETATM   56  C   UNK N   1      35.877  10.592  16.300  0.00  0.00     0.015 C 
HETATM   57  C   UNK N   1      33.738  10.632  15.085  0.00  0.00     0.015 C 
HETATM   58  C   UNK N   1      35.694   9.318  14.190  0.00  0.00     0.013 C 
HETATM   59  C   UNK N   1      35.252   9.270  12.720  0.00  0.00     0.040 C 
HETATM   60  C   UNK N   1      35.175  10.607  12.004  0.00  0.00    -0.044 C 
BRANCH  60  61
HETATM   61  C   UNK N   1      34.767  10.603  10.559  0.00  0.00    -0.029 A 
HETATM   62  C   UNK N   1      35.728  10.701   9.534  0.00  0.00     0.013 A 
HETATM   63  C   UNK N   1      35.345  10.847   8.203  0.00  0.00     0.024 A 
HETATM   64  C   UNK N   1      33.993  10.898   7.873  0.00  0.00     0.034 A 
HETATM   65  C   UNK N   1      33.023  10.756   8.872  0.00  0.00     0.024 A 
HETATM   66 Cl   UNK N   1      33.519  11.158   6.209  0.00  0.00    -0.084 Cl
HETATM   67  C   UNK N   1      33.408  10.598  10.211  0.00  0.00     0.013 A 
ENDBRANCH  60  61
ENDBRANCH  52  53
ENDBRANCH  49  52
ENDBRANCH  43  46
ENDBRANCH  37  40
ENDBRANCH   3  36
TORSDOF 17
ENDMDL
