MODEL 1
REMARK VINA RESULT:      -8.2      0.000      0.000
REMARK  11 active torsions:
REMARK  status: ('A' for Active; 'I' for Inactive)
REMARK    1  A    between atoms: N_33  and  C_11 
REMARK    2  A    between atoms: O_41  and  C_11 
REMARK    3  A    between atoms: N_27  and  C_12 
REMARK    4  A    between atoms: O_38  and  C_15 
REMARK    5  A    between atoms: O_39  and  C_16 
REMARK    6  A    between atoms: N_28  and  C_17 
REMARK    7  A    between atoms: O_40  and  C_18 
REMARK    8  A    between atoms: N_28  and  C_19 
REMARK       I    between atoms: N_27  and  C_22 
REMARK    9  A    between atoms: P_43  and  O_35 
REMARK   10  A    between atoms: P_43  and  O_36 
REMARK   11  A    between atoms: P_43  and  O_41 
ROOT
HETATM    1  N   UNK N   1      30.033  16.828   2.696  0.00  0.00    -0.326 N 
ATOM      2  HN  UNK N   1      30.175  16.835   1.686  1.00  0.00     0.169 HD
ENDROOT
BRANCH   1   3
HETATM    3  C   UNK N   1      31.051  16.817   3.493  0.00  0.00     0.108 A 
HETATM    4  C   UNK N   1      32.362  16.772   3.003  0.00  0.00     0.051 A 
HETATM    5  C   UNK N   1      33.429  16.836   3.919  0.00  0.00     0.044 A 
HETATM    6  C   UNK N   1      33.170  16.921   5.296  0.00  0.00     0.115 A 
HETATM    7  C   UNK N   1      31.849  16.917   5.735  0.00  0.00     0.147 A 
HETATM    8  O   UNK N   1      34.180  17.015   6.194  0.00  0.00    -0.327 OA
HETATM    9  N   UNK N   1      30.849  16.866   4.834  0.00  0.00    -0.326 N 
HETATM   10  N   UNK N   1      31.548  16.983   7.115  0.00  0.00    -0.276 N 
HETATM   11  H   UNK N   1      29.922  16.866   5.167  0.00  0.00     0.169 HD
HETATM   12  C   UNK N   1      32.554  17.078   8.026  0.00  0.00     0.262 A 
HETATM   13  C   UNK N   1      34.010  17.117   7.574  0.00  0.00     0.141 A 
HETATM   14  O   UNK N   1      32.292  17.152   9.220  0.00  0.00    -0.269 OA
HETATM   15  C   UNK N   1      34.621  18.428   8.034  0.00  0.00     0.057 C 
HETATM   16  C   UNK N   1      34.764  15.976   8.230  0.00  0.00     0.057 C 
BRANCH  10  17
HETATM   17  C   UNK N   1      30.157  17.001   7.529  0.00  0.00     0.316 C 
BRANCH  17  18
HETATM   18  O   UNK N   1      29.639  18.297   7.492  0.00  0.00    -0.277 OA
BRANCH  18  19
HETATM   19  P   UNK N   1      27.920  18.112   7.721  0.00  0.00     0.392 P 
HETATM   20  O   UNK N   1      27.506  16.789   7.023  0.00  0.00    -0.632 OA
BRANCH  19  21
HETATM   21  O   UNK N   1      27.458  17.963   9.392  0.00  0.00    -0.307 OA
HETATM   22  H   UNK N   1      26.853  17.911  10.147  0.00  0.00     0.222 HD
ENDBRANCH  19  21
BRANCH  19  23
HETATM   23  O   UNK N   1      27.028  19.388   6.953  0.00  0.00    -0.307 OA
HETATM   24  H   UNK N   1      26.579  19.515   6.103  0.00  0.00     0.222 HD
ENDBRANCH  19  23
ENDBRANCH  18  19
ENDBRANCH  17  18
ENDBRANCH  10  17
ENDBRANCH   1   3
BRANCH   1  25
HETATM   25  C   UNK N   1      28.707  16.830   3.232  0.00  0.00     0.163 A 
HETATM   26  C   UNK N   1      28.040  15.605   3.460  0.00  0.00     0.176 A 
HETATM   27  C   UNK N   1      26.727  15.623   3.878  0.00  0.00     0.152 A 
HETATM   28  F   UNK N   1      28.653  14.411   3.264  0.00  0.00    -0.201 F 
HETATM   29  N   UNK N   1      26.106  16.804   4.064  0.00  0.00    -0.199 N 
HETATM   30  C   UNK N   1      26.747  17.992   3.867  0.00  0.00     0.684 A 
ATOM     31  HN  UNK N   1      25.131  16.811   4.362  1.00  0.00     0.183 HD
HETATM   32  N   UNK N   1      26.040  19.202   4.096  0.00  0.00    -0.191 N 
HETATM   33  N   UNK N   1      28.051  18.004   3.464  0.00  0.00    -0.173 N 
HETATM   34  H   UNK N   1      26.533  20.044   4.229  0.00  0.00     0.184 HD
ATOM     35  HN  UNK N   1      28.536  18.893   3.335  1.00  0.00     0.186 HD
BRANCH  32  36
HETATM   36  C   UNK N   1      24.618  19.194   4.132  0.00  0.00     0.054 A 
HETATM   37  C   UNK N   1      23.893  20.003   3.254  0.00  0.00     0.069 A 
HETATM   38  C   UNK N   1      22.505  19.952   3.184  0.00  0.00     0.106 A 
HETATM   39  C   UNK N   1      21.798  19.046   4.023  0.00  0.00     0.135 A 
HETATM   40  C   UNK N   1      22.535  18.221   4.926  0.00  0.00     0.106 A 
HETATM   41  C   UNK N   1      23.940  18.316   4.969  0.00  0.00     0.069 A 
BRANCH  38  42
HETATM   42  O   UNK N   1      21.907  20.777   2.283  0.00  0.00    -0.353 OA
HETATM   43  C   UNK N   1      21.311  20.394   1.105  0.00  0.00     0.210 C 
ENDBRANCH  38  42
BRANCH  39  44
HETATM   44  O   UNK N   1      20.441  18.994   3.930  0.00  0.00    -0.351 OA
HETATM   45  C   UNK N   1      19.709  18.084   3.203  0.00  0.00     0.210 C 
ENDBRANCH  39  44
BRANCH  40  46
HETATM   46  O   UNK N   1      21.892  17.332   5.724  0.00  0.00    -0.353 OA
HETATM   47  C   UNK N   1      22.475  16.185   6.214  0.00  0.00     0.210 C 
ENDBRANCH  40  46
ENDBRANCH  32  36
ENDBRANCH   1  25
TORSDOF 11
ENDMDL
MODEL 2
REMARK VINA RESULT:      -8.1      2.004      9.537
REMARK  11 active torsions:
REMARK  status: ('A' for Active; 'I' for Inactive)
REMARK    1  A    between atoms: N_33  and  C_11 
REMARK    2  A    between atoms: O_41  and  C_11 
REMARK    3  A    between atoms: N_27  and  C_12 
REMARK    4  A    between atoms: O_38  and  C_15 
REMARK    5  A    between atoms: O_39  and  C_16 
REMARK    6  A    between atoms: N_28  and  C_17 
REMARK    7  A    between atoms: O_40  and  C_18 
REMARK    8  A    between atoms: N_28  and  C_19 
REMARK       I    between atoms: N_27  and  C_22 
REMARK    9  A    between atoms: P_43  and  O_35 
REMARK   10  A    between atoms: P_43  and  O_36 
REMARK   11  A    between atoms: P_43  and  O_41 
ROOT
HETATM    1  N   UNK N   1      24.689  15.673   6.641  0.00  0.00    -0.326 N 
ATOM      2  HN  UNK N   1      24.425  15.297   7.551  1.00  0.00     0.169 HD
ENDROOT
BRANCH   1   3
HETATM    3  C   UNK N   1      23.797  16.226   5.885  0.00  0.00     0.108 A 
HETATM    4  C   UNK N   1      22.512  15.687   5.757  0.00  0.00     0.051 A 
HETATM    5  C   UNK N   1      21.563  16.375   4.977  0.00  0.00     0.044 A 
HETATM    6  C   UNK N   1      21.920  17.568   4.327  0.00  0.00     0.115 A 
HETATM    7  C   UNK N   1      23.224  18.038   4.449  0.00  0.00     0.147 A 
HETATM    8  O   UNK N   1      21.016  18.263   3.597  0.00  0.00    -0.327 OA
HETATM    9  N   UNK N   1      24.106  17.364   5.212  0.00  0.00    -0.326 N 
HETATM   10  N   UNK N   1      23.626  19.225   3.795  0.00  0.00    -0.276 N 
HETATM   11  H   UNK N   1      25.023  17.715   5.285  0.00  0.00     0.169 HD
HETATM   12  C   UNK N   1      22.727  19.933   3.059  0.00  0.00     0.262 A 
HETATM   13  C   UNK N   1      21.283  19.461   2.933  0.00  0.00     0.141 A 
HETATM   14  O   UNK N   1      23.071  20.971   2.506  0.00  0.00    -0.269 OA
HETATM   15  C   UNK N   1      20.373  20.534   3.503  0.00  0.00     0.057 C 
HETATM   16  C   UNK N   1      20.949  19.273   1.466  0.00  0.00     0.057 C 
BRANCH  10  17
HETATM   17  C   UNK N   1      24.989  19.695   3.969  0.00  0.00     0.316 C 
BRANCH  17  18
HETATM   18  O   UNK N   1      25.126  20.407   5.162  0.00  0.00    -0.277 OA
BRANCH  18  19
HETATM   19  P   UNK N   1      26.797  20.213   5.623  0.00  0.00     0.392 P 
HETATM   20  O   UNK N   1      27.410  21.634   5.729  0.00  0.00    -0.632 OA
BRANCH  19  21
HETATM   21  O   UNK N   1      26.999  19.463   7.180  0.00  0.00    -0.307 OA
HETATM   22  H   UNK N   1      26.841  19.317   8.125  0.00  0.00     0.222 HD
ENDBRANCH  19  21
BRANCH  19  23
HETATM   23  O   UNK N   1      27.703  19.361   4.413  0.00  0.00    -0.307 OA
HETATM   24  H   UNK N   1      28.283  19.601   3.673  0.00  0.00     0.222 HD
ENDBRANCH  19  23
ENDBRANCH  18  19
ENDBRANCH  17  18
ENDBRANCH  10  17
ENDBRANCH   1   3
BRANCH   1  25
HETATM   25  C   UNK N   1      26.046  15.588   6.197  0.00  0.00     0.163 A 
HETATM   26  C   UNK N   1      26.479  14.454   5.474  0.00  0.00     0.176 A 
HETATM   27  C   UNK N   1      27.812  14.336   5.144  0.00  0.00     0.152 A 
HETATM   28  F   UNK N   1      25.620  13.470   5.107  0.00  0.00    -0.201 F 
HETATM   29  N   UNK N   1      28.675  15.303   5.513  0.00  0.00    -0.199 N 
HETATM   30  C   UNK N   1      28.264  16.410   6.194  0.00  0.00     0.684 A 
ATOM     31  HN  UNK N   1      29.662  15.204   5.276  1.00  0.00     0.183 HD
HETATM   32  N   UNK N   1      29.222  17.400   6.541  0.00  0.00    -0.191 N 
HETATM   33  N   UNK N   1      26.948  16.559   6.524  0.00  0.00    -0.173 N 
HETATM   34  H   UNK N   1      28.928  18.309   6.777  0.00  0.00     0.184 HD
ATOM     35  HN  UNK N   1      26.638  17.397   7.017  1.00  0.00     0.186 HD
BRANCH  32  36
HETATM   36  C   UNK N   1      30.606  17.073   6.545  0.00  0.00     0.054 A 
HETATM   37  C   UNK N   1      31.347  17.158   5.364  0.00  0.00     0.069 A 
HETATM   38  C   UNK N   1      32.721  16.948   5.342  0.00  0.00     0.106 A 
HETATM   39  C   UNK N   1      33.399  16.645   6.555  0.00  0.00     0.135 A 
HETATM   40  C   UNK N   1      32.645  16.553   7.765  0.00  0.00     0.106 A 
HETATM   41  C   UNK N   1      31.253  16.762   7.736  0.00  0.00     0.069 A 
BRANCH  38  42
HETATM   42  O   UNK N   1      33.340  17.068   4.136  0.00  0.00    -0.353 OA
HETATM   43  C   UNK N   1      33.057  16.340   3.004  0.00  0.00     0.210 C 
ENDBRANCH  38  42
BRANCH  39  44
HETATM   44  O   UNK N   1      34.748  16.461   6.521  0.00  0.00    -0.351 OA
HETATM   45  C   UNK N   1      35.403  15.279   6.265  0.00  0.00     0.210 C 
ENDBRANCH  39  44
BRANCH  40  46
HETATM   46  O   UNK N   1      33.266  16.287   8.941  0.00  0.00    -0.353 OA
HETATM   47  C   UNK N   1      33.291  15.040   9.525  0.00  0.00     0.210 C 
ENDBRANCH  40  46
ENDBRANCH  32  36
ENDBRANCH   1  25
TORSDOF 11
ENDMDL
MODEL 3
REMARK VINA RESULT:      -8.1      2.841     10.139
REMARK  11 active torsions:
REMARK  status: ('A' for Active; 'I' for Inactive)
REMARK    1  A    between atoms: N_33  and  C_11 
REMARK    2  A    between atoms: O_41  and  C_11 
REMARK    3  A    between atoms: N_27  and  C_12 
REMARK    4  A    between atoms: O_38  and  C_15 
REMARK    5  A    between atoms: O_39  and  C_16 
REMARK    6  A    between atoms: N_28  and  C_17 
REMARK    7  A    between atoms: O_40  and  C_18 
REMARK    8  A    between atoms: N_28  and  C_19 
REMARK       I    between atoms: N_27  and  C_22 
REMARK    9  A    between atoms: P_43  and  O_35 
REMARK   10  A    between atoms: P_43  and  O_36 
REMARK   11  A    between atoms: P_43  and  O_41 
ROOT
HETATM    1  N   UNK N   1      26.203  19.027   5.862  0.00  0.00    -0.326 N 
ATOM      2  HN  UNK N   1      26.278  19.550   6.734  1.00  0.00     0.169 HD
ENDROOT
BRANCH   1   3
HETATM    3  C   UNK N   1      25.178  19.197   5.092  0.00  0.00     0.108 A 
HETATM    4  C   UNK N   1      25.217  20.084   4.009  0.00  0.00     0.051 A 
HETATM    5  C   UNK N   1      24.095  20.171   3.164  0.00  0.00     0.044 A 
HETATM    6  C   UNK N   1      22.955  19.393   3.427  0.00  0.00     0.115 A 
HETATM    7  C   UNK N   1      22.949  18.562   4.543  0.00  0.00     0.147 A 
HETATM    8  O   UNK N   1      21.875  19.438   2.611  0.00  0.00    -0.327 OA
HETATM    9  N   UNK N   1      24.043  18.491   5.326  0.00  0.00    -0.326 N 
HETATM   10  N   UNK N   1      21.813  17.778   4.851  0.00  0.00    -0.276 N 
HETATM   11  H   UNK N   1      24.017  17.895   6.109  0.00  0.00     0.169 HD
HETATM   12  C   UNK N   1      20.723  17.813   4.039  0.00  0.00     0.262 A 
HETATM   13  C   UNK N   1      20.711  18.690   2.792  0.00  0.00     0.141 A 
HETATM   14  O   UNK N   1      19.745  17.121   4.297  0.00  0.00    -0.269 OA
HETATM   15  C   UNK N   1      20.525  17.798   1.577  0.00  0.00     0.057 C 
HETATM   16  C   UNK N   1      19.540  19.650   2.871  0.00  0.00     0.057 C 
BRANCH  10  17
HETATM   17  C   UNK N   1      21.858  16.904   6.010  0.00  0.00     0.316 C 
BRANCH  17  18
HETATM   18  O   UNK N   1      21.455  17.579   7.164  0.00  0.00    -0.277 OA
BRANCH  18  19
HETATM   19  P   UNK N   1      20.282  16.534   7.922  0.00  0.00     0.392 P 
HETATM   20  O   UNK N   1      19.367  17.432   8.795  0.00  0.00    -0.632 OA
BRANCH  19  21
HETATM   21  O   UNK N   1      19.249  15.718   6.785  0.00  0.00    -0.307 OA
HETATM   22  H   UNK N   1      18.431  15.318   6.454  0.00  0.00     0.222 HD
ENDBRANCH  19  21
BRANCH  19  23
HETATM   23  O   UNK N   1      21.036  15.392   8.990  0.00  0.00    -0.307 OA
HETATM   24  H   UNK N   1      21.575  15.436   9.795  0.00  0.00     0.222 HD
ENDBRANCH  19  23
ENDBRANCH  18  19
ENDBRANCH  17  18
ENDBRANCH  10  17
ENDBRANCH   1   3
BRANCH   1  25
HETATM   25  C   UNK N   1      27.230  18.105   5.489  0.00  0.00     0.163 A 
HETATM   26  C   UNK N   1      27.091  16.734   5.803  0.00  0.00     0.176 A 
HETATM   27  C   UNK N   1      28.132  15.874   5.532  0.00  0.00     0.152 A 
HETATM   28  F   UNK N   1      25.963  16.244   6.378  0.00  0.00    -0.201 F 
HETATM   29  N   UNK N   1      29.260  16.353   4.972  0.00  0.00    -0.199 N 
HETATM   30  C   UNK N   1      29.397  17.670   4.646  0.00  0.00     0.684 A 
ATOM     31  HN  UNK N   1      30.032  15.713   4.785  1.00  0.00     0.183 HD
HETATM   32  N   UNK N   1      30.605  18.108   4.044  0.00  0.00    -0.191 N 
HETATM   33  N   UNK N   1      28.377  18.543   4.893  0.00  0.00    -0.173 N 
HETATM   34  H   UNK N   1      30.633  18.964   3.558  0.00  0.00     0.184 HD
ATOM     35  HN  UNK N   1      28.472  19.524   4.631  1.00  0.00     0.186 HD
BRANCH  32  36
HETATM   36  C   UNK N   1      31.777  17.307   4.144  0.00  0.00     0.054 A 
HETATM   37  C   UNK N   1      32.610  17.425   5.259  0.00  0.00     0.069 A 
HETATM   38  C   UNK N   1      33.707  16.592   5.447  0.00  0.00     0.106 A 
HETATM   39  C   UNK N   1      33.990  15.583   4.485  0.00  0.00     0.135 A 
HETATM   40  C   UNK N   1      33.143  15.462   3.342  0.00  0.00     0.106 A 
HETATM   41  C   UNK N   1      32.050  16.336   3.187  0.00  0.00     0.069 A 
BRANCH  38  42
HETATM   42  O   UNK N   1      34.440  16.792   6.576  0.00  0.00    -0.353 OA
HETATM   43  C   UNK N   1      34.217  17.761   7.526  0.00  0.00     0.210 C 
ENDBRANCH  38  42
BRANCH  39  44
HETATM   44  O   UNK N   1      35.056  14.763   4.694  0.00  0.00    -0.351 OA
HETATM   45  C   UNK N   1      35.047  13.574   5.386  0.00  0.00     0.210 C 
ENDBRANCH  39  44
BRANCH  40  46
HETATM   46  O   UNK N   1      33.374  14.497   2.417  0.00  0.00    -0.353 OA
HETATM   47  C   UNK N   1      32.686  13.305   2.370  0.00  0.00     0.210 C 
ENDBRANCH  40  46
ENDBRANCH  32  36
ENDBRANCH   1  25
TORSDOF 11
ENDMDL
MODEL 4
REMARK VINA RESULT:      -8.0      2.874     10.123
REMARK  11 active torsions:
REMARK  status: ('A' for Active; 'I' for Inactive)
REMARK    1  A    between atoms: N_33  and  C_11 
REMARK    2  A    between atoms: O_41  and  C_11 
REMARK    3  A    between atoms: N_27  and  C_12 
REMARK    4  A    between atoms: O_38  and  C_15 
REMARK    5  A    between atoms: O_39  and  C_16 
REMARK    6  A    between atoms: N_28  and  C_17 
REMARK    7  A    between atoms: O_40  and  C_18 
REMARK    8  A    between atoms: N_28  and  C_19 
REMARK       I    between atoms: N_27  and  C_22 
REMARK    9  A    between atoms: P_43  and  O_35 
REMARK   10  A    between atoms: P_43  and  O_36 
REMARK   11  A    between atoms: P_43  and  O_41 
ROOT
HETATM    1  N   UNK N   1      26.132  19.067   5.840  0.00  0.00    -0.326 N 
ATOM      2  HN  UNK N   1      26.225  19.630   6.684  1.00  0.00     0.169 HD
ENDROOT
BRANCH   1   3
HETATM    3  C   UNK N   1      25.111  19.228   5.063  0.00  0.00     0.108 A 
HETATM    4  C   UNK N   1      25.154  20.106   3.972  0.00  0.00     0.051 A 
HETATM    5  C   UNK N   1      24.035  20.183   3.121  0.00  0.00     0.044 A 
HETATM    6  C   UNK N   1      22.896  19.406   3.385  0.00  0.00     0.115 A 
HETATM    7  C   UNK N   1      22.886  18.583   4.507  0.00  0.00     0.147 A 
HETATM    8  O   UNK N   1      21.820  19.441   2.563  0.00  0.00    -0.327 OA
HETATM    9  N   UNK N   1      23.976  18.521   5.297  0.00  0.00    -0.326 N 
HETATM   10  N   UNK N   1      21.751  17.799   4.816  0.00  0.00    -0.276 N 
HETATM   11  H   UNK N   1      23.948  17.932   6.085  0.00  0.00     0.169 HD
HETATM   12  C   UNK N   1      20.664  17.825   3.998  0.00  0.00     0.262 A 
HETATM   13  C   UNK N   1      20.657  18.692   2.743  0.00  0.00     0.141 A 
HETATM   14  O   UNK N   1      19.687  17.133   4.257  0.00  0.00    -0.269 OA
HETATM   15  C   UNK N   1      20.479  17.790   1.535  0.00  0.00     0.057 C 
HETATM   16  C   UNK N   1      19.484  19.650   2.809  0.00  0.00     0.057 C 
BRANCH  10  17
HETATM   17  C   UNK N   1      21.791  16.935   5.982  0.00  0.00     0.316 C 
BRANCH  17  18
HETATM   18  O   UNK N   1      21.431  17.633   7.137  0.00  0.00    -0.277 OA
BRANCH  18  19
HETATM   19  P   UNK N   1      20.243  16.630   7.928  0.00  0.00     0.392 P 
HETATM   20  O   UNK N   1      21.016  15.542   8.717  0.00  0.00    -0.632 OA
BRANCH  19  21
HETATM   21  O   UNK N   1      19.272  17.494   9.084  0.00  0.00    -0.307 OA
HETATM   22  H   UNK N   1      18.576  18.096   9.390  0.00  0.00     0.222 HD
ENDBRANCH  19  21
BRANCH  19  23
HETATM   23  O   UNK N   1      19.235  15.803   6.782  0.00  0.00    -0.307 OA
HETATM   24  H   UNK N   1      18.336  15.440   6.773  0.00  0.00     0.222 HD
ENDBRANCH  19  23
ENDBRANCH  18  19
ENDBRANCH  17  18
ENDBRANCH  10  17
ENDBRANCH   1   3
BRANCH   1  25
HETATM   25  C   UNK N   1      27.131  18.097   5.512  0.00  0.00     0.163 A 
HETATM   26  C   UNK N   1      26.942  16.745   5.876  0.00  0.00     0.176 A 
HETATM   27  C   UNK N   1      27.956  15.840   5.649  0.00  0.00     0.152 A 
HETATM   28  F   UNK N   1      25.793  16.315   6.456  0.00  0.00    -0.201 F 
HETATM   29  N   UNK N   1      29.105  16.259   5.083  0.00  0.00    -0.199 N 
HETATM   30  C   UNK N   1      29.290  17.558   4.710  0.00  0.00     0.684 A 
ATOM     31  HN  UNK N   1      29.856  15.587   4.929  1.00  0.00     0.183 HD
HETATM   32  N   UNK N   1      30.518  17.932   4.105  0.00  0.00    -0.191 N 
HETATM   33  N   UNK N   1      28.297  18.474   4.913  0.00  0.00    -0.173 N 
HETATM   34  H   UNK N   1      30.579  18.768   3.587  0.00  0.00     0.184 HD
ATOM     35  HN  UNK N   1      28.429  19.440   4.616  1.00  0.00     0.186 HD
BRANCH  32  36
HETATM   36  C   UNK N   1      31.660  17.096   4.247  0.00  0.00     0.054 A 
HETATM   37  C   UNK N   1      31.966  16.157   3.260  0.00  0.00     0.069 A 
HETATM   38  C   UNK N   1      33.125  15.391   3.308  0.00  0.00     0.106 A 
HETATM   39  C   UNK N   1      34.035  15.572   4.386  0.00  0.00     0.135 A 
HETATM   40  C   UNK N   1      33.726  16.528   5.400  0.00  0.00     0.106 A 
HETATM   41  C   UNK N   1      32.532  17.272   5.315  0.00  0.00     0.069 A 
BRANCH  38  42
HETATM   42  O   UNK N   1      33.323  14.516   2.285  0.00  0.00    -0.353 OA
HETATM   43  C   UNK N   1      32.837  13.231   2.213  0.00  0.00     0.210 C 
ENDBRANCH  38  42
BRANCH  39  44
HETATM   44  O   UNK N   1      35.177  14.829   4.408  0.00  0.00    -0.351 OA
HETATM   45  C   UNK N   1      35.344  13.611   5.026  0.00  0.00     0.210 C 
ENDBRANCH  39  44
BRANCH  40  46
HETATM   46  O   UNK N   1      34.583  16.738   6.429  0.00  0.00    -0.353 OA
HETATM   47  C   UNK N   1      34.435  16.168   7.674  0.00  0.00     0.210 C 
ENDBRANCH  40  46
ENDBRANCH  32  36
ENDBRANCH   1  25
TORSDOF 11
ENDMDL
MODEL 5
REMARK VINA RESULT:      -8.0      2.002      9.644
REMARK  11 active torsions:
REMARK  status: ('A' for Active; 'I' for Inactive)
REMARK    1  A    between atoms: N_33  and  C_11 
REMARK    2  A    between atoms: O_41  and  C_11 
REMARK    3  A    between atoms: N_27  and  C_12 
REMARK    4  A    between atoms: O_38  and  C_15 
REMARK    5  A    between atoms: O_39  and  C_16 
REMARK    6  A    between atoms: N_28  and  C_17 
REMARK    7  A    between atoms: O_40  and  C_18 
REMARK    8  A    between atoms: N_28  and  C_19 
REMARK       I    between atoms: N_27  and  C_22 
REMARK    9  A    between atoms: P_43  and  O_35 
REMARK   10  A    between atoms: P_43  and  O_36 
REMARK   11  A    between atoms: P_43  and  O_41 
ROOT
HETATM    1  N   UNK N   1      24.803  15.728   6.566  0.00  0.00    -0.326 N 
ATOM      2  HN  UNK N   1      24.556  15.360   7.484  1.00  0.00     0.169 HD
ENDROOT
BRANCH   1   3
HETATM    3  C   UNK N   1      23.896  16.266   5.818  0.00  0.00     0.108 A 
HETATM    4  C   UNK N   1      22.642  15.667   5.645  0.00  0.00     0.051 A 
HETATM    5  C   UNK N   1      21.672  16.337   4.877  0.00  0.00     0.044 A 
HETATM    6  C   UNK N   1      21.977  17.572   4.282  0.00  0.00     0.115 A 
HETATM    7  C   UNK N   1      23.252  18.104   4.445  0.00  0.00     0.147 A 
HETATM    8  O   UNK N   1      21.049  18.250   3.564  0.00  0.00    -0.327 OA
HETATM    9  N   UNK N   1      24.156  17.444   5.196  0.00  0.00    -0.326 N 
HETATM   10  N   UNK N   1      23.602  19.336   3.847  0.00  0.00    -0.276 N 
HETATM   11  H   UNK N   1      25.052  17.839   5.300  0.00  0.00     0.169 HD
HETATM   12  C   UNK N   1      22.680  20.026   3.124  0.00  0.00     0.262 A 
HETATM   13  C   UNK N   1      21.264  19.486   2.953  0.00  0.00     0.141 A 
HETATM   14  O   UNK N   1      22.978  21.102   2.620  0.00  0.00    -0.269 OA
HETATM   15  C   UNK N   1      20.291  20.487   3.549  0.00  0.00     0.057 C 
HETATM   16  C   UNK N   1      20.963  19.341   1.474  0.00  0.00     0.057 C 
BRANCH  10  17
HETATM   17  C   UNK N   1      24.936  19.867   4.064  0.00  0.00     0.316 C 
BRANCH  17  18
HETATM   18  O   UNK N   1      25.036  20.477   5.316  0.00  0.00    -0.277 OA
BRANCH  18  19
HETATM   19  P   UNK N   1      26.733  20.429   5.716  0.00  0.00     0.392 P 
HETATM   20  O   UNK N   1      27.192  21.894   5.937  0.00  0.00    -0.632 OA
BRANCH  19  21
HETATM   21  O   UNK N   1      27.070  19.570   7.191  0.00  0.00    -0.307 OA
HETATM   22  H   UNK N   1      27.044  19.392   8.143  0.00  0.00     0.222 HD
ENDBRANCH  19  21
BRANCH  19  23
HETATM   23  O   UNK N   1      27.684  19.794   4.409  0.00  0.00    -0.307 OA
HETATM   24  H   UNK N   1      27.696  19.884   3.444  0.00  0.00     0.222 HD
ENDBRANCH  19  23
ENDBRANCH  18  19
ENDBRANCH  17  18
ENDBRANCH  10  17
ENDBRANCH   1   3
BRANCH   1  25
HETATM   25  C   UNK N   1      26.155  15.652   6.105  0.00  0.00     0.163 A 
HETATM   26  C   UNK N   1      26.638  14.449   5.542  0.00  0.00     0.176 A 
HETATM   27  C   UNK N   1      27.968  14.355   5.198  0.00  0.00     0.152 A 
HETATM   28  F   UNK N   1      25.828  13.379   5.342  0.00  0.00    -0.201 F 
HETATM   29  N   UNK N   1      28.783  15.409   5.401  0.00  0.00    -0.199 N 
HETATM   30  C   UNK N   1      28.323  16.580   5.926  0.00  0.00     0.684 A 
ATOM     31  HN  UNK N   1      29.770  15.329   5.156  1.00  0.00     0.183 HD
HETATM   32  N   UNK N   1      29.230  17.659   6.102  0.00  0.00    -0.191 N 
HETATM   33  N   UNK N   1      27.006  16.706   6.265  0.00  0.00    -0.173 N 
HETATM   34  H   UNK N   1      28.890  18.576   6.213  0.00  0.00     0.184 HD
ATOM     35  HN  UNK N   1      26.659  17.589   6.640  1.00  0.00     0.186 HD
BRANCH  32  36
HETATM   36  C   UNK N   1      30.630  17.410   6.118  0.00  0.00     0.054 A 
HETATM   37  C   UNK N   1      31.267  17.079   7.316  0.00  0.00     0.069 A 
HETATM   38  C   UNK N   1      32.612  16.729   7.361  0.00  0.00     0.106 A 
HETATM   39  C   UNK N   1      33.364  16.695   6.154  0.00  0.00     0.135 A 
HETATM   40  C   UNK N   1      32.718  17.036   4.927  0.00  0.00     0.106 A 
HETATM   41  C   UNK N   1      31.357  17.397   4.932  0.00  0.00     0.069 A 
BRANCH  38  42
HETATM   42  O   UNK N   1      33.122  16.415   8.583  0.00  0.00    -0.353 OA
HETATM   43  C   UNK N   1      32.849  15.279   9.307  0.00  0.00     0.210 C 
ENDBRANCH  38  42
BRANCH  39  44
HETATM   44  O   UNK N   1      34.675  16.331   6.212  0.00  0.00    -0.351 OA
HETATM   45  C   UNK N   1      35.171  15.053   6.101  0.00  0.00     0.210 C 
ENDBRANCH  39  44
BRANCH  40  46
HETATM   46  O   UNK N   1      33.403  16.994   3.757  0.00  0.00    -0.353 OA
HETATM   47  C   UNK N   1      33.366  15.925   2.890  0.00  0.00     0.210 C 
ENDBRANCH  40  46
ENDBRANCH  32  36
ENDBRANCH   1  25
TORSDOF 11
ENDMDL
MODEL 6
REMARK VINA RESULT:      -7.9      1.572      1.937
REMARK  11 active torsions:
REMARK  status: ('A' for Active; 'I' for Inactive)
REMARK    1  A    between atoms: N_33  and  C_11 
REMARK    2  A    between atoms: O_41  and  C_11 
REMARK    3  A    between atoms: N_27  and  C_12 
REMARK    4  A    between atoms: O_38  and  C_15 
REMARK    5  A    between atoms: O_39  and  C_16 
REMARK    6  A    between atoms: N_28  and  C_17 
REMARK    7  A    between atoms: O_40  and  C_18 
REMARK    8  A    between atoms: N_28  and  C_19 
REMARK       I    between atoms: N_27  and  C_22 
REMARK    9  A    between atoms: P_43  and  O_35 
REMARK   10  A    between atoms: P_43  and  O_36 
REMARK   11  A    between atoms: P_43  and  O_41 
ROOT
HETATM    1  N   UNK N   1      29.625  16.812   2.715  0.00  0.00    -0.326 N 
ATOM      2  HN  UNK N   1      29.663  17.203   1.775  1.00  0.00     0.169 HD
ENDROOT
BRANCH   1   3
HETATM    3  C   UNK N   1      30.675  16.837   3.470  0.00  0.00     0.108 A 
HETATM    4  C   UNK N   1      31.960  16.964   2.930  0.00  0.00     0.051 A 
HETATM    5  C   UNK N   1      33.057  17.059   3.808  0.00  0.00     0.044 A 
HETATM    6  C   UNK N   1      32.853  17.004   5.196  0.00  0.00     0.115 A 
HETATM    7  C   UNK N   1      31.560  16.831   5.682  0.00  0.00     0.147 A 
HETATM    8  O   UNK N   1      33.889  17.123   6.060  0.00  0.00    -0.327 OA
HETATM    9  N   UNK N   1      30.530  16.756   4.818  0.00  0.00    -0.326 N 
HETATM   10  N   UNK N   1      31.317  16.753   7.072  0.00  0.00    -0.276 N 
HETATM   11  H   UNK N   1      29.623  16.635   5.183  0.00  0.00     0.169 HD
HETATM   12  C   UNK N   1      32.350  16.872   7.950  0.00  0.00     0.262 A 
HETATM   13  C   UNK N   1      33.773  17.094   7.450  0.00  0.00     0.141 A 
HETATM   14  O   UNK N   1      32.136  16.821   9.155  0.00  0.00    -0.269 OA
HETATM   15  C   UNK N   1      34.276  18.417   7.998  0.00  0.00     0.057 C 
HETATM   16  C   UNK N   1      34.662  15.984   7.975  0.00  0.00     0.057 C 
BRANCH  10  17
HETATM   17  C   UNK N   1      29.951  16.598   7.537  0.00  0.00     0.316 C 
BRANCH  17  18
HETATM   18  O   UNK N   1      29.198  17.744   7.276  0.00  0.00    -0.277 OA
BRANCH  18  19
HETATM   19  P   UNK N   1      28.534  18.220   8.817  0.00  0.00     0.392 P 
HETATM   20  O   UNK N   1      27.791  16.987   9.395  0.00  0.00    -0.632 OA
BRANCH  19  21
HETATM   21  O   UNK N   1      29.746  18.667   9.982  0.00  0.00    -0.307 OA
HETATM   22  H   UNK N   1      30.133  19.163  10.720  0.00  0.00     0.222 HD
ENDBRANCH  19  21
BRANCH  19  23
HETATM   23  O   UNK N   1      27.357  19.484   8.646  0.00  0.00    -0.307 OA
HETATM   24  H   UNK N   1      26.539  19.616   8.142  0.00  0.00     0.222 HD
ENDBRANCH  19  23
ENDBRANCH  18  19
ENDBRANCH  17  18
ENDBRANCH  10  17
ENDBRANCH   1   3
BRANCH   1  25
HETATM   25  C   UNK N   1      28.410  16.235   3.202  0.00  0.00     0.163 A 
HETATM   26  C   UNK N   1      28.125  14.876   2.941  0.00  0.00     0.176 A 
HETATM   27  C   UNK N   1      26.906  14.360   3.324  0.00  0.00     0.152 A 
HETATM   28  F   UNK N   1      29.014  14.068   2.311  0.00  0.00    -0.201 F 
HETATM   29  N   UNK N   1      26.012  15.158   3.941  0.00  0.00    -0.199 N 
HETATM   30  C   UNK N   1      26.285  16.465   4.216  0.00  0.00     0.684 A 
ATOM     31  HN  UNK N   1      25.107  14.773   4.211  1.00  0.00     0.183 HD
HETATM   32  N   UNK N   1      25.306  17.248   4.882  0.00  0.00    -0.191 N 
HETATM   33  N   UNK N   1      27.490  17.000   3.858  0.00  0.00    -0.173 N 
HETATM   34  H   UNK N   1      25.565  18.086   5.329  0.00  0.00     0.184 HD
ATOM     35  HN  UNK N   1      27.701  17.973   4.080  1.00  0.00     0.186 HD
BRANCH  32  36
HETATM   36  C   UNK N   1      23.950  16.818   4.901  0.00  0.00     0.054 A 
HETATM   37  C   UNK N   1      23.112  17.101   3.821  0.00  0.00     0.069 A 
HETATM   38  C   UNK N   1      21.812  16.614   3.752  0.00  0.00     0.106 A 
HETATM   39  C   UNK N   1      21.318  15.795   4.804  0.00  0.00     0.135 A 
HETATM   40  C   UNK N   1      22.170  15.505   5.914  0.00  0.00     0.106 A 
HETATM   41  C   UNK N   1      23.476  16.032   5.946  0.00  0.00     0.069 A 
BRANCH  38  42
HETATM   42  O   UNK N   1      21.092  16.946   2.646  0.00  0.00    -0.353 OA
HETATM   43  C   UNK N   1      20.536  18.175   2.380  0.00  0.00     0.210 C 
ENDBRANCH  38  42
BRANCH  39  44
HETATM   44  O   UNK N   1      20.049  15.308   4.713  0.00  0.00    -0.351 OA
HETATM   45  C   UNK N   1      18.909  15.911   5.192  0.00  0.00     0.210 C 
ENDBRANCH  39  44
BRANCH  40  46
HETATM   46  O   UNK N   1      21.735  14.711   6.923  0.00  0.00    -0.353 OA
HETATM   47  C   UNK N   1      21.206  15.192   8.099  0.00  0.00     0.210 C 
ENDBRANCH  40  46
ENDBRANCH  32  36
ENDBRANCH   1  25
TORSDOF 11
ENDMDL
MODEL 7
REMARK VINA RESULT:      -7.9      1.234      2.616
REMARK  11 active torsions:
REMARK  status: ('A' for Active; 'I' for Inactive)
REMARK    1  A    between atoms: N_33  and  C_11 
REMARK    2  A    between atoms: O_41  and  C_11 
REMARK    3  A    between atoms: N_27  and  C_12 
REMARK    4  A    between atoms: O_38  and  C_15 
REMARK    5  A    between atoms: O_39  and  C_16 
REMARK    6  A    between atoms: N_28  and  C_17 
REMARK    7  A    between atoms: O_40  and  C_18 
REMARK    8  A    between atoms: N_28  and  C_19 
REMARK       I    between atoms: N_27  and  C_22 
REMARK    9  A    between atoms: P_43  and  O_35 
REMARK   10  A    between atoms: P_43  and  O_36 
REMARK   11  A    between atoms: P_43  and  O_41 
ROOT
HETATM    1  N   UNK N   1      29.752  16.873   2.642  0.00  0.00    -0.326 N 
ATOM      2  HN  UNK N   1      29.843  17.212   1.686  1.00  0.00     0.169 HD
ENDROOT
BRANCH   1   3
HETATM    3  C   UNK N   1      30.778  16.876   3.430  0.00  0.00     0.108 A 
HETATM    4  C   UNK N   1      32.082  16.990   2.932  0.00  0.00     0.051 A 
HETATM    5  C   UNK N   1      33.151  17.061   3.844  0.00  0.00     0.044 A 
HETATM    6  C   UNK N   1      32.903  16.996   5.225  0.00  0.00     0.115 A 
HETATM    7  C   UNK N   1      31.594  16.837   5.668  0.00  0.00     0.147 A 
HETATM    8  O   UNK N   1      33.914  17.094   6.122  0.00  0.00    -0.327 OA
HETATM    9  N   UNK N   1      30.590  16.784   4.771  0.00  0.00    -0.326 N 
HETATM   10  N   UNK N   1      31.306  16.750   7.050  0.00  0.00    -0.276 N 
HETATM   11  H   UNK N   1      29.671  16.673   5.107  0.00  0.00     0.169 HD
HETATM   12  C   UNK N   1      32.312  16.847   7.960  0.00  0.00     0.262 A 
HETATM   13  C   UNK N   1      33.753  17.053   7.507  0.00  0.00     0.141 A 
HETATM   14  O   UNK N   1      32.060  16.788   9.158  0.00  0.00    -0.269 OA
HETATM   15  C   UNK N   1      34.256  18.365   8.083  0.00  0.00     0.057 C 
HETATM   16  C   UNK N   1      34.610  15.926   8.050  0.00  0.00     0.057 C 
BRANCH  10  17
HETATM   17  C   UNK N   1      29.924  16.610   7.470  0.00  0.00     0.316 C 
BRANCH  17  18
HETATM   18  O   UNK N   1      29.206  17.785   7.237  0.00  0.00    -0.277 OA
BRANCH  18  19
HETATM   19  P   UNK N   1      28.532  18.226   8.784  0.00  0.00     0.392 P 
HETATM   20  O   UNK N   1      27.773  16.985   9.323  0.00  0.00    -0.632 OA
BRANCH  19  21
HETATM   21  O   UNK N   1      29.737  18.631   9.971  0.00  0.00    -0.307 OA
HETATM   22  H   UNK N   1      30.239  19.204  10.572  0.00  0.00     0.222 HD
ENDBRANCH  19  21
BRANCH  19  23
HETATM   23  O   UNK N   1      27.367  19.504   8.636  0.00  0.00    -0.307 OA
HETATM   24  H   UNK N   1      27.144  20.175   7.972  0.00  0.00     0.222 HD
ENDBRANCH  19  23
ENDBRANCH  18  19
ENDBRANCH  17  18
ENDBRANCH  10  17
ENDBRANCH   1   3
BRANCH   1  25
HETATM   25  C   UNK N   1      28.492  16.392   3.116  0.00  0.00     0.163 A 
HETATM   26  C   UNK N   1      27.980  15.168   2.631  0.00  0.00     0.176 A 
HETATM   27  C   UNK N   1      26.718  14.767   3.015  0.00  0.00     0.152 A 
HETATM   28  F   UNK N   1      28.692  14.381   1.785  0.00  0.00    -0.201 F 
HETATM   29  N   UNK N   1      25.999  15.547   3.846  0.00  0.00    -0.199 N 
HETATM   30  C   UNK N   1      26.491  16.720   4.336  0.00  0.00     0.684 A 
ATOM     31  HN  UNK N   1      25.061  15.251   4.116  1.00  0.00     0.183 HD
HETATM   32  N   UNK N   1      25.689  17.488   5.219  0.00  0.00    -0.191 N 
HETATM   33  N   UNK N   1      27.743  17.136   3.981  0.00  0.00    -0.173 N 
HETATM   34  H   UNK N   1      26.102  18.175   5.792  0.00  0.00     0.184 HD
ATOM     35  HN  UNK N   1      28.118  18.004   4.363  1.00  0.00     0.186 HD
BRANCH  32  36
HETATM   36  C   UNK N   1      24.285  17.263   5.276  0.00  0.00     0.054 A 
HETATM   37  C   UNK N   1      23.782  16.163   5.973  0.00  0.00     0.069 A 
HETATM   38  C   UNK N   1      22.416  15.961   6.141  0.00  0.00     0.106 A 
HETATM   39  C   UNK N   1      21.501  16.903   5.596  0.00  0.00     0.135 A 
HETATM   40  C   UNK N   1      22.010  18.027   4.878  0.00  0.00     0.106 A 
HETATM   41  C   UNK N   1      23.402  18.184   4.724  0.00  0.00     0.069 A 
BRANCH  38  42
HETATM   42  O   UNK N   1      22.043  14.860   6.848  0.00  0.00    -0.353 OA
HETATM   43  C   UNK N   1      22.887  13.984   7.489  0.00  0.00     0.210 C 
ENDBRANCH  38  42
BRANCH  39  44
HETATM   44  O   UNK N   1      20.167  16.701   5.785  0.00  0.00    -0.351 OA
HETATM   45  C   UNK N   1      19.317  16.025   4.941  0.00  0.00     0.210 C 
ENDBRANCH  39  44
BRANCH  40  46
HETATM   46  O   UNK N   1      21.163  18.954   4.364  0.00  0.00    -0.353 OA
HETATM   47  C   UNK N   1      20.750  18.965   3.051  0.00  0.00     0.210 C 
ENDBRANCH  40  46
ENDBRANCH  32  36
ENDBRANCH   1  25
TORSDOF 11
ENDMDL
MODEL 8
REMARK VINA RESULT:      -7.8      2.847      4.061
REMARK  11 active torsions:
REMARK  status: ('A' for Active; 'I' for Inactive)
REMARK    1  A    between atoms: N_33  and  C_11 
REMARK    2  A    between atoms: O_41  and  C_11 
REMARK    3  A    between atoms: N_27  and  C_12 
REMARK    4  A    between atoms: O_38  and  C_15 
REMARK    5  A    between atoms: O_39  and  C_16 
REMARK    6  A    between atoms: N_28  and  C_17 
REMARK    7  A    between atoms: O_40  and  C_18 
REMARK    8  A    between atoms: N_28  and  C_19 
REMARK       I    between atoms: N_27  and  C_22 
REMARK    9  A    between atoms: P_43  and  O_35 
REMARK   10  A    between atoms: P_43  and  O_36 
REMARK   11  A    between atoms: P_43  and  O_41 
ROOT
HETATM    1  N   UNK N   1      29.451  16.983   3.114  0.00  0.00    -0.326 N 
ATOM      2  HN  UNK N   1      29.457  17.019   2.095  1.00  0.00     0.169 HD
ENDROOT
BRANCH   1   3
HETATM    3  C   UNK N   1      30.565  16.992   3.770  0.00  0.00     0.108 A 
HETATM    4  C   UNK N   1      31.795  17.140   3.118  0.00  0.00     0.051 A 
HETATM    5  C   UNK N   1      32.968  17.216   3.893  0.00  0.00     0.044 A 
HETATM    6  C   UNK N   1      32.892  17.122   5.292  0.00  0.00     0.115 A 
HETATM    7  C   UNK N   1      31.650  16.929   5.889  0.00  0.00     0.147 A 
HETATM    8  O   UNK N   1      34.004  17.223   6.060  0.00  0.00    -0.327 OA
HETATM    9  N   UNK N   1      30.545  16.872   5.122  0.00  0.00    -0.326 N 
HETATM   10  N   UNK N   1      31.537  16.811   7.294  0.00  0.00    -0.276 N 
HETATM   11  H   UNK N   1      29.676  16.737   5.565  0.00  0.00     0.169 HD
HETATM   12  C   UNK N   1      32.645  16.912   8.076  0.00  0.00     0.262 A 
HETATM   13  C   UNK N   1      34.015  17.154   7.453  0.00  0.00     0.141 A 
HETATM   14  O   UNK N   1      32.543  16.826   9.294  0.00  0.00    -0.269 OA
HETATM   15  C   UNK N   1      34.563  18.465   7.990  0.00  0.00     0.057 C 
HETATM   16  C   UNK N   1      34.952  16.035   7.864  0.00  0.00     0.057 C 
BRANCH  10  17
HETATM   17  C   UNK N   1      30.219  16.636   7.878  0.00  0.00     0.316 C 
BRANCH  17  18
HETATM   18  O   UNK N   1      29.358  17.665   7.492  0.00  0.00    -0.277 OA
BRANCH  18  19
HETATM   19  P   UNK N   1      28.557  18.169   8.958  0.00  0.00     0.392 P 
HETATM   20  O   UNK N   1      27.785  16.938   9.502  0.00  0.00    -0.632 OA
BRANCH  19  21
HETATM   21  O   UNK N   1      29.659  18.663  10.210  0.00  0.00    -0.307 OA
HETATM   22  H   UNK N   1      30.319  18.550  10.911  0.00  0.00     0.222 HD
ENDBRANCH  19  21
BRANCH  19  23
HETATM   23  O   UNK N   1      27.382  19.409   8.654  0.00  0.00    -0.307 OA
HETATM   24  H   UNK N   1      26.725  19.599   7.966  0.00  0.00     0.222 HD
ENDBRANCH  19  23
ENDBRANCH  18  19
ENDBRANCH  17  18
ENDBRANCH  10  17
ENDBRANCH   1   3
BRANCH   1  25
HETATM   25  C   UNK N   1      28.209  16.921   3.820  0.00  0.00     0.163 A 
HETATM   26  C   UNK N   1      27.636  18.105   4.338  0.00  0.00     0.176 A 
HETATM   27  C   UNK N   1      26.495  18.019   5.105  0.00  0.00     0.152 A 
HETATM   28  F   UNK N   1      28.189  19.323   4.112  0.00  0.00    -0.201 F 
HETATM   29  N   UNK N   1      25.945  16.812   5.344  0.00  0.00    -0.199 N 
HETATM   30  C   UNK N   1      26.477  15.667   4.832  0.00  0.00     0.684 A 
ATOM     31  HN  UNK N   1      25.107  16.755   5.923  1.00  0.00     0.183 HD
HETATM   32  N   UNK N   1      25.841  14.428   5.109  0.00  0.00    -0.191 N 
HETATM   33  N   UNK N   1      27.602  15.723   4.059  0.00  0.00    -0.173 N 
HETATM   34  H   UNK N   1      26.028  13.641   4.548  0.00  0.00     0.184 HD
ATOM     35  HN  UNK N   1      27.988  14.867   3.661  1.00  0.00     0.186 HD
BRANCH  32  36
HETATM   36  C   UNK N   1      24.932  14.328   6.199  0.00  0.00     0.054 A 
HETATM   37  C   UNK N   1      23.561  14.478   5.980  0.00  0.00     0.069 A 
HETATM   38  C   UNK N   1      22.630  14.288   6.995  0.00  0.00     0.106 A 
HETATM   39  C   UNK N   1      23.080  13.921   8.293  0.00  0.00     0.135 A 
HETATM   40  C   UNK N   1      24.481  13.770   8.523  0.00  0.00     0.106 A 
HETATM   41  C   UNK N   1      25.388  13.986   7.467  0.00  0.00     0.069 A 
BRANCH  38  42
HETATM   42  O   UNK N   1      21.320  14.450   6.663  0.00  0.00    -0.353 OA
HETATM   43  C   UNK N   1      20.567  13.593   5.894  0.00  0.00     0.210 C 
ENDBRANCH  38  42
BRANCH  39  44
HETATM   44  O   UNK N   1      22.154  13.718   9.272  0.00  0.00    -0.351 OA
HETATM   45  C   UNK N   1      21.347  12.614   9.415  0.00  0.00     0.210 C 
ENDBRANCH  39  44
BRANCH  40  46
HETATM   46  O   UNK N   1      24.940  13.401   9.745  0.00  0.00    -0.353 OA
HETATM   47  C   UNK N   1      24.744  12.151  10.287  0.00  0.00     0.210 C 
ENDBRANCH  40  46
ENDBRANCH  32  36
ENDBRANCH   1  25
TORSDOF 11
ENDMDL
MODEL 9
REMARK VINA RESULT:      -7.8      3.541      5.420
REMARK  11 active torsions:
REMARK  status: ('A' for Active; 'I' for Inactive)
REMARK    1  A    between atoms: N_33  and  C_11 
REMARK    2  A    between atoms: O_41  and  C_11 
REMARK    3  A    between atoms: N_27  and  C_12 
REMARK    4  A    between atoms: O_38  and  C_15 
REMARK    5  A    between atoms: O_39  and  C_16 
REMARK    6  A    between atoms: N_28  and  C_17 
REMARK    7  A    between atoms: O_40  and  C_18 
REMARK    8  A    between atoms: N_28  and  C_19 
REMARK       I    between atoms: N_27  and  C_22 
REMARK    9  A    between atoms: P_43  and  O_35 
REMARK   10  A    between atoms: P_43  and  O_36 
REMARK   11  A    between atoms: P_43  and  O_41 
ROOT
HETATM    1  N   UNK N   1      31.770  17.538   8.855  0.00  0.00    -0.326 N 
ATOM      2  HN  UNK N   1      32.107  17.837   9.769  1.00  0.00     0.169 HD
ENDROOT
BRANCH   1   3
HETATM    3  C   UNK N   1      32.592  17.029   7.996  0.00  0.00     0.108 A 
HETATM    4  C   UNK N   1      32.881  17.676   6.788  0.00  0.00     0.051 A 
HETATM    5  C   UNK N   1      33.839  17.107   5.928  0.00  0.00     0.044 A 
HETATM    6  C   UNK N   1      34.470  15.902   6.277  0.00  0.00     0.115 A 
HETATM    7  C   UNK N   1      34.115  15.275   7.467  0.00  0.00     0.147 A 
HETATM    8  O   UNK N   1      35.418  15.353   5.480  0.00  0.00    -0.327 OA
HETATM    9  N   UNK N   1      33.203  15.849   8.276  0.00  0.00    -0.326 N 
HETATM   10  N   UNK N   1      34.715  14.051   7.844  0.00  0.00    -0.276 N 
HETATM   11  H   UNK N   1      32.968  15.389   9.114  0.00  0.00     0.169 HD
HETATM   12  C   UNK N   1      35.668  13.490   7.052  0.00  0.00     0.262 A 
HETATM   13  C   UNK N   1      36.102  14.169   5.758  0.00  0.00     0.141 A 
HETATM   14  O   UNK N   1      36.200  12.438   7.387  0.00  0.00    -0.269 OA
HETATM   15  C   UNK N   1      37.583  14.487   5.853  0.00  0.00     0.057 C 
HETATM   16  C   UNK N   1      35.885  13.215   4.600  0.00  0.00     0.057 C 
BRANCH  10  17
HETATM   17  C   UNK N   1      34.335  13.443   9.106  0.00  0.00     0.316 C 
BRANCH  17  18
HETATM   18  O   UNK N   1      35.351  13.574  10.054  0.00  0.00    -0.277 OA
BRANCH  18  19
HETATM   19  P   UNK N   1      34.699  14.622  11.286  0.00  0.00     0.392 P 
HETATM   20  O   UNK N   1      34.801  13.861  12.634  0.00  0.00    -0.632 OA
BRANCH  19  21
HETATM   21  O   UNK N   1      35.594  16.102  11.478  0.00  0.00    -0.307 OA
HETATM   22  H   UNK N   1      36.154  16.845  11.207  0.00  0.00     0.222 HD
ENDBRANCH  19  21
BRANCH  19  23
HETATM   23  O   UNK N   1      33.017  14.956  11.021  0.00  0.00    -0.307 OA
HETATM   24  H   UNK N   1      32.392  14.864  10.285  0.00  0.00     0.222 HD
ENDBRANCH  19  23
ENDBRANCH  18  19
ENDBRANCH  17  18
ENDBRANCH  10  17
ENDBRANCH   1   3
BRANCH   1  25
HETATM   25  C   UNK N   1      30.387  17.680   8.520  0.00  0.00     0.163 A 
HETATM   26  C   UNK N   1      29.555  18.504   9.311  0.00  0.00     0.176 A 
HETATM   27  C   UNK N   1      28.204  18.550   9.041  0.00  0.00     0.152 A 
HETATM   28  F   UNK N   1      30.047  19.241  10.338  0.00  0.00    -0.201 F 
HETATM   29  N   UNK N   1      27.704  17.814   8.029  0.00  0.00    -0.199 N 
HETATM   30  C   UNK N   1      28.501  17.032   7.248  0.00  0.00     0.684 A 
ATOM     31  HN  UNK N   1      26.702  17.843   7.843  1.00  0.00     0.183 HD
HETATM   32  N   UNK N   1      27.914  16.291   6.188  0.00  0.00    -0.191 N 
HETATM   33  N   UNK N   1      29.845  16.975   7.485  0.00  0.00    -0.173 N 
HETATM   34  H   UNK N   1      28.475  15.947   5.456  0.00  0.00     0.184 HD
ATOM     35  HN  UNK N   1      30.443  16.405   6.888  1.00  0.00     0.186 HD
BRANCH  32  36
HETATM   36  C   UNK N   1      26.512  16.049   6.187  0.00  0.00     0.054 A 
HETATM   37  C   UNK N   1      25.681  16.763   5.322  0.00  0.00     0.069 A 
HETATM   38  C   UNK N   1      24.322  16.489   5.214  0.00  0.00     0.106 A 
HETATM   39  C   UNK N   1      23.758  15.445   5.999  0.00  0.00     0.135 A 
HETATM   40  C   UNK N   1      24.603  14.715   6.888  0.00  0.00     0.106 A 
HETATM   41  C   UNK N   1      25.972  15.037   6.972  0.00  0.00     0.069 A 
BRANCH  38  42
HETATM   42  O   UNK N   1      23.614  17.241   4.329  0.00  0.00    -0.353 OA
HETATM   43  C   UNK N   1      23.817  18.574   4.054  0.00  0.00     0.210 C 
ENDBRANCH  38  42
BRANCH  39  44
HETATM   44  O   UNK N   1      22.430  15.174   5.868  0.00  0.00    -0.351 OA
HETATM   45  C   UNK N   1      21.410  15.718   6.614  0.00  0.00     0.210 C 
ENDBRANCH  39  44
BRANCH  40  46
HETATM   46  O   UNK N   1      24.100  13.700   7.635  0.00  0.00    -0.353 OA
HETATM   47  C   UNK N   1      24.727  13.188   8.748  0.00  0.00     0.210 C 
ENDBRANCH  40  46
ENDBRANCH  32  36
ENDBRANCH   1  25
TORSDOF 11
ENDMDL
