MODEL 1
REMARK VINA RESULT:      -6.7      0.000      0.000
REMARK  7 active torsions:
REMARK  status: ('A' for Active; 'I' for Inactive)
REMARK    1  A    between atoms: N_2  and  C_3 
REMARK    2  A    between atoms: N_2  and  C_22 
REMARK    3  A    between atoms: C_4  and  C_3 
REMARK    4  A    between atoms: C_9  and  O_20 
REMARK    5  A    between atoms: C_13  and  C_14 
REMARK    6  A    between atoms: C_22  and  C_23 
REMARK    7  A    between atoms: C_23  and  O_25 
ROOT
HETATM    1  C   UNK N   1      26.825  24.114  -5.829  0.00  0.00     0.027 C 
HETATM    2  C   UNK N   1      25.846  24.971  -6.624  0.00  0.00     0.012 C 
HETATM    3  C   UNK N   1      25.146  25.913  -5.661  0.00  0.00     0.040 C 
HETATM    4  C   UNK N   1      26.145  26.815  -5.014  0.00  0.00    -0.049 A 
HETATM    5  C   UNK N   1      25.777  28.134  -4.729  0.00  0.00     0.044 A 
HETATM    6  C   UNK N   1      26.697  29.027  -4.173  0.00  0.00     0.068 A 
HETATM    7  C   UNK N   1      28.000  28.588  -3.900  0.00  0.00     0.037 A 
HETATM    8  C   UNK N   1      28.378  27.277  -4.194  0.00  0.00     0.011 A 
HETATM    9  C   UNK N   1      27.461  26.369  -4.744  0.00  0.00    -0.043 A 
HETATM   10  C   UNK N   1      27.934  24.972  -5.162  0.00  0.00     0.058 C 
ENDROOT
BRANCH   1  11
HETATM   11  C   UNK N   1      27.447  23.054  -6.738  0.00  0.00     0.278 C 
BRANCH  11  12
HETATM   12  N   UNK N   1      26.727  22.926  -8.000  0.00  0.00     0.094 N 
HETATM   13  C   UNK N   1      27.702  22.978  -9.081  0.00  0.00     0.310 C 
BRANCH  12  14
HETATM   14  C   UNK N   1      26.148  21.588  -7.996  0.00  0.00     0.381 C 
BRANCH  14  15
HETATM   15  C   UNK N   1      24.704  21.610  -7.599  0.00  0.00     0.168 C 
HETATM   16  O   UNK N   1      23.922  22.334  -8.196  0.00  0.00    -0.649 OA
BRANCH  15  17
HETATM   17  O   UNK N   1      24.270  20.866  -6.565  0.00  0.00    -0.775 OA
HETATM   18  H   UNK N   1      23.555  21.145  -6.026  0.00  0.00     0.167 HD
ENDBRANCH  15  17
ENDBRANCH  14  15
ENDBRANCH  12  14
ENDBRANCH  11  12
ENDBRANCH   1  11
BRANCH  10  19
HETATM   19  C   UNK N   1      28.722  24.198  -4.103  0.00  0.00    -0.049 A 
HETATM   20  C   UNK N   1      28.070  23.697  -2.964  0.00  0.00     0.008 A 
HETATM   21  C   UNK N   1      28.785  23.043  -1.957  0.00  0.00     0.001 A 
HETATM   22  C   UNK N   1      30.171  22.907  -2.060  0.00  0.00     0.000 A 
HETATM   23  C   UNK N   1      30.839  23.412  -3.177  0.00  0.00     0.001 A 
HETATM   24  C   UNK N   1      30.120  24.048  -4.195  0.00  0.00     0.008 A 
ENDBRANCH  10  19
BRANCH   6  25
HETATM   25  O   UNK N   1      26.311  30.303  -3.925  0.00  0.00    -0.356 OA
HETATM   26  C   UNK N   1      26.830  31.062  -2.901  0.00  0.00     0.210 C 
ENDBRANCH   6  25
TORSDOF 7
ENDMDL
MODEL 2
REMARK VINA RESULT:      -6.7     12.049     15.488
REMARK  7 active torsions:
REMARK  status: ('A' for Active; 'I' for Inactive)
REMARK    1  A    between atoms: N_2  and  C_3 
REMARK    2  A    between atoms: N_2  and  C_22 
REMARK    3  A    between atoms: C_4  and  C_3 
REMARK    4  A    between atoms: C_9  and  O_20 
REMARK    5  A    between atoms: C_13  and  C_14 
REMARK    6  A    between atoms: C_22  and  C_23 
REMARK    7  A    between atoms: C_23  and  O_25 
ROOT
HETATM    1  C   UNK N   1      31.178  16.822   7.892  0.00  0.00     0.027 C 
HETATM    2  C   UNK N   1      30.192  17.337   8.934  0.00  0.00     0.012 C 
HETATM    3  C   UNK N   1      29.645  18.669   8.456  0.00  0.00     0.040 C 
HETATM    4  C   UNK N   1      28.914  18.486   7.166  0.00  0.00    -0.049 A 
HETATM    5  C   UNK N   1      27.776  19.262   6.920  0.00  0.00     0.044 A 
HETATM    6  C   UNK N   1      27.031  19.085   5.750  0.00  0.00     0.068 A 
HETATM    7  C   UNK N   1      27.437  18.119   4.818  0.00  0.00     0.037 A 
HETATM    8  C   UNK N   1      28.564  17.333   5.063  0.00  0.00     0.011 A 
HETATM    9  C   UNK N   1      29.324  17.506   6.230  0.00  0.00    -0.043 A 
HETATM   10  C   UNK N   1      30.487  16.554   6.526  0.00  0.00     0.058 C 
ENDROOT
BRANCH   1  11
HETATM   11  C   UNK N   1      31.860  15.552   8.401  0.00  0.00     0.278 C 
BRANCH  11  12
HETATM   12  N   UNK N   1      33.117  15.843   9.082  0.00  0.00     0.094 N 
HETATM   13  C   UNK N   1      33.587  14.612   9.703  0.00  0.00     0.310 C 
BRANCH  12  14
HETATM   14  C   UNK N   1      34.067  16.196   8.034  0.00  0.00     0.381 C 
BRANCH  14  15
HETATM   15  C   UNK N   1      34.625  17.572   8.234  0.00  0.00     0.168 C 
HETATM   16  O   UNK N   1      34.644  18.360   7.301  0.00  0.00    -0.649 OA
BRANCH  15  17
HETATM   17  O   UNK N   1      35.139  17.933   9.424  0.00  0.00    -0.775 OA
HETATM   18  H   UNK N   1      35.300  18.832   9.637  0.00  0.00     0.167 HD
ENDBRANCH  15  17
ENDBRANCH  14  15
ENDBRANCH  12  14
ENDBRANCH  11  12
ENDBRANCH   1  11
BRANCH  10  19
HETATM   19  C   UNK N   1      31.489  16.360   5.387  0.00  0.00    -0.049 A 
HETATM   20  C   UNK N   1      32.229  17.452   4.905  0.00  0.00     0.008 A 
HETATM   21  C   UNK N   1      33.102  17.305   3.822  0.00  0.00     0.001 A 
HETATM   22  C   UNK N   1      33.223  16.069   3.185  0.00  0.00     0.000 A 
HETATM   23  C   UNK N   1      32.484  14.976   3.640  0.00  0.00     0.001 A 
HETATM   24  C   UNK N   1      31.627  15.117   4.736  0.00  0.00     0.008 A 
ENDBRANCH  10  19
BRANCH   6  25
HETATM   25  O   UNK N   1      25.925  19.842   5.552  0.00  0.00    -0.356 OA
HETATM   26  C   UNK N   1      25.313  19.976   4.326  0.00  0.00     0.210 C 
ENDBRANCH   6  25
TORSDOF 7
ENDMDL
MODEL 3
REMARK VINA RESULT:      -6.5      3.256      6.283
REMARK  7 active torsions:
REMARK  status: ('A' for Active; 'I' for Inactive)
REMARK    1  A    between atoms: N_2  and  C_3 
REMARK    2  A    between atoms: N_2  and  C_22 
REMARK    3  A    between atoms: C_4  and  C_3 
REMARK    4  A    between atoms: C_9  and  O_20 
REMARK    5  A    between atoms: C_13  and  C_14 
REMARK    6  A    between atoms: C_22  and  C_23 
REMARK    7  A    between atoms: C_23  and  O_25 
ROOT
HETATM    1  C   UNK N   1      27.674  24.481  -5.605  0.00  0.00     0.027 C 
HETATM    2  C   UNK N   1      27.770  23.207  -6.436  0.00  0.00     0.012 C 
HETATM    3  C   UNK N   1      26.430  22.975  -7.110  0.00  0.00     0.040 C 
HETATM    4  C   UNK N   1      26.116  24.113  -8.025  0.00  0.00    -0.049 A 
HETATM    5  C   UNK N   1      25.439  23.849  -9.220  0.00  0.00     0.044 A 
HETATM    6  C   UNK N   1      25.172  24.875 -10.131  0.00  0.00     0.068 A 
HETATM    7  C   UNK N   1      25.590  26.181  -9.834  0.00  0.00     0.037 A 
HETATM    8  C   UNK N   1      26.278  26.449  -8.650  0.00  0.00     0.011 A 
HETATM    9  C   UNK N   1      26.544  25.429  -7.725  0.00  0.00    -0.043 A 
HETATM   10  C   UNK N   1      27.399  25.729  -6.489  0.00  0.00     0.058 C 
ENDROOT
BRANCH   1  11
HETATM   11  C   UNK N   1      28.957  24.675  -4.796  0.00  0.00     0.278 C 
BRANCH  11  12
HETATM   12  N   UNK N   1      28.808  24.220  -3.418  0.00  0.00     0.094 N 
HETATM   13  C   UNK N   1      27.386  24.058  -3.151  0.00  0.00     0.310 C 
BRANCH  12  14
HETATM   14  C   UNK N   1      29.417  22.896  -3.366  0.00  0.00     0.381 C 
BRANCH  14  15
HETATM   15  C   UNK N   1      30.386  22.778  -2.229  0.00  0.00     0.168 C 
HETATM   16  O   UNK N   1      30.040  23.097  -1.102  0.00  0.00    -0.649 OA
BRANCH  15  17
HETATM   17  O   UNK N   1      31.645  22.356  -2.448  0.00  0.00    -0.775 OA
HETATM   18  H   UNK N   1      31.884  21.916  -3.240  0.00  0.00     0.167 HD
ENDBRANCH  15  17
ENDBRANCH  14  15
ENDBRANCH  12  14
ENDBRANCH  11  12
ENDBRANCH   1  11
BRANCH  10  19
HETATM   19  C   UNK N   1      26.972  26.949  -5.670  0.00  0.00    -0.049 A 
HETATM   20  C   UNK N   1      27.726  28.133  -5.722  0.00  0.00     0.008 A 
HETATM   21  C   UNK N   1      27.386  29.235  -4.932  0.00  0.00     0.001 A 
HETATM   22  C   UNK N   1      26.303  29.158  -4.054  0.00  0.00     0.000 A 
HETATM   23  C   UNK N   1      25.551  27.985  -3.978  0.00  0.00     0.001 A 
HETATM   24  C   UNK N   1      25.878  26.889  -4.784  0.00  0.00     0.008 A 
ENDBRANCH  10  19
BRANCH   6  25
HETATM   25  O   UNK N   1      24.528  24.581 -11.286  0.00  0.00    -0.356 OA
HETATM   26  C   UNK N   1      24.600  25.371 -12.412  0.00  0.00     0.210 C 
ENDBRANCH   6  25
TORSDOF 7
ENDMDL
MODEL 4
REMARK VINA RESULT:      -6.5     11.576     14.777
REMARK  7 active torsions:
REMARK  status: ('A' for Active; 'I' for Inactive)
REMARK    1  A    between atoms: N_2  and  C_3 
REMARK    2  A    between atoms: N_2  and  C_22 
REMARK    3  A    between atoms: C_4  and  C_3 
REMARK    4  A    between atoms: C_9  and  O_20 
REMARK    5  A    between atoms: C_13  and  C_14 
REMARK    6  A    between atoms: C_22  and  C_23 
REMARK    7  A    between atoms: C_23  and  O_25 
ROOT
HETATM    1  C   UNK N   1      28.271  17.399   6.550  0.00  0.00     0.027 C 
HETATM    2  C   UNK N   1      28.594  18.343   7.702  0.00  0.00     0.012 C 
HETATM    3  C   UNK N   1      29.675  17.704   8.553  0.00  0.00     0.040 C 
HETATM    4  C   UNK N   1      30.914  17.508   7.742  0.00  0.00    -0.049 A 
HETATM    5  C   UNK N   1      32.158  17.664   8.364  0.00  0.00     0.044 A 
HETATM    6  C   UNK N   1      33.342  17.544   7.630  0.00  0.00     0.068 A 
HETATM    7  C   UNK N   1      33.272  17.262   6.258  0.00  0.00     0.037 A 
HETATM    8  C   UNK N   1      32.035  17.119   5.629  0.00  0.00     0.011 A 
HETATM    9  C   UNK N   1      30.840  17.229   6.356  0.00  0.00    -0.043 A 
HETATM   10  C   UNK N   1      29.497  17.181   5.620  0.00  0.00     0.058 C 
ENDROOT
BRANCH   1  11
HETATM   11  C   UNK N   1      27.087  17.940   5.748  0.00  0.00     0.278 C 
BRANCH  11  12
HETATM   12  N   UNK N   1      27.303  19.317   5.317  0.00  0.00     0.094 N 
HETATM   13  C   UNK N   1      27.335  19.332   3.861  0.00  0.00     0.310 C 
BRANCH  12  14
HETATM   14  C   UNK N   1      26.119  20.058   5.737  0.00  0.00     0.381 C 
BRANCH  14  15
HETATM   15  C   UNK N   1      26.453  21.105   6.755  0.00  0.00     0.168 C 
HETATM   16  O   UNK N   1      27.208  22.018   6.460  0.00  0.00    -0.649 OA
BRANCH  15  17
HETATM   17  O   UNK N   1      25.955  21.025   8.003  0.00  0.00    -0.775 OA
HETATM   18  H   UNK N   1      26.429  20.606   8.694  0.00  0.00     0.167 HD
ENDBRANCH  15  17
ENDBRANCH  14  15
ENDBRANCH  12  14
ENDBRANCH  11  12
ENDBRANCH   1  11
BRANCH  10  19
HETATM   19  C   UNK N   1      29.310  16.001   4.665  0.00  0.00    -0.049 A 
HETATM   20  C   UNK N   1      29.287  14.687   5.162  0.00  0.00     0.008 A 
HETATM   21  C   UNK N   1      29.181  13.594   4.296  0.00  0.00     0.001 A 
HETATM   22  C   UNK N   1      29.127  13.799   2.916  0.00  0.00     0.000 A 
HETATM   23  C   UNK N   1      29.163  15.096   2.403  0.00  0.00     0.001 A 
HETATM   24  C   UNK N   1      29.248  16.190   3.270  0.00  0.00     0.008 A 
ENDBRANCH  10  19
BRANCH   6  25
HETATM   25  O   UNK N   1      34.529  17.717   8.261  0.00  0.00    -0.356 OA
HETATM   26  C   UNK N   1      34.844  17.108   9.455  0.00  0.00     0.210 C 
ENDBRANCH   6  25
TORSDOF 7
ENDMDL
MODEL 5
REMARK VINA RESULT:      -6.5     22.069     26.065
REMARK  7 active torsions:
REMARK  status: ('A' for Active; 'I' for Inactive)
REMARK    1  A    between atoms: N_2  and  C_3 
REMARK    2  A    between atoms: N_2  and  C_22 
REMARK    3  A    between atoms: C_4  and  C_3 
REMARK    4  A    between atoms: C_9  and  O_20 
REMARK    5  A    between atoms: C_13  and  C_14 
REMARK    6  A    between atoms: C_22  and  C_23 
REMARK    7  A    between atoms: C_23  and  O_25 
ROOT
HETATM    1  C   UNK N   1      36.292  12.438  13.690  0.00  0.00     0.027 C 
HETATM    2  C   UNK N   1      36.483  11.136  12.919  0.00  0.00     0.012 C 
HETATM    3  C   UNK N   1      37.662  10.395  13.523  0.00  0.00     0.040 C 
HETATM    4  C   UNK N   1      37.377  10.060  14.950  0.00  0.00    -0.049 A 
HETATM    5  C   UNK N   1      37.857   8.853  15.468  0.00  0.00     0.044 A 
HETATM    6  C   UNK N   1      37.569   8.475  16.783  0.00  0.00     0.068 A 
HETATM    7  C   UNK N   1      36.790   9.323  17.584  0.00  0.00     0.037 A 
HETATM    8  C   UNK N   1      36.296  10.522  17.070  0.00  0.00     0.011 A 
HETATM    9  C   UNK N   1      36.586  10.916  15.755  0.00  0.00    -0.043 A 
HETATM   10  C   UNK N   1      35.938  12.180  15.180  0.00  0.00     0.058 C 
ENDROOT
BRANCH   1  11
HETATM   11  C   UNK N   1      35.205  13.282  13.024  0.00  0.00     0.278 C 
BRANCH  11  12
HETATM   12  N   UNK N   1      35.641  13.820  11.740  0.00  0.00     0.094 N 
HETATM   13  C   UNK N   1      34.965  13.072  10.688  0.00  0.00     0.310 C 
BRANCH  12  14
HETATM   14  C   UNK N   1      35.146  15.190  11.691  0.00  0.00     0.381 C 
BRANCH  14  15
HETATM   15  C   UNK N   1      36.063  16.082  10.911  0.00  0.00     0.168 C 
HETATM   16  O   UNK N   1      35.680  17.188  10.562  0.00  0.00    -0.649 OA
BRANCH  15  17
HETATM   17  O   UNK N   1      37.292  15.659  10.563  0.00  0.00    -0.775 OA
HETATM   18  H   UNK N   1      38.065  16.078  10.886  0.00  0.00     0.167 HD
ENDBRANCH  15  17
ENDBRANCH  14  15
ENDBRANCH  12  14
ENDBRANCH  11  12
ENDBRANCH   1  11
BRANCH  10  19
HETATM   19  C   UNK N   1      36.067  13.438  16.042  0.00  0.00    -0.049 A 
HETATM   20  C   UNK N   1      37.013  14.423  15.716  0.00  0.00     0.008 A 
HETATM   21  C   UNK N   1      37.187  15.548  16.529  0.00  0.00     0.001 A 
HETATM   22  C   UNK N   1      36.437  15.687  17.698  0.00  0.00     0.000 A 
HETATM   23  C   UNK N   1      35.503  14.711  18.047  0.00  0.00     0.001 A 
HETATM   24  C   UNK N   1      35.314  13.596  17.223  0.00  0.00     0.008 A 
ENDBRANCH  10  19
BRANCH   6  25
HETATM   25  O   UNK N   1      38.037   7.291  17.247  0.00  0.00    -0.356 OA
HETATM   26  C   UNK N   1      38.624   7.145  18.483  0.00  0.00     0.210 C 
ENDBRANCH   6  25
TORSDOF 7
ENDMDL
MODEL 6
REMARK VINA RESULT:      -6.4      2.738      5.476
REMARK  7 active torsions:
REMARK  status: ('A' for Active; 'I' for Inactive)
REMARK    1  A    between atoms: N_2  and  C_3 
REMARK    2  A    between atoms: N_2  and  C_22 
REMARK    3  A    between atoms: C_4  and  C_3 
REMARK    4  A    between atoms: C_9  and  O_20 
REMARK    5  A    between atoms: C_13  and  C_14 
REMARK    6  A    between atoms: C_22  and  C_23 
REMARK    7  A    between atoms: C_23  and  O_25 
ROOT
HETATM    1  C   UNK N   1      27.767  23.465  -6.478  0.00  0.00     0.027 C 
HETATM    2  C   UNK N   1      28.442  22.129  -6.766  0.00  0.00     0.012 C 
HETATM    3  C   UNK N   1      29.909  22.246  -6.394  0.00  0.00     0.040 C 
HETATM    4  C   UNK N   1      30.044  22.538  -4.936  0.00  0.00    -0.049 A 
HETATM    5  C   UNK N   1      31.120  21.984  -4.234  0.00  0.00     0.044 A 
HETATM    6  C   UNK N   1      31.255  22.187  -2.858  0.00  0.00     0.068 A 
HETATM    7  C   UNK N   1      30.297  22.956  -2.181  0.00  0.00     0.037 A 
HETATM    8  C   UNK N   1      29.214  23.500  -2.872  0.00  0.00     0.011 A 
HETATM    9  C   UNK N   1      29.072  23.310  -4.255  0.00  0.00    -0.043 A 
HETATM   10  C   UNK N   1      27.815  23.822  -4.967  0.00  0.00     0.058 C 
ENDROOT
BRANCH   1  11
HETATM   11  C   UNK N   1      26.320  23.435  -6.971  0.00  0.00     0.278 C 
BRANCH  11  12
HETATM   12  N   UNK N   1      25.991  22.171  -7.621  0.00  0.00     0.094 N 
HETATM   13  C   UNK N   1      24.783  21.647  -6.999  0.00  0.00     0.310 C 
BRANCH  12  14
HETATM   14  C   UNK N   1      25.663  22.505  -9.002  0.00  0.00     0.381 C 
BRANCH  14  15
HETATM   15  C   UNK N   1      26.061  21.411  -9.946  0.00  0.00     0.168 C 
HETATM   16  O   UNK N   1      27.226  21.049  -9.997  0.00  0.00    -0.649 OA
BRANCH  15  17
HETATM   17  O   UNK N   1      25.150  20.851 -10.762  0.00  0.00    -0.775 OA
HETATM   18  H   UNK N   1      24.360  20.472 -10.429  0.00  0.00     0.167 HD
ENDBRANCH  15  17
ENDBRANCH  14  15
ENDBRANCH  12  14
ENDBRANCH  11  12
ENDBRANCH   1  11
BRANCH  10  19
HETATM   19  C   UNK N   1      27.451  25.283  -4.695  0.00  0.00    -0.049 A 
HETATM   20  C   UNK N   1      28.226  26.318  -5.245  0.00  0.00     0.008 A 
HETATM   21  C   UNK N   1      27.946  27.656  -4.954  0.00  0.00     0.001 A 
HETATM   22  C   UNK N   1      26.903  27.979  -4.084  0.00  0.00     0.000 A 
HETATM   23  C   UNK N   1      26.132  26.964  -3.516  0.00  0.00     0.001 A 
HETATM   24  C   UNK N   1      26.399  25.626  -3.823  0.00  0.00     0.008 A 
ENDBRANCH  10  19
BRANCH   6  25
HETATM   25  O   UNK N   1      32.301  21.622  -2.207  0.00  0.00    -0.356 OA
HETATM   26  C   UNK N   1      33.348  21.006  -2.855  0.00  0.00     0.210 C 
ENDBRANCH   6  25
TORSDOF 7
ENDMDL
MODEL 7
REMARK VINA RESULT:      -6.3     10.549     13.369
REMARK  7 active torsions:
REMARK  status: ('A' for Active; 'I' for Inactive)
REMARK    1  A    between atoms: N_2  and  C_3 
REMARK    2  A    between atoms: N_2  and  C_22 
REMARK    3  A    between atoms: C_4  and  C_3 
REMARK    4  A    between atoms: C_9  and  O_20 
REMARK    5  A    between atoms: C_13  and  C_14 
REMARK    6  A    between atoms: C_22  and  C_23 
REMARK    7  A    between atoms: C_23  and  O_25 
ROOT
HETATM    1  C   UNK N   1      27.647  18.627   4.208  0.00  0.00     0.027 C 
HETATM    2  C   UNK N   1      27.314  20.110   4.321  0.00  0.00     0.012 C 
HETATM    3  C   UNK N   1      26.274  20.447   3.268  0.00  0.00     0.040 C 
HETATM    4  C   UNK N   1      25.026  19.662   3.514  0.00  0.00    -0.049 A 
HETATM    5  C   UNK N   1      23.791  20.258   3.240  0.00  0.00     0.044 A 
HETATM    6  C   UNK N   1      22.597  19.581   3.507  0.00  0.00     0.068 A 
HETATM    7  C   UNK N   1      22.649  18.290   4.053  0.00  0.00     0.037 A 
HETATM    8  C   UNK N   1      23.878  17.695   4.342  0.00  0.00     0.011 A 
HETATM    9  C   UNK N   1      25.082  18.362   4.071  0.00  0.00    -0.043 A 
HETATM   10  C   UNK N   1      26.411  17.733   4.502  0.00  0.00     0.058 C 
ENDROOT
BRANCH   1  11
HETATM   11  C   UNK N   1      28.795  18.277   5.155  0.00  0.00     0.278 C 
BRANCH  11  12
HETATM   12  N   UNK N   1      28.312  17.864   6.468  0.00  0.00     0.094 N 
HETATM   13  C   UNK N   1      29.134  16.749   6.919  0.00  0.00     0.310 C 
BRANCH  12  14
HETATM   14  C   UNK N   1      28.569  18.987   7.361  0.00  0.00     0.381 C 
BRANCH  14  15
HETATM   15  C   UNK N   1      28.488  18.580   8.801  0.00  0.00     0.168 C 
HETATM   16  O   UNK N   1      29.472  18.687   9.516  0.00  0.00    -0.649 OA
BRANCH  15  17
HETATM   17  O   UNK N   1      27.350  18.064   9.300  0.00  0.00    -0.775 OA
HETATM   18  H   UNK N   1      27.294  17.167   9.568  0.00  0.00     0.167 HD
ENDBRANCH  15  17
ENDBRANCH  14  15
ENDBRANCH  12  14
ENDBRANCH  11  12
ENDBRANCH   1  11
BRANCH  10  19
HETATM   19  C   UNK N   1      26.622  16.278   4.078  0.00  0.00    -0.049 A 
HETATM   20  C   UNK N   1      26.450  15.240   5.008  0.00  0.00     0.008 A 
HETATM   21  C   UNK N   1      26.701  13.911   4.654  0.00  0.00     0.001 A 
HETATM   22  C   UNK N   1      27.157  13.603   3.371  0.00  0.00     0.000 A 
HETATM   23  C   UNK N   1      27.349  14.623   2.438  0.00  0.00     0.001 A 
HETATM   24  C   UNK N   1      27.078  15.951   2.785  0.00  0.00     0.008 A 
ENDBRANCH  10  19
BRANCH   6  25
HETATM   25  O   UNK N   1      21.418  20.194   3.244  0.00  0.00    -0.356 OA
HETATM   26  C   UNK N   1      21.113  20.749   2.022  0.00  0.00     0.210 C 
ENDBRANCH   6  25
TORSDOF 7
ENDMDL
MODEL 8
REMARK VINA RESULT:      -6.2     21.751     25.597
REMARK  7 active torsions:
REMARK  status: ('A' for Active; 'I' for Inactive)
REMARK    1  A    between atoms: N_2  and  C_3 
REMARK    2  A    between atoms: N_2  and  C_22 
REMARK    3  A    between atoms: C_4  and  C_3 
REMARK    4  A    between atoms: C_9  and  O_20 
REMARK    5  A    between atoms: C_13  and  C_14 
REMARK    6  A    between atoms: C_22  and  C_23 
REMARK    7  A    between atoms: C_23  and  O_25 
ROOT
HETATM    1  C   UNK N   1      36.254  12.440  13.804  0.00  0.00     0.027 C 
HETATM    2  C   UNK N   1      36.714  13.358  14.930  0.00  0.00     0.012 C 
HETATM    3  C   UNK N   1      35.649  13.354  16.012  0.00  0.00     0.040 C 
HETATM    4  C   UNK N   1      35.488  11.976  16.563  0.00  0.00    -0.049 A 
HETATM    5  C   UNK N   1      35.205  11.823  17.925  0.00  0.00     0.044 A 
HETATM    6  C   UNK N   1      35.099  10.551  18.494  0.00  0.00     0.068 A 
HETATM    7  C   UNK N   1      35.278   9.421  17.683  0.00  0.00     0.037 A 
HETATM    8  C   UNK N   1      35.573   9.565  16.327  0.00  0.00     0.011 A 
HETATM    9  C   UNK N   1      35.674  10.837  15.743  0.00  0.00    -0.043 A 
HETATM   10  C   UNK N   1      36.110  10.968  14.280  0.00  0.00     0.058 C 
ENDROOT
BRANCH   1  11
HETATM   11  C   UNK N   1      37.231  12.526  12.630  0.00  0.00     0.278 C 
BRANCH  11  12
HETATM   12  N   UNK N   1      36.930  13.650  11.751  0.00  0.00     0.094 N 
HETATM   13  C   UNK N   1      37.702  13.482  10.527  0.00  0.00     0.310 C 
BRANCH  12  14
HETATM   14  C   UNK N   1      35.521  13.520  11.402  0.00  0.00     0.381 C 
BRANCH  14  15
HETATM   15  C   UNK N   1      34.815  14.840  11.447  0.00  0.00     0.168 C 
HETATM   16  O   UNK N   1      35.446  15.856  11.693  0.00  0.00    -0.649 OA
BRANCH  15  17
HETATM   17  O   UNK N   1      33.485  14.909  11.255  0.00  0.00    -0.775 OA
HETATM   18  H   UNK N   1      33.044  14.331  10.663  0.00  0.00     0.167 HD
ENDBRANCH  15  17
ENDBRANCH  14  15
ENDBRANCH  12  14
ENDBRANCH  11  12
ENDBRANCH   1  11
BRANCH  10  19
HETATM   19  C   UNK N   1      35.344  10.098  13.282  0.00  0.00    -0.049 A 
HETATM   20  C   UNK N   1      35.933   8.932  12.764  0.00  0.00     0.008 A 
HETATM   21  C   UNK N   1      35.273   8.161  11.803  0.00  0.00     0.001 A 
HETATM   22  C   UNK N   1      34.025   8.561  11.322  0.00  0.00     0.000 A 
HETATM   23  C   UNK N   1      33.431   9.725  11.813  0.00  0.00     0.001 A 
HETATM   24  C   UNK N   1      34.082  10.486  12.790  0.00  0.00     0.008 A 
ENDBRANCH  10  19
BRANCH   6  25
HETATM   25  O   UNK N   1      34.841  10.440  19.820  0.00  0.00    -0.356 OA
HETATM   26  C   UNK N   1      33.993   9.492  20.346  0.00  0.00     0.210 C 
ENDBRANCH   6  25
TORSDOF 7
ENDMDL
MODEL 9
REMARK VINA RESULT:      -6.2     11.305     14.164
REMARK  7 active torsions:
REMARK  status: ('A' for Active; 'I' for Inactive)
REMARK    1  A    between atoms: N_2  and  C_3 
REMARK    2  A    between atoms: N_2  and  C_22 
REMARK    3  A    between atoms: C_4  and  C_3 
REMARK    4  A    between atoms: C_9  and  O_20 
REMARK    5  A    between atoms: C_13  and  C_14 
REMARK    6  A    between atoms: C_22  and  C_23 
REMARK    7  A    between atoms: C_23  and  O_25 
ROOT
HETATM    1  C   UNK N   1      29.424  17.014   5.106  0.00  0.00     0.027 C 
HETATM    2  C   UNK N   1      29.086  17.023   3.620  0.00  0.00     0.012 C 
HETATM    3  C   UNK N   1      27.576  16.995   3.475  0.00  0.00     0.040 C 
HETATM    4  C   UNK N   1      26.980  18.212   4.102  0.00  0.00    -0.049 A 
HETATM    5  C   UNK N   1      25.851  18.791   3.512  0.00  0.00     0.044 A 
HETATM    6  C   UNK N   1      25.294  19.962   4.034  0.00  0.00     0.068 A 
HETATM    7  C   UNK N   1      25.879  20.555   5.162  0.00  0.00     0.037 A 
HETATM    8  C   UNK N   1      27.013  19.991   5.748  0.00  0.00     0.011 A 
HETATM    9  C   UNK N   1      27.576  18.812   5.238  0.00  0.00    -0.043 A 
HETATM   10  C   UNK N   1      28.885  18.278   5.829  0.00  0.00     0.058 C 
ENDROOT
BRANCH   1  11
HETATM   11  C   UNK N   1      30.937  16.898   5.295  0.00  0.00     0.278 C 
BRANCH  11  12
HETATM   12  N   UNK N   1      31.286  15.911   6.312  0.00  0.00     0.094 N 
HETATM   13  C   UNK N   1      30.779  14.618   5.876  0.00  0.00     0.310 C 
BRANCH  12  14
HETATM   14  C   UNK N   1      32.742  15.834   6.312  0.00  0.00     0.381 C 
BRANCH  14  15
HETATM   15  C   UNK N   1      33.358  17.013   7.001  0.00  0.00     0.168 C 
HETATM   16  O   UNK N   1      33.053  17.268   8.156  0.00  0.00    -0.649 OA
BRANCH  15  17
HETATM   17  O   UNK N   1      34.218  17.813   6.345  0.00  0.00    -0.775 OA
HETATM   18  H   UNK N   1      34.611  17.552   5.535  0.00  0.00     0.167 HD
ENDBRANCH  15  17
ENDBRANCH  14  15
ENDBRANCH  12  14
ENDBRANCH  11  12
ENDBRANCH   1  11
BRANCH  10  19
HETATM   19  C   UNK N   1      28.914  18.143   7.353  0.00  0.00    -0.049 A 
HETATM   20  C   UNK N   1      29.884  18.828   8.104  0.00  0.00     0.008 A 
HETATM   21  C   UNK N   1      29.965  18.666   9.490  0.00  0.00     0.001 A 
HETATM   22  C   UNK N   1      29.096  17.790  10.143  0.00  0.00     0.000 A 
HETATM   23  C   UNK N   1      28.136  17.088   9.412  0.00  0.00     0.001 A 
HETATM   24  C   UNK N   1      28.041  17.267   8.028  0.00  0.00     0.008 A 
ENDBRANCH  10  19
BRANCH   6  25
HETATM   25  O   UNK N   1      24.210  20.504   3.427  0.00  0.00    -0.356 OA
HETATM   26  C   UNK N   1      23.030  19.820   3.241  0.00  0.00     0.210 C 
ENDBRANCH   6  25
TORSDOF 7
ENDMDL
