MODEL 1
REMARK VINA RESULT:      -5.8      0.000      0.000
REMARK  8 active torsions:
REMARK  status: ('A' for Active; 'I' for Inactive)
REMARK    1  A    between atoms: C_5  and  S_6 
REMARK    2  A    between atoms: S_6  and  N_9 
REMARK    3  A    between atoms: C_10  and  N_9 
REMARK    4  A    between atoms: C_10  and  C_11 
REMARK    5  A    between atoms: C_10  and  C_13 
REMARK    6  A    between atoms: C_11  and  O_12 
REMARK    7  A    between atoms: C_13  and  C_14 
REMARK    8  A    between atoms: C_13  and  C_18 
ROOT
HETATM    1  C   UNK N   1      33.819  16.961   8.245  0.00  0.00     0.138 C 
ENDROOT
BRANCH   1   2
HETATM    2  N   UNK N   1      33.642  16.419   9.585  0.00  0.00    -0.307 N 
HETATM    3  H   UNK N   1      32.754  16.310  10.076  0.00  0.00     0.172 HD
BRANCH   2   4
HETATM    4  S   UNK N   1      35.242  15.983  10.215  0.00  0.00     0.265 S 
HETATM    5  O   UNK N   1      36.031  15.552   8.970  0.00  0.00    -0.200 OA
HETATM    6  O   UNK N   1      35.952  17.301  10.572  0.00  0.00    -0.200 OA
BRANCH   4   7
HETATM    7  C   UNK N   1      35.359  14.761  11.509  0.00  0.00     0.121 A 
HETATM    8  S   UNK N   1      36.145  14.953  12.952  0.00  0.00    -0.064 SA
HETATM    9  C   UNK N   1      35.803  13.485  13.629  0.00  0.00     0.075 A 
HETATM   10  C   UNK N   1      35.029  12.765  12.711  0.00  0.00     0.033 A 
HETATM   11 Cl   UNK N   1      36.312  12.943  15.213  0.00  0.00    -0.076 Cl
HETATM   12  C   UNK N   1      34.775  13.490  11.510  0.00  0.00     0.035 A 
ENDBRANCH   4   7
ENDBRANCH   2   4
ENDBRANCH   1   2
BRANCH   1  13
HETATM   13  C   UNK N   1      33.702  18.478   8.247  0.00  0.00     0.190 C 
BRANCH  13  14
HETATM   14  O   UNK N   1      34.978  19.038   8.310  0.00  0.00    -0.399 OA
HETATM   15  H   UNK N   1      35.611  19.146   9.037  0.00  0.00     0.209 HD
ENDBRANCH  13  14
ENDBRANCH   1  13
BRANCH   1  16
HETATM   16  C   UNK N   1      33.128  16.152   7.097  0.00  0.00     0.225 C 
BRANCH  16  17
HETATM   17  C   UNK N   1      33.835  16.226   5.724  0.00  0.00     0.401 C 
HETATM   18  F   UNK N   1      33.892  17.538   5.287  0.00  0.00    -0.170 F 
HETATM   19  F   UNK N   1      35.121  15.727   5.813  0.00  0.00    -0.170 F 
HETATM   20  F   UNK N   1      33.129  15.509   4.776  0.00  0.00    -0.170 F 
ENDBRANCH  16  17
BRANCH  16  21
HETATM   21  C   UNK N   1      31.600  16.379   6.996  0.00  0.00     0.401 C 
HETATM   22  F   UNK N   1      30.973  15.237   6.529  0.00  0.00    -0.170 F 
HETATM   23  F   UNK N   1      31.070  16.704   8.232  0.00  0.00    -0.170 F 
HETATM   24  F   UNK N   1      31.325  17.430   6.142  0.00  0.00    -0.170 F 
ENDBRANCH  16  21
ENDBRANCH   1  16
TORSDOF 8
ENDMDL
MODEL 2
REMARK VINA RESULT:      -5.7      4.501      6.435
REMARK  8 active torsions:
REMARK  status: ('A' for Active; 'I' for Inactive)
REMARK    1  A    between atoms: C_5  and  S_6 
REMARK    2  A    between atoms: S_6  and  N_9 
REMARK    3  A    between atoms: C_10  and  N_9 
REMARK    4  A    between atoms: C_10  and  C_11 
REMARK    5  A    between atoms: C_10  and  C_13 
REMARK    6  A    between atoms: C_11  and  O_12 
REMARK    7  A    between atoms: C_13  and  C_14 
REMARK    8  A    between atoms: C_13  and  C_18 
ROOT
HETATM    1  C   UNK N   1      34.864  15.482   9.638  0.00  0.00     0.138 C 
ENDROOT
BRANCH   1   2
HETATM    2  N   UNK N   1      34.599  16.896   9.863  0.00  0.00    -0.307 N 
HETATM    3  H   UNK N   1      34.709  17.394  10.746  0.00  0.00     0.172 HD
BRANCH   2   4
HETATM    4  S   UNK N   1      34.051  17.600   8.330  0.00  0.00     0.265 S 
HETATM    5  O   UNK N   1      34.637  19.019   8.338  0.00  0.00    -0.200 OA
HETATM    6  O   UNK N   1      34.885  16.942   7.217  0.00  0.00    -0.200 OA
BRANCH   4   7
HETATM    7  C   UNK N   1      32.305  17.623   7.964  0.00  0.00     0.121 A 
HETATM    8  S   UNK N   1      31.593  16.999   6.608  0.00  0.00    -0.064 SA
HETATM    9  C   UNK N   1      30.015  17.332   6.968  0.00  0.00     0.075 A 
HETATM   10  C   UNK N   1      29.991  17.969   8.215  0.00  0.00     0.033 A 
HETATM   11 Cl   UNK N   1      28.632  16.944   5.971  0.00  0.00    -0.076 Cl
HETATM   12  C   UNK N   1      31.289  18.132   8.781  0.00  0.00     0.035 A 
ENDBRANCH   4   7
ENDBRANCH   2   4
ENDBRANCH   1   2
BRANCH   1  13
HETATM   13  C   UNK N   1      33.596  14.655   9.791  0.00  0.00     0.190 C 
BRANCH  13  14
HETATM   14  O   UNK N   1      32.841  15.163  10.847  0.00  0.00    -0.399 OA
HETATM   15  H   UNK N   1      33.082  15.492  11.727  0.00  0.00     0.209 HD
ENDBRANCH  13  14
ENDBRANCH   1  13
BRANCH   1  16
HETATM   16  C   UNK N   1      36.197  14.941  10.257  0.00  0.00     0.225 C 
BRANCH  16  17
HETATM   17  C   UNK N   1      37.071  14.100   9.300  0.00  0.00     0.401 C 
HETATM   18  F   UNK N   1      38.408  14.406   9.480  0.00  0.00    -0.170 F 
HETATM   19  F   UNK N   1      36.885  12.749   9.534  0.00  0.00    -0.170 F 
HETATM   20  F   UNK N   1      36.760  14.384   7.983  0.00  0.00    -0.170 F 
ENDBRANCH  16  17
BRANCH  16  21
HETATM   21  C   UNK N   1      36.024  14.281  11.647  0.00  0.00     0.401 C 
HETATM   22  F   UNK N   1      35.151  13.210  11.565  0.00  0.00    -0.170 F 
HETATM   23  F   UNK N   1      37.239  13.829  12.129  0.00  0.00    -0.170 F 
HETATM   24  F   UNK N   1      35.535  15.197  12.558  0.00  0.00    -0.170 F 
ENDBRANCH  16  21
ENDBRANCH   1  16
TORSDOF 8
ENDMDL
MODEL 3
REMARK VINA RESULT:      -5.7      2.023      2.884
REMARK  8 active torsions:
REMARK  status: ('A' for Active; 'I' for Inactive)
REMARK    1  A    between atoms: C_5  and  S_6 
REMARK    2  A    between atoms: S_6  and  N_9 
REMARK    3  A    between atoms: C_10  and  N_9 
REMARK    4  A    between atoms: C_10  and  C_11 
REMARK    5  A    between atoms: C_10  and  C_13 
REMARK    6  A    between atoms: C_11  and  O_12 
REMARK    7  A    between atoms: C_13  and  C_14 
REMARK    8  A    between atoms: C_13  and  C_18 
ROOT
HETATM    1  C   UNK N   1      34.443  15.449   9.125  0.00  0.00     0.138 C 
ENDROOT
BRANCH   1   2
HETATM    2  N   UNK N   1      35.471  14.422   9.219  0.00  0.00    -0.307 N 
HETATM    3  H   UNK N   1      35.529  13.577   8.650  0.00  0.00     0.172 HD
BRANCH   2   4
HETATM    4  S   UNK N   1      36.605  14.897  10.497  0.00  0.00     0.265 S 
HETATM    5  O   UNK N   1      37.984  14.809   9.828  0.00  0.00    -0.200 OA
HETATM    6  O   UNK N   1      36.460  16.419  10.674  0.00  0.00    -0.200 OA
BRANCH   4   7
HETATM    7  C   UNK N   1      36.581  14.015  12.048  0.00  0.00     0.121 A 
HETATM    8  S   UNK N   1      37.116  12.469  12.288  0.00  0.00    -0.064 SA
HETATM    9  C   UNK N   1      36.834  12.348  13.912  0.00  0.00     0.075 A 
HETATM   10  C   UNK N   1      36.288  13.565  14.338  0.00  0.00     0.033 A 
HETATM   11 Cl   UNK N   1      37.169  10.951  14.909  0.00  0.00    -0.076 Cl
HETATM   12  C   UNK N   1      36.148  14.512  13.282  0.00  0.00     0.035 A 
ENDBRANCH   4   7
ENDBRANCH   2   4
ENDBRANCH   1   2
BRANCH   1  13
HETATM   13  C   UNK N   1      33.116  14.950   9.679  0.00  0.00     0.190 C 
BRANCH  13  14
HETATM   14  O   UNK N   1      33.134  15.045  11.070  0.00  0.00    -0.399 OA
HETATM   15  H   UNK N   1      32.725  15.670  11.689  0.00  0.00     0.209 HD
ENDBRANCH  13  14
ENDBRANCH   1  13
BRANCH   1  16
HETATM   16  C   UNK N   1      34.442  16.280   7.798  0.00  0.00     0.225 C 
BRANCH  16  17
HETATM   17  C   UNK N   1      34.041  17.764   7.953  0.00  0.00     0.401 C 
HETATM   18  F   UNK N   1      32.911  17.874   8.745  0.00  0.00    -0.170 F 
HETATM   19  F   UNK N   1      35.067  18.486   8.534  0.00  0.00    -0.170 F 
HETATM   20  F   UNK N   1      33.733  18.314   6.722  0.00  0.00    -0.170 F 
ENDBRANCH  16  17
BRANCH  16  21
HETATM   21  C   UNK N   1      33.719  15.584   6.619  0.00  0.00     0.401 C 
HETATM   22  F   UNK N   1      32.362  15.858   6.659  0.00  0.00    -0.170 F 
HETATM   23  F   UNK N   1      34.226  16.019   5.408  0.00  0.00    -0.170 F 
HETATM   24  F   UNK N   1      33.908  14.216   6.678  0.00  0.00    -0.170 F 
ENDBRANCH  16  21
ENDBRANCH   1  16
TORSDOF 8
ENDMDL
MODEL 4
REMARK VINA RESULT:      -5.7      5.697      7.937
REMARK  8 active torsions:
REMARK  status: ('A' for Active; 'I' for Inactive)
REMARK    1  A    between atoms: C_5  and  S_6 
REMARK    2  A    between atoms: S_6  and  N_9 
REMARK    3  A    between atoms: C_10  and  N_9 
REMARK    4  A    between atoms: C_10  and  C_11 
REMARK    5  A    between atoms: C_10  and  C_13 
REMARK    6  A    between atoms: C_11  and  O_12 
REMARK    7  A    between atoms: C_13  and  C_14 
REMARK    8  A    between atoms: C_13  and  C_18 
ROOT
HETATM    1  C   UNK N   1      35.512  12.528  12.779  0.00  0.00     0.138 C 
ENDROOT
BRANCH   1   2
HETATM    2  N   UNK N   1      34.854  12.896  11.534  0.00  0.00    -0.307 N 
HETATM    3  H   UNK N   1      34.172  12.332  11.026  0.00  0.00     0.172 HD
BRANCH   2   4
HETATM    4  S   UNK N   1      35.448  14.497  11.053  0.00  0.00     0.265 S 
HETATM    5  O   UNK N   1      35.749  15.200  12.385  0.00  0.00    -0.200 OA
HETATM    6  O   UNK N   1      36.869  14.294  10.498  0.00  0.00    -0.200 OA
BRANCH   4   7
HETATM    7  C   UNK N   1      34.431  15.516   9.999  0.00  0.00     0.121 A 
HETATM    8  S   UNK N   1      32.954  15.099   9.384  0.00  0.00    -0.064 SA
HETATM    9  C   UNK N   1      32.608  16.497   8.573  0.00  0.00     0.075 A 
HETATM   10  C   UNK N   1      33.682  17.374   8.767  0.00  0.00     0.033 A 
HETATM   11 Cl   UNK N   1      31.155  16.816   7.654  0.00  0.00    -0.076 Cl
HETATM   12  C   UNK N   1      34.714  16.820   9.577  0.00  0.00     0.035 A 
ENDBRANCH   4   7
ENDBRANCH   2   4
ENDBRANCH   1   2
BRANCH   1  13
HETATM   13  C   UNK N   1      36.674  11.577  12.526  0.00  0.00     0.190 C 
BRANCH  13  14
HETATM   14  O   UNK N   1      37.869  12.293  12.557  0.00  0.00    -0.399 OA
HETATM   15  H   UNK N   1      38.689  12.223  12.044  0.00  0.00     0.209 HD
ENDBRANCH  13  14
ENDBRANCH   1  13
BRANCH   1  16
HETATM   16  C   UNK N   1      34.557  12.246  13.986  0.00  0.00     0.225 C 
BRANCH  16  17
HETATM   17  C   UNK N   1      35.083  12.712  15.363  0.00  0.00     0.401 C 
HETATM   18  F   UNK N   1      35.981  13.752  15.205  0.00  0.00    -0.170 F 
HETATM   19  F   UNK N   1      34.039  13.138  16.163  0.00  0.00    -0.170 F 
HETATM   20  F   UNK N   1      35.756  11.684  15.997  0.00  0.00    -0.170 F 
ENDBRANCH  16  17
BRANCH  16  21
HETATM   21  C   UNK N   1      33.988  10.806  14.019  0.00  0.00     0.401 C 
HETATM   22  F   UNK N   1      33.506  10.451  12.771  0.00  0.00    -0.170 F 
HETATM   23  F   UNK N   1      34.966   9.902  14.393  0.00  0.00    -0.170 F 
HETATM   24  F   UNK N   1      32.966  10.714  14.944  0.00  0.00    -0.170 F 
ENDBRANCH  16  21
ENDBRANCH   1  16
TORSDOF 8
ENDMDL
MODEL 5
REMARK VINA RESULT:      -5.7     10.934     13.117
REMARK  8 active torsions:
REMARK  status: ('A' for Active; 'I' for Inactive)
REMARK    1  A    between atoms: C_5  and  S_6 
REMARK    2  A    between atoms: S_6  and  N_9 
REMARK    3  A    between atoms: C_10  and  N_9 
REMARK    4  A    between atoms: C_10  and  C_11 
REMARK    5  A    between atoms: C_10  and  C_13 
REMARK    6  A    between atoms: C_11  and  O_12 
REMARK    7  A    between atoms: C_13  and  C_14 
REMARK    8  A    between atoms: C_13  and  C_18 
ROOT
HETATM    1  C   UNK N   1      24.536  17.741   4.423  0.00  0.00     0.138 C 
ENDROOT
BRANCH   1   2
HETATM    2  N   UNK N   1      23.886  18.340   5.580  0.00  0.00    -0.307 N 
HETATM    3  H   UNK N   1      24.328  18.952   6.266  0.00  0.00     0.172 HD
BRANCH   2   4
HETATM    4  S   UNK N   1      22.192  17.817   5.586  0.00  0.00     0.265 S 
HETATM    5  O   UNK N   1      22.223  16.446   6.278  0.00  0.00    -0.200 OA
HETATM    6  O   UNK N   1      21.470  18.667   6.648  0.00  0.00    -0.200 OA
BRANCH   4   7
HETATM    7  C   UNK N   1      21.303  17.741   4.041  0.00  0.00     0.121 A 
HETATM    8  S   UNK N   1      21.227  16.432   3.033  0.00  0.00    -0.064 SA
HETATM    9  C   UNK N   1      20.232  17.057   1.872  0.00  0.00     0.075 A 
HETATM   10  C   UNK N   1      19.911  18.367   2.250  0.00  0.00     0.033 A 
HETATM   11 Cl   UNK N   1      19.676  16.222   0.439  0.00  0.00    -0.076 Cl
HETATM   12  C   UNK N   1      20.516  18.753   3.481  0.00  0.00     0.035 A 
ENDBRANCH   4   7
ENDBRANCH   2   4
ENDBRANCH   1   2
BRANCH   1  13
HETATM   13  C   UNK N   1      24.985  16.317   4.721  0.00  0.00     0.190 C 
BRANCH  13  14
HETATM   14  O   UNK N   1      25.282  16.204   6.078  0.00  0.00    -0.399 OA
HETATM   15  H   UNK N   1      24.734  16.260   6.876  0.00  0.00     0.209 HD
ENDBRANCH  13  14
ENDBRANCH   1  13
BRANCH   1  16
HETATM   16  C   UNK N   1      25.501  18.686   3.630  0.00  0.00     0.225 C 
BRANCH  16  17
HETATM   17  C   UNK N   1      26.951  18.741   4.164  0.00  0.00     0.401 C 
HETATM   18  F   UNK N   1      26.948  18.858   5.543  0.00  0.00    -0.170 F 
HETATM   19  F   UNK N   1      27.641  17.596   3.812  0.00  0.00    -0.170 F 
HETATM   20  F   UNK N   1      27.610  19.847   3.660  0.00  0.00    -0.170 F 
ENDBRANCH  16  17
BRANCH  16  21
HETATM   21  C   UNK N   1      24.915  20.090   3.344  0.00  0.00     0.401 C 
HETATM   22  F   UNK N   1      25.165  20.941   4.407  0.00  0.00    -0.170 F 
HETATM   23  F   UNK N   1      25.473  20.630   2.200  0.00  0.00    -0.170 F 
HETATM   24  F   UNK N   1      23.550  20.009   3.138  0.00  0.00    -0.170 F 
ENDBRANCH  16  21
ENDBRANCH   1  16
TORSDOF 8
ENDMDL
MODEL 6
REMARK VINA RESULT:      -5.7      1.819      2.784
REMARK  8 active torsions:
REMARK  status: ('A' for Active; 'I' for Inactive)
REMARK    1  A    between atoms: C_5  and  S_6 
REMARK    2  A    between atoms: S_6  and  N_9 
REMARK    3  A    between atoms: C_10  and  N_9 
REMARK    4  A    between atoms: C_10  and  C_11 
REMARK    5  A    between atoms: C_10  and  C_13 
REMARK    6  A    between atoms: C_11  and  O_12 
REMARK    7  A    between atoms: C_13  and  C_14 
REMARK    8  A    between atoms: C_13  and  C_18 
ROOT
HETATM    1  C   UNK N   1      33.928  16.678   8.602  0.00  0.00     0.138 C 
ENDROOT
BRANCH   1   2
HETATM    2  N   UNK N   1      33.982  16.433  10.036  0.00  0.00    -0.307 N 
HETATM    3  H   UNK N   1      33.317  16.778  10.729  0.00  0.00     0.172 HD
BRANCH   2   4
HETATM    4  S   UNK N   1      35.406  15.429  10.367  0.00  0.00     0.265 S 
HETATM    5  O   UNK N   1      35.851  14.940   8.981  0.00  0.00    -0.200 OA
HETATM    6  O   UNK N   1      36.553  16.392  10.722  0.00  0.00    -0.200 OA
BRANCH   4   7
HETATM    7  C   UNK N   1      35.260  14.072  11.516  0.00  0.00     0.121 A 
HETATM    8  S   UNK N   1      34.847  12.518  11.128  0.00  0.00    -0.064 SA
HETATM    9  C   UNK N   1      34.956  11.840  12.631  0.00  0.00     0.075 A 
HETATM   10  C   UNK N   1      35.336  12.849  13.524  0.00  0.00     0.033 A 
HETATM   11 Cl   UNK N   1      34.658  10.162  13.023  0.00  0.00    -0.076 Cl
HETATM   12  C   UNK N   1      35.512  14.114  12.891  0.00  0.00     0.035 A 
ENDBRANCH   4   7
ENDBRANCH   2   4
ENDBRANCH   1   2
BRANCH   1  13
HETATM   13  C   UNK N   1      34.545  18.024   8.252  0.00  0.00     0.190 C 
BRANCH  13  14
HETATM   14  O   UNK N   1      34.512  18.200   6.869  0.00  0.00    -0.399 OA
HETATM   15  H   UNK N   1      34.658  17.592   6.127  0.00  0.00     0.209 HD
ENDBRANCH  13  14
ENDBRANCH   1  13
BRANCH   1  16
HETATM   16  C   UNK N   1      32.597  16.251   7.897  0.00  0.00     0.225 C 
BRANCH  16  17
HETATM   17  C   UNK N   1      31.311  16.867   8.494  0.00  0.00     0.401 C 
HETATM   18  F   UNK N   1      30.882  16.121   9.577  0.00  0.00    -0.170 F 
HETATM   19  F   UNK N   1      31.543  18.166   8.908  0.00  0.00    -0.170 F 
HETATM   20  F   UNK N   1      30.291  16.859   7.561  0.00  0.00    -0.170 F 
ENDBRANCH  16  17
BRANCH  16  21
HETATM   21  C   UNK N   1      32.473  14.728   7.652  0.00  0.00     0.401 C 
HETATM   22  F   UNK N   1      31.369  14.456   6.862  0.00  0.00    -0.170 F 
HETATM   23  F   UNK N   1      33.603  14.239   7.022  0.00  0.00    -0.170 F 
HETATM   24  F   UNK N   1      32.348  14.056   8.853  0.00  0.00    -0.170 F 
ENDBRANCH  16  21
ENDBRANCH   1  16
TORSDOF 8
ENDMDL
MODEL 7
REMARK VINA RESULT:      -5.7     16.204     18.006
REMARK  8 active torsions:
REMARK  status: ('A' for Active; 'I' for Inactive)
REMARK    1  A    between atoms: C_5  and  S_6 
REMARK    2  A    between atoms: S_6  and  N_9 
REMARK    3  A    between atoms: C_10  and  N_9 
REMARK    4  A    between atoms: C_10  and  C_11 
REMARK    5  A    between atoms: C_10  and  C_13 
REMARK    6  A    between atoms: C_11  and  O_12 
REMARK    7  A    between atoms: C_13  and  C_14 
REMARK    8  A    between atoms: C_13  and  C_18 
ROOT
HETATM    1  C   UNK N   1      27.009  25.547  -4.329  0.00  0.00     0.138 C 
ENDROOT
BRANCH   1   2
HETATM    2  N   UNK N   1      27.955  25.421  -5.429  0.00  0.00    -0.307 N 
HETATM    3  H   UNK N   1      27.720  25.381  -6.421  0.00  0.00     0.172 HD
BRANCH   2   4
HETATM    4  S   UNK N   1      29.588  25.350  -4.741  0.00  0.00     0.265 S 
HETATM    5  O   UNK N   1      30.473  26.018  -5.803  0.00  0.00    -0.200 OA
HETATM    6  O   UNK N   1      29.640  26.395  -3.613  0.00  0.00    -0.200 OA
BRANCH   4   7
HETATM    7  C   UNK N   1      30.252  23.768  -4.249  0.00  0.00     0.121 A 
HETATM    8  S   UNK N   1      30.508  22.475  -5.248  0.00  0.00    -0.064 SA
HETATM    9  C   UNK N   1      31.155  21.424  -4.149  0.00  0.00     0.075 A 
HETATM   10  C   UNK N   1      31.195  22.078  -2.911  0.00  0.00     0.033 A 
HETATM   11 Cl   UNK N   1      31.699  19.796  -4.484  0.00  0.00    -0.076 Cl
HETATM   12  C   UNK N   1      30.686  23.408  -2.969  0.00  0.00     0.035 A 
ENDBRANCH   4   7
ENDBRANCH   2   4
ENDBRANCH   1   2
BRANCH   1  13
HETATM   13  C   UNK N   1      26.526  24.182  -3.862  0.00  0.00     0.190 C 
BRANCH  13  14
HETATM   14  O   UNK N   1      26.966  23.960  -2.558  0.00  0.00    -0.399 OA
HETATM   15  H   UNK N   1      26.587  24.178  -1.692  0.00  0.00     0.209 HD
ENDBRANCH  13  14
ENDBRANCH   1  13
BRANCH   1  16
HETATM   16  C   UNK N   1      25.969  26.709  -4.467  0.00  0.00     0.225 C 
BRANCH  16  17
HETATM   17  C   UNK N   1      25.281  26.814  -5.847  0.00  0.00     0.401 C 
HETATM   18  F   UNK N   1      25.131  25.556  -6.404  0.00  0.00    -0.170 F 
HETATM   19  F   UNK N   1      24.036  27.402  -5.725  0.00  0.00    -0.170 F 
HETATM   20  F   UNK N   1      26.055  27.557  -6.720  0.00  0.00    -0.170 F 
ENDBRANCH  16  17
BRANCH  16  21
HETATM   21  C   UNK N   1      26.478  28.076  -3.947  0.00  0.00     0.401 C 
HETATM   22  F   UNK N   1      27.565  28.499  -4.692  0.00  0.00    -0.170 F 
HETATM   23  F   UNK N   1      25.482  29.033  -4.029  0.00  0.00    -0.170 F 
HETATM   24  F   UNK N   1      26.847  27.979  -2.619  0.00  0.00    -0.170 F 
ENDBRANCH  16  21
ENDBRANCH   1  16
TORSDOF 8
ENDMDL
MODEL 8
REMARK VINA RESULT:      -5.7     16.185     18.079
REMARK  8 active torsions:
REMARK  status: ('A' for Active; 'I' for Inactive)
REMARK    1  A    between atoms: C_5  and  S_6 
REMARK    2  A    between atoms: S_6  and  N_9 
REMARK    3  A    between atoms: C_10  and  N_9 
REMARK    4  A    between atoms: C_10  and  C_11 
REMARK    5  A    between atoms: C_10  and  C_13 
REMARK    6  A    between atoms: C_11  and  O_12 
REMARK    7  A    between atoms: C_13  and  C_14 
REMARK    8  A    between atoms: C_13  and  C_18 
ROOT
HETATM    1  C   UNK N   1      27.673  26.376  -5.285  0.00  0.00     0.138 C 
ENDROOT
BRANCH   1   2
HETATM    2  N   UNK N   1      28.094  25.917  -3.970  0.00  0.00    -0.307 N 
HETATM    3  H   UNK N   1      28.432  26.506  -3.208  0.00  0.00     0.172 HD
BRANCH   2   4
HETATM    4  S   UNK N   1      27.918  24.152  -3.924  0.00  0.00     0.265 S 
HETATM    5  O   UNK N   1      26.871  23.908  -2.827  0.00  0.00    -0.200 OA
HETATM    6  O   UNK N   1      27.127  23.753  -5.182  0.00  0.00    -0.200 OA
BRANCH   4   7
HETATM    7  C   UNK N   1      29.368  23.144  -3.669  0.00  0.00     0.121 A 
HETATM    8  S   UNK N   1      30.031  22.109  -4.775  0.00  0.00    -0.064 SA
HETATM    9  C   UNK N   1      31.323  21.579  -3.890  0.00  0.00     0.075 A 
HETATM   10  C   UNK N   1      31.277  22.223  -2.648  0.00  0.00     0.033 A 
HETATM   11 Cl   UNK N   1      32.530  20.431  -4.424  0.00  0.00    -0.076 Cl
HETATM   12  C   UNK N   1      30.170  23.112  -2.523  0.00  0.00     0.035 A 
ENDBRANCH   4   7
ENDBRANCH   2   4
ENDBRANCH   1   2
BRANCH   1  13
HETATM   13  C   UNK N   1      28.873  26.650  -6.181  0.00  0.00     0.190 C 
BRANCH  13  14
HETATM   14  O   UNK N   1      29.169  25.504  -6.917  0.00  0.00    -0.399 OA
HETATM   15  H   UNK N   1      29.904  25.274  -7.507  0.00  0.00     0.209 HD
ENDBRANCH  13  14
ENDBRANCH   1  13
BRANCH   1  16
HETATM   16  C   UNK N   1      26.479  27.388  -5.294  0.00  0.00     0.225 C 
BRANCH  16  17
HETATM   17  C   UNK N   1      26.262  28.157  -3.971  0.00  0.00     0.401 C 
HETATM   18  F   UNK N   1      25.666  29.380  -4.221  0.00  0.00    -0.170 F 
HETATM   19  F   UNK N   1      25.454  27.431  -3.115  0.00  0.00    -0.170 F 
HETATM   20  F   UNK N   1      27.473  28.410  -3.353  0.00  0.00    -0.170 F 
ENDBRANCH  16  17
BRANCH  16  21
HETATM   21  C   UNK N   1      25.165  26.808  -5.871  0.00  0.00     0.401 C 
HETATM   22  F   UNK N   1      24.871  25.594  -5.274  0.00  0.00    -0.170 F 
HETATM   23  F   UNK N   1      24.110  27.677  -5.657  0.00  0.00    -0.170 F 
HETATM   24  F   UNK N   1      25.278  26.627  -7.237  0.00  0.00    -0.170 F 
ENDBRANCH  16  21
ENDBRANCH   1  16
TORSDOF 8
ENDMDL
MODEL 9
REMARK VINA RESULT:      -5.6      2.665      3.263
REMARK  8 active torsions:
REMARK  status: ('A' for Active; 'I' for Inactive)
REMARK    1  A    between atoms: C_5  and  S_6 
REMARK    2  A    between atoms: S_6  and  N_9 
REMARK    3  A    between atoms: C_10  and  N_9 
REMARK    4  A    between atoms: C_10  and  C_11 
REMARK    5  A    between atoms: C_10  and  C_13 
REMARK    6  A    between atoms: C_11  and  O_12 
REMARK    7  A    between atoms: C_13  and  C_14 
REMARK    8  A    between atoms: C_13  and  C_18 
ROOT
HETATM    1  C   UNK N   1      34.236  17.239   8.525  0.00  0.00     0.138 C 
ENDROOT
BRANCH   1   2
HETATM    2  N   UNK N   1      34.182  17.035   9.966  0.00  0.00    -0.307 N 
HETATM    3  H   UNK N   1      33.619  17.571  10.627  0.00  0.00     0.172 HD
BRANCH   2   4
HETATM    4  S   UNK N   1      35.266  15.691  10.370  0.00  0.00     0.265 S 
HETATM    5  O   UNK N   1      36.627  16.362  10.603  0.00  0.00    -0.200 OA
HETATM    6  O   UNK N   1      34.907  15.246  11.799  0.00  0.00    -0.200 OA
BRANCH   4   7
HETATM    7  C   UNK N   1      35.407  14.322   9.234  0.00  0.00     0.121 A 
HETATM    8  S   UNK N   1      34.445  12.977   9.217  0.00  0.00    -0.064 SA
HETATM    9  C   UNK N   1      35.110  12.201   7.918  0.00  0.00     0.075 A 
HETATM   10  C   UNK N   1      36.150  13.003   7.433  0.00  0.00     0.033 A 
HETATM   11 Cl   UNK N   1      34.592  10.662   7.268  0.00  0.00    -0.076 Cl
HETATM   12  C   UNK N   1      36.317  14.207   8.177  0.00  0.00     0.035 A 
ENDBRANCH   4   7
ENDBRANCH   2   4
ENDBRANCH   1   2
BRANCH   1  13
HETATM   13  C   UNK N   1      34.690  18.652   8.188  0.00  0.00     0.190 C 
BRANCH  13  14
HETATM   14  O   UNK N   1      35.669  19.050   9.098  0.00  0.00    -0.399 OA
HETATM   15  H   UNK N   1      35.840  18.814  10.023  0.00  0.00     0.209 HD
ENDBRANCH  13  14
ENDBRANCH   1  13
BRANCH   1  16
HETATM   16  C   UNK N   1      33.055  16.611   7.713  0.00  0.00     0.225 C 
BRANCH  16  17
HETATM   17  C   UNK N   1      33.266  16.560   6.182  0.00  0.00     0.401 C 
HETATM   18  F   UNK N   1      34.594  16.305   5.890  0.00  0.00    -0.170 F 
HETATM   19  F   UNK N   1      32.484  15.568   5.618  0.00  0.00    -0.170 F 
HETATM   20  F   UNK N   1      32.947  17.777   5.608  0.00  0.00    -0.170 F 
ENDBRANCH  16  17
BRANCH  16  21
HETATM   21  C   UNK N   1      31.660  17.155   8.106  0.00  0.00     0.401 C 
HETATM   22  F   UNK N   1      31.751  18.481   8.491  0.00  0.00    -0.170 F 
HETATM   23  F   UNK N   1      30.779  17.058   7.044  0.00  0.00    -0.170 F 
HETATM   24  F   UNK N   1      31.132  16.415   9.148  0.00  0.00    -0.170 F 
ENDBRANCH  16  21
ENDBRANCH   1  16
TORSDOF 8
ENDMDL
