REMARK  8 active torsions:
REMARK  status: ('A' for Active; 'I' for Inactive)
REMARK    1  A    between atoms: O_2  and  C_3 
REMARK    2  A    between atoms: C_7  and  N_9 
REMARK       I    between atoms: N_12  and  C_15 
REMARK    3  A    between atoms: C_25  and  C_39 
REMARK    4  A    between atoms: N_26  and  C_27 
REMARK    5  A    between atoms: C_29  and  C_35 
REMARK    6  A    between atoms: C_32  and  O_33 
REMARK    7  A    between atoms: C_39  and  C_40 
REMARK    8  A    between atoms: C_40  and  O_42 
ROOT
HETATM    1  N   UNK N   1      -3.635  -3.622  -0.402  0.00  0.00    -0.378 N 
HETATM    2  C   UNK N   1      -3.658  -2.297  -1.005  0.00  0.00     0.143 C 
HETATM    3  C   UNK N   1      -2.359  -1.863  -1.672  0.00  0.00     0.161 C 
HETATM    4  N   UNK N   1      -1.283  -2.291  -0.844  0.00  0.00    -0.214 N 
HETATM    5  C   UNK N   1      -1.143  -3.730  -0.781  0.00  0.00     0.161 C 
HETATM    6  C   UNK N   1      -2.413  -4.407  -0.261  0.00  0.00     0.143 C 
HETATM    7  C   UNK N   1      -0.159  -1.466  -0.442  0.00  0.00     0.684 A 
HETATM    8  N   UNK N   1       0.932  -2.125  -0.234  0.00  0.00    -0.188 N 
ATOM      9  HN  UNK N   1       0.860  -3.142  -0.205  1.00  0.00     0.184 HD
HETATM   10  C   UNK N   1       2.203  -1.574  -0.045  0.00  0.00     0.096 A 
HETATM   11  C   UNK N   1       2.370  -0.202  -0.067  0.00  0.00    -0.004 A 
HETATM   12  C   UNK N   1       3.671   0.326   0.029  0.00  0.00     0.012 A 
HETATM   13  C   UNK N   1       4.776  -0.516   0.167  0.00  0.00     0.004 A 
HETATM   14  C   UNK N   1       4.592  -1.897   0.213  0.00  0.00     0.045 A 
HETATM   15  C   UNK N   1       3.307  -2.428   0.100  0.00  0.00     0.144 A 
HETATM   16  F   UNK N   1       3.134  -3.773   0.118  0.00  0.00    -0.204 F 
HETATM   17  C   UNK N   1       1.162   0.706  -0.156  0.00  0.00     0.153 A 
HETATM   18  N   UNK N   1      -0.146   0.025  -0.378  0.00  0.00    -0.171 N 
ENDROOT
BRANCH  18  19
HETATM   19  C   UNK N   1      -1.350   0.886  -0.425  0.00  0.00     0.086 A 
HETATM   20  C   UNK N   1      -2.642   0.352  -0.246  0.00  0.00     0.049 A 
HETATM   21  C   UNK N   1      -3.813   1.132  -0.293  0.00  0.00     0.050 A 
HETATM   22  C   UNK N   1      -3.707   2.504  -0.443  0.00  0.00     0.019 A 
HETATM   23  C   UNK N   1      -2.464   3.086  -0.598  0.00  0.00     0.040 A 
HETATM   24  C   UNK N   1      -1.285   2.316  -0.618  0.00  0.00     0.095 A 
BRANCH  21  25
HETATM   25  C   UNK N   1      -5.181   0.498  -0.262  0.00  0.00     0.417 C 
HETATM   26  F   UNK N   1      -5.316  -0.303   0.855  0.00  0.00    -0.166 F 
HETATM   27  F   UNK N   1      -6.179   1.459  -0.245  0.00  0.00    -0.166 F 
HETATM   28  F   UNK N   1      -5.363  -0.260  -1.405  0.00  0.00    -0.166 F 
ENDBRANCH  21  25
BRANCH  24  29
HETATM   29  O   UNK N   1      -0.110   2.952  -0.840  0.00  0.00    -0.354 OA
HETATM   30  C   UNK N   1      -0.007   4.322  -0.979  0.00  0.00     0.210 C 
ENDBRANCH  24  29
ENDBRANCH  18  19
BRANCH  17  31
HETATM   31  C   UNK N   1       1.123   1.556   1.136  0.00  0.00     0.141 C 
BRANCH  31  32
HETATM   32  C   UNK N   1       2.254   2.550   1.214  0.00  0.00     0.141 C 
HETATM   33  O   UNK N   1       2.993   2.553   2.183  0.00  0.00    -0.650 OA
BRANCH  32  34
HETATM   34  O   UNK N   1       2.489   3.401   0.197  0.00  0.00    -0.776 OA
HETATM   35  H   UNK N   1       3.084   3.556  -0.511  0.00  0.00     0.167 HD
ENDBRANCH  32  34
ENDBRANCH  31  32
ENDBRANCH  17  31
BRANCH   1  36
HETATM   36  C   UNK N   1      -4.862  -4.158   0.089  0.00  0.00     0.032 A 
HETATM   37  C   UNK N   1      -5.937  -3.309   0.404  0.00  0.00     0.029 A 
HETATM   38  C   UNK N   1      -7.144  -3.834   0.870  0.00  0.00     0.005 A 
HETATM   39  C   UNK N   1      -7.308  -5.217   0.976  0.00  0.00     0.037 A 
HETATM   40  C   UNK N   1      -6.263  -6.080   0.633  0.00  0.00     0.070 A 
HETATM   41  C   UNK N   1      -5.033  -5.544   0.214  0.00  0.00     0.066 A 
BRANCH  40  42
HETATM   42  O   UNK N   1      -6.474  -7.416   0.679  0.00  0.00    -0.356 OA
HETATM   43  C   UNK N   1      -5.563  -8.336   0.210  0.00  0.00     0.210 C 
ENDBRANCH  40  42
ENDBRANCH   1  36
TORSDOF 8
