MODEL 1
REMARK VINA RESULT:      -6.5      0.000      0.000
REMARK  16 active torsions:
REMARK  status: ('A' for Active; 'I' for Inactive)
REMARK    1  A    between atoms: C_3  and  C_2 
REMARK    2  A    between atoms: N_10  and  C_83 
REMARK    3  A    between atoms: C_11  and  C_80 
REMARK    4  A    between atoms: C_15  and  C_77 
REMARK    5  A    between atoms: C_19  and  C_72 
REMARK    6  A    between atoms: C_31  and  C_65 
REMARK    7  A    between atoms: C_35  and  C_60 
REMARK    8  A    between atoms: C_39  and  C_56 
REMARK    9  A    between atoms: C_43  and  C_47 
REMARK   10  A    between atoms: C_47  and  C_48 
REMARK   11  A    between atoms: C_47  and  O_54 
REMARK   12  A    between atoms: C_48  and  C_50 
REMARK   13  A    between atoms: C_50  and  C_51 
REMARK   14  A    between atoms: C_60  and  C_61 
REMARK   15  A    between atoms: C_65  and  C_66 
REMARK   16  A    between atoms: C_72  and  C_73 
ROOT
HETATM    1  C   UNK N   1      24.252  16.348   5.598  0.00  0.00     0.176 C 
HETATM    2  C   UNK N   1      23.191  15.336   5.626  0.00  0.00     0.243 C 
HETATM    3  O   UNK N   1      22.150  15.630   6.186  0.00  0.00    -0.271 OA
HETATM    4  N   UNK N   1      23.201  14.382   4.639  0.00  0.00    -0.342 N 
HETATM    5  C   UNK N   1      22.477  14.631   3.401  0.00  0.00     0.175 C 
HETATM    6  C   UNK N   1      21.291  13.880   3.584  0.00  0.00     0.243 C 
HETATM    7  O   UNK N   1      20.720  13.997   4.656  0.00  0.00    -0.271 OA
HETATM    8  N   UNK N   1      21.057  12.839   2.766  0.00  0.00    -0.337 N 
HETATM    9  C   UNK N   1      20.705  11.645   3.477  0.00  0.00     0.182 C 
HETATM   10  C   UNK N   1      21.906  11.260   4.234  0.00  0.00     0.241 C 
HETATM   11  O   UNK N   1      21.927  11.099   5.445  0.00  0.00    -0.271 OA
HETATM   12  N   UNK N   1      22.879  10.800   3.480  0.00  0.00    -0.346 N 
HETATM   13  C   UNK N   1      22.862   9.423   3.236  0.00  0.00     0.174 C 
HETATM   14  C   UNK N   1      23.840   8.851   4.178  0.00  0.00     0.223 C 
HETATM   15  O   UNK N   1      23.484   8.306   5.210  0.00  0.00    -0.277 OA
HETATM   16  N   UNK N   1      25.041   8.598   3.662  0.00  0.00    -0.242 NA
HETATM   17  C   UNK N   1      24.912   7.880   2.415  0.00  0.00     0.157 C 
HETATM   18  C   UNK N   1      26.191   7.460   1.911  0.00  0.00     0.236 C 
HETATM   19  O   UNK N   1      26.589   6.348   2.212  0.00  0.00    -0.272 OA
HETATM   20  N   UNK N   1      26.828   8.239   0.999  0.00  0.00    -0.347 N 
HETATM   21  C   UNK N   1      28.044   7.835   0.345  0.00  0.00     0.172 C 
HETATM   22  C   UNK N   1      29.081   7.542   1.368  0.00  0.00     0.240 C 
HETATM   23  O   UNK N   1      28.887   6.676   2.202  0.00  0.00    -0.271 OA
HETATM   24  N   UNK N   1      30.238   8.209   1.394  0.00  0.00    -0.346 N 
HETATM   25  C   UNK N   1      31.171   7.917   2.457  0.00  0.00     0.172 C 
HETATM   26  C   UNK N   1      30.492   8.240   3.766  0.00  0.00     0.242 C 
HETATM   27  O   UNK N   1      30.092   7.344   4.503  0.00  0.00    -0.271 OA
HETATM   28  N   UNK N   1      30.243   9.527   4.071  0.00  0.00    -0.341 N 
HETATM   29  C   UNK N   1      31.083  10.532   3.466  0.00  0.00     0.179 C 
HETATM   30  C   UNK N   1      30.693  11.032   2.102  0.00  0.00     0.243 C 
HETATM   31  O   UNK N   1      31.212  10.527   1.121  0.00  0.00    -0.271 OA
HETATM   32  N   UNK N   1      30.387  12.318   2.027  0.00  0.00    -0.341 N 
HETATM   33  C   UNK N   1      31.459  13.288   2.207  0.00  0.00     0.179 C 
HETATM   34  C   UNK N   1      31.208  14.249   3.243  0.00  0.00     0.243 C 
HETATM   35  O   UNK N   1      31.651  15.373   3.033  0.00  0.00    -0.271 OA
HETATM   36  N   UNK N   1      30.335  14.047   4.259  0.00  0.00    -0.341 N 
HETATM   37  C   UNK N   1      29.622  15.184   4.572  0.00  0.00     0.182 C 
HETATM   38  C   UNK N   1      28.767  15.465   3.308  0.00  0.00     0.243 C 
HETATM   39  O   UNK N   1      29.190  15.313   2.139  0.00  0.00    -0.271 OA
HETATM   40  N   UNK N   1      27.505  15.756   3.435  0.00  0.00    -0.339 N 
HETATM   41  C   UNK N   1      27.251  16.470   4.638  0.00  0.00     0.207 C 
HETATM   42  C   UNK N   1      26.527  15.757   5.613  0.00  0.00     0.243 C 
HETATM   43  O   UNK N   1      26.854  15.646   6.785  0.00  0.00    -0.271 OA
HETATM   44  N   UNK N   1      25.329  15.556   5.227  0.00  0.00    -0.346 N 
HETATM   45  C   UNK N   1      26.536  15.662   2.383  0.00  0.00     0.153 C 
HETATM   46  C   UNK N   1      29.726  12.798   4.634  0.00  0.00     0.153 C 
HETATM   47  C   UNK N   1      29.074  12.693   1.541  0.00  0.00     0.153 C 
HETATM   48  C   UNK N   1      29.375   9.880   5.169  0.00  0.00     0.153 C 
HETATM   49  C   UNK N   1      31.668   6.487   2.328  0.00  0.00     0.042 C 
HETATM   50  C   UNK N   1      27.795   6.583  -0.475  0.00  0.00     0.042 C 
HETATM   51  C   UNK N   1      25.887   9.778   3.564  0.00  0.00     0.120 C 
HETATM   52  C   UNK N   1      22.010  16.028   3.087  0.00  0.00     0.042 C 
HETATM   53  C   UNK N   1      24.249  13.368   4.579  0.00  0.00     0.153 C 
HETATM   54  H   UNK N   1      23.576  11.388   3.108  0.00  0.00     0.163 HD
HETATM   55  H   UNK N   1      26.441   9.116   0.777  0.00  0.00     0.163 HD
HETATM   56  H   UNK N   1      30.449   8.882   0.707  0.00  0.00     0.163 HD
HETATM   57  H   UNK N   1      25.158  14.792   4.630  0.00  0.00     0.163 HD
ENDROOT
BRANCH  41  58
HETATM   58  C   UNK N   1      28.118  17.677   4.878  0.00  0.00     0.154 C 
BRANCH  58  59
HETATM   59  C   UNK N   1      27.515  18.535   5.903  0.00  0.00     0.016 C 
HETATM   60  C   UNK N   1      26.685  19.673   5.321  0.00  0.00     0.013 C 
BRANCH  59  61
HETATM   61  C   UNK N   1      28.605  18.982   6.864  0.00  0.00     0.033 C 
BRANCH  61  62
HETATM   62  C   UNK N   1      28.296  18.371   8.154  0.00  0.00    -0.031 C 
HETATM   63  C   UNK N   1      29.320  17.987   8.896  0.00  0.00    -0.035 C 
HETATM   64  C   UNK N   1      29.086  17.161  10.088  0.00  0.00     0.036 C 
ENDBRANCH  61  62
ENDBRANCH  59  61
ENDBRANCH  58  59
BRANCH  58  65
HETATM   65  O   UNK N   1      28.252  18.423   3.698  0.00  0.00    -0.393 OA
HETATM   66  H   UNK N   1      27.961  18.780   2.843  0.00  0.00     0.210 HD
ENDBRANCH  58  65
ENDBRANCH  41  58
BRANCH  37  67
HETATM   67  C   UNK N   1      30.384  16.178   5.510  0.00  0.00     0.009 C 
HETATM   68  C   UNK N   1      31.270  17.204   4.828  0.00  0.00     0.012 C 
HETATM   69  C   UNK N   1      31.185  15.453   6.586  0.00  0.00     0.012 C 
ENDBRANCH  37  67
BRANCH   1  70
HETATM   70  C   UNK N   1      24.091  17.283   4.377  0.00  0.00     0.030 C 
HETATM   71  C   UNK N   1      23.443  18.637   4.604  0.00  0.00     0.007 C 
ENDBRANCH   1  70
BRANCH  33  72
HETATM   72  C   UNK N   1      32.889  12.788   2.365  0.00  0.00     0.039 C 
BRANCH  72  73
HETATM   73  C   UNK N   1      33.828  13.210   1.217  0.00  0.00    -0.020 C 
HETATM   74  C   UNK N   1      35.058  13.992   1.657  0.00  0.00     0.009 C 
HETATM   75  C   UNK N   1      34.097  12.102   0.244  0.00  0.00     0.009 C 
ENDBRANCH  72  73
ENDBRANCH  33  72
BRANCH   8  76
HETATM   76  C   UNK N   1      21.860  12.726   1.541  0.00  0.00     0.122 C 
HETATM   77  C   UNK N   1      21.095  12.198   0.341  0.00  0.00     0.026 C 
ENDBRANCH   8  76
BRANCH  29  78
HETATM   78  C   UNK N   1      32.534  10.472   4.001  0.00  0.00     0.039 C 
BRANCH  78  79
HETATM   79  C   UNK N   1      32.975  10.847   5.442  0.00  0.00    -0.020 C 
HETATM   80  C   UNK N   1      32.863   9.800   6.513  0.00  0.00     0.009 C 
HETATM   81  C   UNK N   1      33.048  12.224   6.038  0.00  0.00     0.009 C 
ENDBRANCH  78  79
ENDBRANCH  29  78
BRANCH   9  82
HETATM   82  C   UNK N   1      19.324  11.422   4.085  0.00  0.00     0.009 C 
HETATM   83  C   UNK N   1      19.457  10.380   5.155  0.00  0.00     0.012 C 
HETATM   84  C   UNK N   1      18.185  11.040   3.162  0.00  0.00     0.012 C 
ENDBRANCH   9  82
BRANCH  13  85
HETATM   85  C   UNK N   1      21.460   8.812   2.975  0.00  0.00     0.009 C 
HETATM   86  C   UNK N   1      21.039   8.689   1.531  0.00  0.00     0.012 C 
HETATM   87  C   UNK N   1      21.139   7.573   3.784  0.00  0.00     0.012 C 
ENDBRANCH  13  85
BRANCH  17  88
HETATM   88  C   UNK N   1      24.032   6.627   2.621  0.00  0.00     0.033 C 
BRANCH  88  89
HETATM   89  C   UNK N   1      23.361   6.040   1.387  0.00  0.00    -0.021 C 
HETATM   90  C   UNK N   1      23.685   6.718   0.064  0.00  0.00     0.009 C 
HETATM   91  C   UNK N   1      23.726   4.579   1.333  0.00  0.00     0.009 C 
ENDBRANCH  88  89
ENDBRANCH  17  88
TORSDOF 16
ENDMDL
MODEL 2
REMARK VINA RESULT:      -5.9      2.219      8.739
REMARK  16 active torsions:
REMARK  status: ('A' for Active; 'I' for Inactive)
REMARK    1  A    between atoms: C_3  and  C_2 
REMARK    2  A    between atoms: N_10  and  C_83 
REMARK    3  A    between atoms: C_11  and  C_80 
REMARK    4  A    between atoms: C_15  and  C_77 
REMARK    5  A    between atoms: C_19  and  C_72 
REMARK    6  A    between atoms: C_31  and  C_65 
REMARK    7  A    between atoms: C_35  and  C_60 
REMARK    8  A    between atoms: C_39  and  C_56 
REMARK    9  A    between atoms: C_43  and  C_47 
REMARK   10  A    between atoms: C_47  and  C_48 
REMARK   11  A    between atoms: C_47  and  O_54 
REMARK   12  A    between atoms: C_48  and  C_50 
REMARK   13  A    between atoms: C_50  and  C_51 
REMARK   14  A    between atoms: C_60  and  C_61 
REMARK   15  A    between atoms: C_65  and  C_66 
REMARK   16  A    between atoms: C_72  and  C_73 
ROOT
HETATM    1  C   UNK N   1      29.846  13.685   3.028  0.00  0.00     0.176 C 
HETATM    2  C   UNK N   1      29.978  12.518   2.151  0.00  0.00     0.243 C 
HETATM    3  O   UNK N   1      31.061  12.329   1.628  0.00  0.00    -0.271 OA
HETATM    4  N   UNK N   1      29.118  11.469   2.361  0.00  0.00    -0.342 N 
HETATM    5  C   UNK N   1      29.500  10.408   3.281  0.00  0.00     0.175 C 
HETATM    6  C   UNK N   1      29.928   9.382   2.406  0.00  0.00     0.243 C 
HETATM    7  O   UNK N   1      30.682   9.703   1.501  0.00  0.00    -0.271 OA
HETATM    8  N   UNK N   1      29.230   8.232   2.373  0.00  0.00    -0.337 N 
HETATM    9  C   UNK N   1      28.898   7.825   1.040  0.00  0.00     0.182 C 
HETATM   10  C   UNK N   1      27.963   8.841   0.532  0.00  0.00     0.241 C 
HETATM   11  O   UNK N   1      28.141   9.481  -0.493  0.00  0.00    -0.271 OA
HETATM   12  N   UNK N   1      26.774   8.791   1.092  0.00  0.00    -0.346 N 
HETATM   13  C   UNK N   1      25.845   7.946   0.474  0.00  0.00     0.174 C 
HETATM   14  C   UNK N   1      24.998   8.834  -0.343  0.00  0.00     0.223 C 
HETATM   15  O   UNK N   1      25.163   8.937  -1.547  0.00  0.00    -0.277 OA
HETATM   16  N   UNK N   1      23.835   9.172   0.210  0.00  0.00    -0.242 NA
HETATM   17  C   UNK N   1      23.163   8.001   0.725  0.00  0.00     0.157 C 
HETATM   18  C   UNK N   1      21.840   8.312   1.191  0.00  0.00     0.236 C 
HETATM   19  O   UNK N   1      20.912   8.184   0.410  0.00  0.00    -0.272 OA
HETATM   20  N   UNK N   1      21.651   8.577   2.509  0.00  0.00    -0.347 N 
HETATM   21  C   UNK N   1      20.346   8.768   3.085  0.00  0.00     0.172 C 
HETATM   22  C   UNK N   1      19.655   9.879   2.383  0.00  0.00     0.240 C 
HETATM   23  O   UNK N   1      19.447   9.810   1.186  0.00  0.00    -0.271 OA
HETATM   24  N   UNK N   1      19.246  10.968   3.042  0.00  0.00    -0.346 N 
HETATM   25  C   UNK N   1      18.641  12.037   2.284  0.00  0.00     0.172 C 
HETATM   26  C   UNK N   1      19.664  12.531   1.289  0.00  0.00     0.242 C 
HETATM   27  O   UNK N   1      19.562  12.258   0.097  0.00  0.00    -0.271 OA
HETATM   28  N   UNK N   1      20.744  13.196   1.740  0.00  0.00    -0.341 N 
HETATM   29  C   UNK N   1      20.628  13.883   3.004  0.00  0.00     0.179 C 
HETATM   30  C   UNK N   1      20.895  13.087   4.252  0.00  0.00     0.243 C 
HETATM   31  O   UNK N   1      19.953  12.592   4.847  0.00  0.00    -0.271 OA
HETATM   32  N   UNK N   1      21.923  13.493   4.982  0.00  0.00    -0.341 N 
HETATM   33  C   UNK N   1      21.808  14.769   5.676  0.00  0.00     0.179 C 
HETATM   34  C   UNK N   1      22.860  15.696   5.372  0.00  0.00     0.243 C 
HETATM   35  O   UNK N   1      23.205  16.419   6.299  0.00  0.00    -0.271 OA
HETATM   36  N   UNK N   1      23.616  15.631   4.249  0.00  0.00    -0.341 N 
HETATM   37  C   UNK N   1      24.940  15.929   4.491  0.00  0.00     0.182 C 
HETATM   38  C   UNK N   1      25.432  14.785   5.417  0.00  0.00     0.243 C 
HETATM   39  O   UNK N   1      24.739  14.296   6.339  0.00  0.00    -0.271 OA
HETATM   40  N   UNK N   1      26.568  14.201   5.172  0.00  0.00    -0.339 N 
HETATM   41  C   UNK N   1      27.505  15.099   4.593  0.00  0.00     0.207 C 
HETATM   42  C   UNK N   1      27.816  14.850   3.242  0.00  0.00     0.243 C 
HETATM   43  O   UNK N   1      27.794  15.687   2.354  0.00  0.00    -0.271 OA
HETATM   44  N   UNK N   1      28.464  13.759   3.123  0.00  0.00    -0.346 N 
HETATM   45  C   UNK N   1      26.955  12.920   5.688  0.00  0.00     0.153 C 
HETATM   46  C   UNK N   1      23.353  14.835   3.079  0.00  0.00     0.153 C 
HETATM   47  C   UNK N   1      23.000  12.560   5.247  0.00  0.00     0.153 C 
HETATM   48  C   UNK N   1      21.871  13.461   0.879  0.00  0.00     0.153 C 
HETATM   49  C   UNK N   1      17.332  11.562   1.676  0.00  0.00     0.042 C 
HETATM   50  C   UNK N   1      19.525   7.501   2.928  0.00  0.00     0.042 C 
HETATM   51  C   UNK N   1      23.952  10.246   1.186  0.00  0.00     0.120 C 
HETATM   52  C   UNK N   1      30.656  10.627   4.221  0.00  0.00     0.042 C 
HETATM   53  C   UNK N   1      27.690  11.594   2.080  0.00  0.00     0.153 C 
HETATM   54  H   UNK N   1      26.552   9.312   1.896  0.00  0.00     0.163 HD
HETATM   55  H   UNK N   1      22.439   8.639   3.095  0.00  0.00     0.163 HD
HETATM   56  H   UNK N   1      19.354  11.038   4.018  0.00  0.00     0.163 HD
HETATM   57  H   UNK N   1      27.953  12.919   3.098  0.00  0.00     0.163 HD
ENDROOT
BRANCH  41  58
HETATM   58  C   UNK N   1      27.705  16.398   5.328  0.00  0.00     0.154 C 
BRANCH  58  59
HETATM   59  C   UNK N   1      29.033  16.946   5.030  0.00  0.00     0.016 C 
HETATM   60  C   UNK N   1      29.983  16.899   6.221  0.00  0.00     0.013 C 
BRANCH  59  61
HETATM   61  C   UNK N   1      28.861  18.328   4.420  0.00  0.00     0.033 C 
BRANCH  61  62
HETATM   62  C   UNK N   1      28.257  19.164   5.454  0.00  0.00    -0.031 C 
HETATM   63  C   UNK N   1      27.704  20.299   5.061  0.00  0.00    -0.035 C 
HETATM   64  C   UNK N   1      27.290  21.291   6.063  0.00  0.00     0.036 C 
ENDBRANCH  61  62
ENDBRANCH  59  61
ENDBRANCH  58  59
BRANCH  58  65
HETATM   65  O   UNK N   1      27.611  16.194   6.712  0.00  0.00    -0.393 OA
HETATM   66  H   UNK N   1      27.339  16.411   7.618  0.00  0.00     0.210 HD
ENDBRANCH  58  65
ENDBRANCH  41  58
BRANCH  37  67
HETATM   67  C   UNK N   1      25.252  17.462   4.534  0.00  0.00     0.009 C 
HETATM   68  C   UNK N   1      24.254  18.332   5.276  0.00  0.00     0.012 C 
HETATM   69  C   UNK N   1      25.491  18.040   3.144  0.00  0.00     0.012 C 
ENDBRANCH  37  67
BRANCH   1  70
HETATM   70  C   UNK N   1      30.262  13.338   4.476  0.00  0.00     0.030 C 
HETATM   71  C   UNK N   1      31.541  13.955   5.012  0.00  0.00     0.007 C 
ENDBRANCH   1  70
BRANCH  33  72
HETATM   72  C   UNK N   1      20.486  15.522   5.622  0.00  0.00     0.039 C 
BRANCH  72  73
HETATM   73  C   UNK N   1      19.920  15.892   7.008  0.00  0.00    -0.020 C 
HETATM   74  C   UNK N   1      20.312  14.941   8.130  0.00  0.00     0.009 C 
HETATM   75  C   UNK N   1      20.069  17.348   7.331  0.00  0.00     0.009 C 
ENDBRANCH  72  73
ENDBRANCH  33  72
BRANCH   8  76
HETATM   76  C   UNK N   1      28.273   7.973   3.456  0.00  0.00     0.122 C 
HETATM   77  C   UNK N   1      28.173   6.514   3.864  0.00  0.00     0.026 C 
ENDBRANCH   8  76
BRANCH  29  78
HETATM   78  C   UNK N   1      19.664  15.092   2.919  0.00  0.00     0.039 C 
BRANCH  78  79
HETATM   79  C   UNK N   1      19.983  16.446   2.233  0.00  0.00    -0.020 C 
HETATM   80  C   UNK N   1      19.913  16.517   0.734  0.00  0.00     0.009 C 
HETATM   81  C   UNK N   1      20.811  17.571   2.788  0.00  0.00     0.009 C 
ENDBRANCH  78  79
ENDBRANCH  29  78
BRANCH   9  82
HETATM   82  C   UNK N   1      29.909   7.187   0.094  0.00  0.00     0.009 C 
HETATM   83  C   UNK N   1      29.566   7.616  -1.301  0.00  0.00     0.012 C 
HETATM   84  C   UNK N   1      30.070   5.681   0.122  0.00  0.00     0.012 C 
ENDBRANCH   9  82
BRANCH  13  85
HETATM   85  C   UNK N   1      26.411   6.593  -0.031  0.00  0.00     0.009 C 
HETATM   86  C   UNK N   1      26.227   5.405   0.881  0.00  0.00     0.012 C 
HETATM   87  C   UNK N   1      26.105   6.270  -1.479  0.00  0.00     0.012 C 
ENDBRANCH  13  85
BRANCH  17  88
HETATM   88  C   UNK N   1      23.053   6.931  -0.385  0.00  0.00     0.033 C 
BRANCH  88  89
HETATM   89  C   UNK N   1      22.536   5.560   0.023  0.00  0.00    -0.021 C 
HETATM   90  C   UNK N   1      22.962   4.395  -0.860  0.00  0.00     0.009 C 
HETATM   91  C   UNK N   1      22.966   5.325   1.448  0.00  0.00     0.009 C 
ENDBRANCH  88  89
ENDBRANCH  17  88
TORSDOF 16
ENDMDL
MODEL 3
REMARK VINA RESULT:      -5.9      2.116      8.756
REMARK  16 active torsions:
REMARK  status: ('A' for Active; 'I' for Inactive)
REMARK    1  A    between atoms: C_3  and  C_2 
REMARK    2  A    between atoms: N_10  and  C_83 
REMARK    3  A    between atoms: C_11  and  C_80 
REMARK    4  A    between atoms: C_15  and  C_77 
REMARK    5  A    between atoms: C_19  and  C_72 
REMARK    6  A    between atoms: C_31  and  C_65 
REMARK    7  A    between atoms: C_35  and  C_60 
REMARK    8  A    between atoms: C_39  and  C_56 
REMARK    9  A    between atoms: C_43  and  C_47 
REMARK   10  A    between atoms: C_47  and  C_48 
REMARK   11  A    between atoms: C_47  and  O_54 
REMARK   12  A    between atoms: C_48  and  C_50 
REMARK   13  A    between atoms: C_50  and  C_51 
REMARK   14  A    between atoms: C_60  and  C_61 
REMARK   15  A    between atoms: C_65  and  C_66 
REMARK   16  A    between atoms: C_72  and  C_73 
ROOT
HETATM    1  C   UNK N   1      30.856  16.752   3.947  0.00  0.00     0.176 C 
HETATM    2  C   UNK N   1      31.654  15.906   3.055  0.00  0.00     0.243 C 
HETATM    3  O   UNK N   1      32.739  16.331   2.703  0.00  0.00    -0.271 OA
HETATM    4  N   UNK N   1      31.414  14.555   3.083  0.00  0.00    -0.342 N 
HETATM    5  C   UNK N   1      32.163  13.718   4.007  0.00  0.00     0.175 C 
HETATM    6  C   UNK N   1      33.145  13.138   3.169  0.00  0.00     0.243 C 
HETATM    7  O   UNK N   1      33.738  13.887   2.409  0.00  0.00    -0.271 OA
HETATM    8  N   UNK N   1      33.123  11.807   2.979  0.00  0.00    -0.337 N 
HETATM    9  C   UNK N   1      33.197  11.445   1.594  0.00  0.00     0.182 C 
HETATM   10  C   UNK N   1      31.946  11.927   0.986  0.00  0.00     0.241 C 
HETATM   11  O   UNK N   1      31.900  12.685   0.030  0.00  0.00    -0.271 OA
HETATM   12  N   UNK N   1      30.885  11.240   1.349  0.00  0.00    -0.346 N 
HETATM   13  C   UNK N   1      30.581  10.127   0.557  0.00  0.00     0.174 C 
HETATM   14  C   UNK N   1      29.506  10.577  -0.346  0.00  0.00     0.223 C 
HETATM   15  O   UNK N   1      29.737  10.883  -1.503  0.00  0.00    -0.277 OA
HETATM   16  N   UNK N   1      28.274  10.239   0.030  0.00  0.00    -0.242 NA
HETATM   17  C   UNK N   1      28.221   8.839   0.383  0.00  0.00     0.157 C 
HETATM   18  C   UNK N   1      26.875   8.410   0.646  0.00  0.00     0.236 C 
HETATM   19  O   UNK N   1      26.234   7.937  -0.277  0.00  0.00    -0.272 OA
HETATM   20  N   UNK N   1      26.427   8.396   1.927  0.00  0.00    -0.347 N 
HETATM   21  C   UNK N   1      25.144   7.859   2.296  0.00  0.00     0.172 C 
HETATM   22  C   UNK N   1      24.078   8.566   1.541  0.00  0.00     0.240 C 
HETATM   23  O   UNK N   1      24.074   8.541   0.324  0.00  0.00    -0.271 OA
HETATM   24  N   UNK N   1      23.106   9.233   2.171  0.00  0.00    -0.346 N 
HETATM   25  C   UNK N   1      22.142   9.951   1.371  0.00  0.00     0.172 C 
HETATM   26  C   UNK N   1      22.890  10.991   0.572  0.00  0.00     0.242 C 
HETATM   27  O   UNK N   1      23.079  10.841  -0.631  0.00  0.00    -0.271 OA
HETATM   28  N   UNK N   1      23.433  12.041   1.215  0.00  0.00    -0.341 N 
HETATM   29  C   UNK N   1      22.843  12.434   2.472  0.00  0.00     0.179 C 
HETATM   30  C   UNK N   1      23.324  11.733   3.713  0.00  0.00     0.243 C 
HETATM   31  O   UNK N   1      22.693  10.777   4.130  0.00  0.00    -0.271 OA
HETATM   32  N   UNK N   1      23.919  12.501   4.613  0.00  0.00    -0.341 N 
HETATM   33  C   UNK N   1      23.102  13.470   5.333  0.00  0.00     0.179 C 
HETATM   34  C   UNK N   1      23.579  14.820   5.238  0.00  0.00     0.243 C 
HETATM   35  O   UNK N   1      23.406  15.509   6.237  0.00  0.00    -0.271 OA
HETATM   36  N   UNK N   1      24.392  15.261   4.247  0.00  0.00    -0.341 N 
HETATM   37  C   UNK N   1      25.351  16.136   4.707  0.00  0.00     0.182 C 
HETATM   38  C   UNK N   1      26.236  15.280   5.652  0.00  0.00     0.243 C 
HETATM   39  O   UNK N   1      25.778  14.413   6.430  0.00  0.00    -0.271 OA
HETATM   40  N   UNK N   1      27.532  15.355   5.565  0.00  0.00    -0.339 N 
HETATM   41  C   UNK N   1      27.957  16.656   5.180  0.00  0.00     0.207 C 
HETATM   42  C   UNK N   1      28.506  16.746   3.886  0.00  0.00     0.243 C 
HETATM   43  O   UNK N   1      28.173  17.563   3.040  0.00  0.00    -0.271 OA
HETATM   44  N   UNK N   1      29.620  16.132   3.826  0.00  0.00    -0.346 N 
HETATM   45  C   UNK N   1      28.443  14.377   6.082  0.00  0.00     0.153 C 
HETATM   46  C   UNK N   1      24.699  14.578   3.018  0.00  0.00     0.153 C 
HETATM   47  C   UNK N   1      25.278  12.187   5.006  0.00  0.00     0.153 C 
HETATM   48  C   UNK N   1      24.370  12.918   0.556  0.00  0.00     0.153 C 
HETATM   49  C   UNK N   1      21.326   8.972   0.545  0.00  0.00     0.042 C 
HETATM   50  C   UNK N   1      25.089   6.381   1.959  0.00  0.00     0.042 C 
HETATM   51  C   UNK N   1      27.724  11.114   1.055  0.00  0.00     0.120 C 
HETATM   52  C   UNK N   1      32.937  14.363   5.126  0.00  0.00     0.042 C 
HETATM   53  C   UNK N   1      30.158  14.000   2.585  0.00  0.00     0.153 C 
HETATM   54  H   UNK N   1      30.341  11.491   2.128  0.00  0.00     0.163 HD
HETATM   55  H   UNK N   1      27.004   8.767   2.632  0.00  0.00     0.163 HD
HETATM   56  H   UNK N   1      23.050   9.235   3.154  0.00  0.00     0.163 HD
HETATM   57  H   UNK N   1      29.604  15.158   3.685  0.00  0.00     0.163 HD
ENDROOT
BRANCH  41  58
HETATM   58  C   UNK N   1      27.395  17.794   5.990  0.00  0.00     0.154 C 
BRANCH  58  59
HETATM   59  C   UNK N   1      28.386  18.869   6.103  0.00  0.00     0.016 C 
HETATM   60  C   UNK N   1      28.902  19.062   7.524  0.00  0.00     0.013 C 
BRANCH  59  61
HETATM   61  C   UNK N   1      27.811  20.127   5.470  0.00  0.00     0.033 C 
BRANCH  61  62
HETATM   62  C   UNK N   1      26.652  20.502   6.274  0.00  0.00    -0.031 C 
HETATM   63  C   UNK N   1      26.684  21.689   6.856  0.00  0.00    -0.035 C 
HETATM   64  C   UNK N   1      25.668  22.035   7.859  0.00  0.00     0.036 C 
ENDBRANCH  61  62
ENDBRANCH  59  61
ENDBRANCH  58  59
BRANCH  58  65
HETATM   65  O   UNK N   1      27.066  17.356   7.281  0.00  0.00    -0.393 OA
HETATM   66  H   UNK N   1      26.489  17.245   8.054  0.00  0.00     0.210 HD
ENDBRANCH  58  65
ENDBRANCH  41  58
BRANCH  37  67
HETATM   67  C   UNK N   1      24.850  17.610   4.863  0.00  0.00     0.009 C 
HETATM   68  C   UNK N   1      23.412  17.788   5.312  0.00  0.00     0.012 C 
HETATM   69  C   UNK N   1      25.092  18.436   3.604  0.00  0.00     0.012 C 
ENDBRANCH  37  67
BRANCH   1  70
HETATM   70  C   UNK N   1      31.217  16.488   5.428  0.00  0.00     0.030 C 
HETATM   71  C   UNK N   1      32.046  17.534   6.151  0.00  0.00     0.007 C 
ENDBRANCH   1  70
BRANCH  33  72
HETATM   72  C   UNK N   1      21.598  13.484   5.101  0.00  0.00     0.039 C 
BRANCH  72  73
HETATM   73  C   UNK N   1      20.766  13.277   6.382  0.00  0.00    -0.020 C 
HETATM   74  C   UNK N   1      21.374  12.306   7.385  0.00  0.00     0.009 C 
HETATM   75  C   UNK N   1      20.266  14.562   6.969  0.00  0.00     0.009 C 
ENDBRANCH  72  73
ENDBRANCH  33  72
BRANCH   8  76
HETATM   76  C   UNK N   1      32.304  10.991   3.885  0.00  0.00     0.122 C 
HETATM   77  C   UNK N   1      32.906   9.640   4.224  0.00  0.00     0.026 C 
ENDBRANCH   8  76
BRANCH  29  78
HETATM   78  C   UNK N   1      21.422  13.020   2.286  0.00  0.00     0.039 C 
BRANCH  78  79
HETATM   79  C   UNK N   1      21.083  14.315   1.501  0.00  0.00    -0.020 C 
HETATM   80  C   UNK N   1      21.435  15.636   2.123  0.00  0.00     0.009 C 
HETATM   81  C   UNK N   1      20.034  14.482   0.438  0.00  0.00     0.009 C 
ENDBRANCH  78  79
ENDBRANCH  29  78
BRANCH   9  82
HETATM   82  C   UNK N   1      34.494  11.493   0.794  0.00  0.00     0.009 C 
HETATM   83  C   UNK N   1      34.147  11.851  -0.620  0.00  0.00     0.012 C 
HETATM   84  C   UNK N   1      35.383  10.268   0.790  0.00  0.00     0.012 C 
ENDBRANCH   9  82
BRANCH  13  85
HETATM   85  C   UNK N   1      31.801   9.289   0.092  0.00  0.00     0.009 C 
HETATM   86  C   UNK N   1      32.139   8.076   0.924  0.00  0.00     0.012 C 
HETATM   87  C   UNK N   1      31.859   9.012  -1.396  0.00  0.00     0.012 C 
ENDBRANCH  13  85
BRANCH  17  88
HETATM   88  C   UNK N   1      28.790   7.986  -0.774  0.00  0.00     0.033 C 
BRANCH  88  89
HETATM   89  C   UNK N   1      29.288   6.591  -0.427  0.00  0.00    -0.021 C 
HETATM   90  C   UNK N   1      29.101   6.155   1.019  0.00  0.00     0.009 C 
HETATM   91  C   UNK N   1      28.603   5.627  -1.360  0.00  0.00     0.009 C 
ENDBRANCH  88  89
ENDBRANCH  17  88
TORSDOF 16
ENDMDL
MODEL 4
REMARK VINA RESULT:      -5.8      6.521     13.285
REMARK  16 active torsions:
REMARK  status: ('A' for Active; 'I' for Inactive)
REMARK    1  A    between atoms: C_3  and  C_2 
REMARK    2  A    between atoms: N_10  and  C_83 
REMARK    3  A    between atoms: C_11  and  C_80 
REMARK    4  A    between atoms: C_15  and  C_77 
REMARK    5  A    between atoms: C_19  and  C_72 
REMARK    6  A    between atoms: C_31  and  C_65 
REMARK    7  A    between atoms: C_35  and  C_60 
REMARK    8  A    between atoms: C_39  and  C_56 
REMARK    9  A    between atoms: C_43  and  C_47 
REMARK   10  A    between atoms: C_47  and  C_48 
REMARK   11  A    between atoms: C_47  and  O_54 
REMARK   12  A    between atoms: C_48  and  C_50 
REMARK   13  A    between atoms: C_50  and  C_51 
REMARK   14  A    between atoms: C_60  and  C_61 
REMARK   15  A    between atoms: C_65  and  C_66 
REMARK   16  A    between atoms: C_72  and  C_73 
ROOT
HETATM    1  C   UNK N   1      36.607  14.120   8.409  0.00  0.00     0.176 C 
HETATM    2  C   UNK N   1      38.008  13.690   8.444  0.00  0.00     0.243 C 
HETATM    3  O   UNK N   1      38.681  14.050   9.393  0.00  0.00    -0.271 OA
HETATM    4  N   UNK N   1      38.337  12.550   7.753  0.00  0.00    -0.342 N 
HETATM    5  C   UNK N   1      38.269  11.264   8.430  0.00  0.00     0.175 C 
HETATM    6  C   UNK N   1      39.626  11.008   8.740  0.00  0.00     0.243 C 
HETATM    7  O   UNK N   1      40.264  11.922   9.236  0.00  0.00    -0.271 OA
HETATM    8  N   UNK N   1      40.230   9.955   8.161  0.00  0.00    -0.337 N 
HETATM    9  C   UNK N   1      41.492  10.295   7.573  0.00  0.00     0.182 C 
HETATM   10  C   UNK N   1      41.183  11.204   6.458  0.00  0.00     0.241 C 
HETATM   11  O   UNK N   1      41.654  12.325   6.340  0.00  0.00    -0.271 OA
HETATM   12  N   UNK N   1      40.606  10.609   5.438  0.00  0.00    -0.346 N 
HETATM   13  C   UNK N   1      41.470  10.078   4.474  0.00  0.00     0.174 C 
HETATM   14  C   UNK N   1      41.494  11.073   3.386  0.00  0.00     0.223 C 
HETATM   15  O   UNK N   1      42.421  11.856   3.263  0.00  0.00    -0.277 OA
HETATM   16  N   UNK N   1      40.700  10.801   2.353  0.00  0.00    -0.242 NA
HETATM   17  C   UNK N   1      40.881   9.432   1.925  0.00  0.00     0.157 C 
HETATM   18  C   UNK N   1      40.151   9.154   0.720  0.00  0.00     0.236 C 
HETATM   19  O   UNK N   1      40.728   9.292  -0.345  0.00  0.00    -0.272 OA
HETATM   20  N   UNK N   1      38.915   8.599   0.811  0.00  0.00    -0.347 N 
HETATM   21  C   UNK N   1      38.169   8.166  -0.341  0.00  0.00     0.172 C 
HETATM   22  C   UNK N   1      37.991   9.310  -1.271  0.00  0.00     0.240 C 
HETATM   23  O   UNK N   1      38.964   9.873  -1.739  0.00  0.00    -0.271 OA
HETATM   24  N   UNK N   1      36.774   9.740  -1.618  0.00  0.00    -0.346 N 
HETATM   25  C   UNK N   1      36.678  10.898  -2.475  0.00  0.00     0.172 C 
HETATM   26  C   UNK N   1      37.323  12.057  -1.754  0.00  0.00     0.242 C 
HETATM   27  O   UNK N   1      38.424  12.476  -2.098  0.00  0.00    -0.271 OA
HETATM   28  N   UNK N   1      36.717  12.567  -0.665  0.00  0.00    -0.341 N 
HETATM   29  C   UNK N   1      35.288  12.397  -0.554  0.00  0.00     0.179 C 
HETATM   30  C   UNK N   1      34.788  11.120   0.062  0.00  0.00     0.243 C 
HETATM   31  O   UNK N   1      34.475  10.197  -0.671  0.00  0.00    -0.271 OA
HETATM   32  N   UNK N   1      34.102  11.255   1.188  0.00  0.00    -0.341 N 
HETATM   33  C   UNK N   1      32.786  11.876   1.117  0.00  0.00     0.179 C 
HETATM   34  C   UNK N   1      32.629  13.009   1.983  0.00  0.00     0.243 C 
HETATM   35  O   UNK N   1      31.510  13.151   2.462  0.00  0.00    -0.271 OA
HETATM   36  N   UNK N   1      33.666  13.734   2.467  0.00  0.00    -0.341 N 
HETATM   37  C   UNK N   1      33.475  14.113   3.778  0.00  0.00     0.182 C 
HETATM   38  C   UNK N   1      33.465  12.778   4.570  0.00  0.00     0.243 C 
HETATM   39  O   UNK N   1      32.920  11.731   4.152  0.00  0.00    -0.271 OA
HETATM   40  N   UNK N   1      34.153  12.675   5.669  0.00  0.00    -0.339 N 
HETATM   41  C   UNK N   1      34.217  13.913   6.365  0.00  0.00     0.207 C 
HETATM   42  C   UNK N   1      35.486  14.524   6.382  0.00  0.00     0.243 C 
HETATM   43  O   UNK N   1      35.707  15.687   6.083  0.00  0.00    -0.271 OA
HETATM   44  N   UNK N   1      36.304  13.843   7.083  0.00  0.00    -0.346 N 
HETATM   45  C   UNK N   1      34.538  11.437   6.278  0.00  0.00     0.153 C 
HETATM   46  C   UNK N   1      35.034  13.685   2.019  0.00  0.00     0.153 C 
HETATM   47  C   UNK N   1      34.577  10.576   2.377  0.00  0.00     0.153 C 
HETATM   48  C   UNK N   1      37.402  13.489   0.209  0.00  0.00     0.153 C 
HETATM   49  C   UNK N   1      37.268  10.582  -3.838  0.00  0.00     0.042 C 
HETATM   50  C   UNK N   1      38.925   7.062  -1.057  0.00  0.00     0.042 C 
HETATM   51  C   UNK N   1      39.307  11.152   2.589  0.00  0.00     0.120 C 
HETATM   52  C   UNK N   1      37.542  11.158   9.744  0.00  0.00     0.042 C 
HETATM   53  C   UNK N   1      38.300  12.513   6.294  0.00  0.00     0.153 C 
HETATM   54  H   UNK N   1      39.628  10.540   5.357  0.00  0.00     0.163 HD
HETATM   55  H   UNK N   1      38.514   8.487   1.702  0.00  0.00     0.163 HD
HETATM   56  H   UNK N   1      35.966   9.279  -1.298  0.00  0.00     0.163 HD
HETATM   57  H   UNK N   1      36.747  13.073   6.659  0.00  0.00     0.163 HD
ENDROOT
BRANCH  41  58
HETATM   58  C   UNK N   1      32.898  14.597   6.606  0.00  0.00     0.154 C 
BRANCH  58  59
HETATM   59  C   UNK N   1      33.043  15.618   7.649  0.00  0.00     0.016 C 
HETATM   60  C   UNK N   1      32.419  15.211   8.979  0.00  0.00     0.013 C 
BRANCH  59  61
HETATM   61  C   UNK N   1      32.540  16.944   7.102  0.00  0.00     0.033 C 
BRANCH  61  62
HETATM   62  C   UNK N   1      31.198  17.134   7.646  0.00  0.00    -0.031 C 
HETATM   63  C   UNK N   1      30.201  17.187   6.779  0.00  0.00    -0.035 C 
HETATM   64  C   UNK N   1      28.867  17.606   7.229  0.00  0.00     0.036 C 
ENDBRANCH  61  62
ENDBRANCH  59  61
ENDBRANCH  58  59
BRANCH  58  65
HETATM   65  O   UNK N   1      31.938  13.665   7.029  0.00  0.00    -0.393 OA
HETATM   66  H   UNK N   1      31.246  13.316   7.614  0.00  0.00     0.210 HD
ENDBRANCH  58  65
ENDBRANCH  41  58
BRANCH  37  67
HETATM   67  C   UNK N   1      32.588  15.390   3.951  0.00  0.00     0.009 C 
HETATM   68  C   UNK N   1      31.089  15.193   3.812  0.00  0.00     0.012 C 
HETATM   69  C   UNK N   1      33.034  16.528   3.039  0.00  0.00     0.012 C 
ENDBRANCH  37  67
BRANCH   1  70
HETATM   70  C   UNK N   1      35.704  13.124   9.172  0.00  0.00     0.030 C 
HETATM   71  C   UNK N   1      35.144  13.562  10.513  0.00  0.00     0.007 C 
ENDBRANCH   1  70
BRANCH  33  72
HETATM   72  C   UNK N   1      32.215  12.243  -0.247  0.00  0.00     0.039 C 
BRANCH  72  73
HETATM   73  C   UNK N   1      30.990  11.402  -0.657  0.00  0.00    -0.020 C 
HETATM   74  C   UNK N   1      31.075   9.928  -0.284  0.00  0.00     0.009 C 
HETATM   75  C   UNK N   1      29.688  12.065  -0.323  0.00  0.00     0.009 C 
ENDBRANCH  72  73
ENDBRANCH  33  72
BRANCH   8  76
HETATM   76  C   UNK N   1      39.386   8.948   7.502  0.00  0.00     0.122 C 
HETATM   77  C   UNK N   1      39.889   7.523   7.645  0.00  0.00     0.026 C 
ENDBRANCH   8  76
BRANCH  29  78
HETATM   78  C   UNK N   1      34.523  13.222  -1.618  0.00  0.00     0.039 C 
BRANCH  78  79
HETATM   79  C   UNK N   1      34.348  12.821  -3.107  0.00  0.00    -0.020 C 
HETATM   80  C   UNK N   1      34.937  13.717  -4.158  0.00  0.00     0.009 C 
HETATM   81  C   UNK N   1      33.280  11.937  -3.687  0.00  0.00     0.009 C 
ENDBRANCH  78  79
ENDBRANCH  29  78
BRANCH   9  82
HETATM   82  C   UNK N   1      42.757  10.512   8.397  0.00  0.00     0.009 C 
HETATM   83  C   UNK N   1      43.577  11.563   7.710  0.00  0.00     0.012 C 
HETATM   84  C   UNK N   1      43.635   9.315   8.695  0.00  0.00     0.012 C 
ENDBRANCH   9  82
BRANCH  13  85
HETATM   85  C   UNK N   1      42.739   9.382   5.032  0.00  0.00     0.009 C 
HETATM   86  C   UNK N   1      42.673   7.882   5.178  0.00  0.00     0.012 C 
HETATM   87  C   UNK N   1      44.047   9.853   4.428  0.00  0.00     0.012 C 
ENDBRANCH  13  85
BRANCH  17  88
HETATM   88  C   UNK N   1      42.380   9.160   1.664  0.00  0.00     0.033 C 
BRANCH  88  89
HETATM   89  C   UNK N   1      42.839   7.710   1.705  0.00  0.00    -0.021 C 
HETATM   90  C   UNK N   1      41.748   6.670   1.915  0.00  0.00     0.009 C 
HETATM   91  C   UNK N   1      43.582   7.441   0.422  0.00  0.00     0.009 C 
ENDBRANCH  88  89
ENDBRANCH  17  88
TORSDOF 16
ENDMDL
MODEL 5
REMARK VINA RESULT:      -5.8      2.028      3.880
REMARK  16 active torsions:
REMARK  status: ('A' for Active; 'I' for Inactive)
REMARK    1  A    between atoms: C_3  and  C_2 
REMARK    2  A    between atoms: N_10  and  C_83 
REMARK    3  A    between atoms: C_11  and  C_80 
REMARK    4  A    between atoms: C_15  and  C_77 
REMARK    5  A    between atoms: C_19  and  C_72 
REMARK    6  A    between atoms: C_31  and  C_65 
REMARK    7  A    between atoms: C_35  and  C_60 
REMARK    8  A    between atoms: C_39  and  C_56 
REMARK    9  A    between atoms: C_43  and  C_47 
REMARK   10  A    between atoms: C_47  and  C_48 
REMARK   11  A    between atoms: C_47  and  O_54 
REMARK   12  A    between atoms: C_48  and  C_50 
REMARK   13  A    between atoms: C_50  and  C_51 
REMARK   14  A    between atoms: C_60  and  C_61 
REMARK   15  A    between atoms: C_65  and  C_66 
REMARK   16  A    between atoms: C_72  and  C_73 
ROOT
HETATM    1  C   UNK N   1      28.890  16.184   5.645  0.00  0.00     0.176 C 
HETATM    2  C   UNK N   1      27.519  15.889   6.075  0.00  0.00     0.243 C 
HETATM    3  O   UNK N   1      26.969  16.705   6.791  0.00  0.00    -0.271 OA
HETATM    4  N   UNK N   1      26.776  15.048   5.285  0.00  0.00    -0.342 N 
HETATM    5  C   UNK N   1      25.968  15.608   4.212  0.00  0.00     0.175 C 
HETATM    6  C   UNK N   1      24.669  15.605   4.773  0.00  0.00     0.243 C 
HETATM    7  O   UNK N   1      24.554  16.037   5.909  0.00  0.00    -0.271 OA
HETATM    8  N   UNK N   1      23.728  14.823   4.214  0.00  0.00    -0.337 N 
HETATM    9  C   UNK N   1      23.035  14.018   5.175  0.00  0.00     0.182 C 
HETATM   10  C   UNK N   1      24.033  13.076   5.705  0.00  0.00     0.241 C 
HETATM   11  O   UNK N   1      24.302  12.962   6.891  0.00  0.00    -0.271 OA
HETATM   12  N   UNK N   1      24.392  12.150   4.844  0.00  0.00    -0.346 N 
HETATM   13  C   UNK N   1      23.617  10.985   4.845  0.00  0.00     0.174 C 
HETATM   14  C   UNK N   1      24.390  10.008   5.634  0.00  0.00     0.223 C 
HETATM   15  O   UNK N   1      24.107   9.764   6.795  0.00  0.00    -0.277 OA
HETATM   16  N   UNK N   1      25.105   9.142   4.918  0.00  0.00    -0.242 NA
HETATM   17  C   UNK N   1      24.295   8.567   3.868  0.00  0.00     0.157 C 
HETATM   18  C   UNK N   1      24.993   7.520   3.175  0.00  0.00     0.236 C 
HETATM   19  O   UNK N   1      24.842   6.375   3.564  0.00  0.00    -0.272 OA
HETATM   20  N   UNK N   1      25.657   7.817   2.028  0.00  0.00    -0.347 N 
HETATM   21  C   UNK N   1      26.271   6.812   1.201  0.00  0.00     0.172 C 
HETATM   22  C   UNK N   1      27.253   6.043   2.007  0.00  0.00     0.240 C 
HETATM   23  O   UNK N   1      26.888   5.435   2.996  0.00  0.00    -0.271 OA
HETATM   24  N   UNK N   1      28.544   5.995   1.666  0.00  0.00    -0.346 N 
HETATM   25  C   UNK N   1      29.453   5.283   2.533  0.00  0.00     0.172 C 
HETATM   26  C   UNK N   1      29.419   5.953   3.886  0.00  0.00     0.242 C 
HETATM   27  O   UNK N   1      28.843   5.426   4.833  0.00  0.00    -0.271 OA
HETATM   28  N   UNK N   1      29.947   7.185   4.017  0.00  0.00    -0.341 N 
HETATM   29  C   UNK N   1      30.975   7.575   3.082  0.00  0.00     0.179 C 
HETATM   30  C   UNK N   1      30.532   8.166   1.772  0.00  0.00     0.243 C 
HETATM   31  O   UNK N   1      30.434   7.436   0.801  0.00  0.00    -0.271 OA
HETATM   32  N   UNK N   1      30.908   9.417   1.550  0.00  0.00    -0.341 N 
HETATM   33  C   UNK N   1      32.324   9.676   1.326  0.00  0.00     0.179 C 
HETATM   34  C   UNK N   1      32.887  10.653   2.214  0.00  0.00     0.243 C 
HETATM   35  O   UNK N   1      33.758  11.364   1.727  0.00  0.00    -0.271 OA
HETATM   36  N   UNK N   1      32.349  10.972   3.416  0.00  0.00    -0.341 N 
HETATM   37  C   UNK N   1      32.423  12.322   3.681  0.00  0.00     0.182 C 
HETATM   38  C   UNK N   1      31.516  12.979   2.605  0.00  0.00     0.243 C 
HETATM   39  O   UNK N   1      31.465  12.593   1.415  0.00  0.00    -0.271 OA
HETATM   40  N   UNK N   1      30.664  13.898   2.955  0.00  0.00    -0.339 N 
HETATM   41  C   UNK N   1      31.144  14.671   4.046  0.00  0.00     0.207 C 
HETATM   42  C   UNK N   1      30.461  14.477   5.262  0.00  0.00     0.243 C 
HETATM   43  O   UNK N   1      30.995  14.243   6.335  0.00  0.00    -0.271 OA
HETATM   44  N   UNK N   1      29.272  14.931   5.187  0.00  0.00    -0.346 N 
HETATM   45  C   UNK N   1      29.533  14.302   2.172  0.00  0.00     0.153 C 
HETATM   46  C   UNK N   1      31.324  10.247   4.120  0.00  0.00     0.153 C 
HETATM   47  C   UNK N   1      29.888  10.417   1.307  0.00  0.00     0.153 C 
HETATM   48  C   UNK N   1      29.715   7.975   5.202  0.00  0.00     0.153 C 
HETATM   49  C   UNK N   1      29.106   3.804   2.541  0.00  0.00     0.042 C 
HETATM   50  C   UNK N   1      25.211   5.860   0.679  0.00  0.00     0.042 C 
HETATM   51  C   UNK N   1      26.365   9.692   4.440  0.00  0.00     0.120 C 
HETATM   52  C   UNK N   1      26.202  17.030   3.776  0.00  0.00     0.042 C 
HETATM   53  C   UNK N   1      27.108  13.630   5.168  0.00  0.00     0.153 C 
HETATM   54  H   UNK N   1      25.156  12.268   4.236  0.00  0.00     0.163 HD
HETATM   55  H   UNK N   1      25.720   8.759   1.751  0.00  0.00     0.163 HD
HETATM   56  H   UNK N   1      28.867   6.435   0.847  0.00  0.00     0.163 HD
HETATM   57  H   UNK N   1      28.584  14.358   4.779  0.00  0.00     0.163 HD
ENDROOT
BRANCH  41  58
HETATM   58  C   UNK N   1      32.529  15.241   3.884  0.00  0.00     0.154 C 
BRANCH  58  59
HETATM   59  C   UNK N   1      32.695  16.414   4.748  0.00  0.00     0.016 C 
HETATM   60  C   UNK N   1      32.606  17.734   3.992  0.00  0.00     0.013 C 
BRANCH  59  61
HETATM   61  C   UNK N   1      33.969  16.242   5.560  0.00  0.00     0.033 C 
BRANCH  61  62
HETATM   62  C   UNK N   1      33.873  17.170   6.683  0.00  0.00    -0.031 C 
HETATM   63  C   UNK N   1      32.827  17.039   7.482  0.00  0.00    -0.035 C 
HETATM   64  C   UNK N   1      32.543  18.074   8.484  0.00  0.00     0.036 C 
ENDBRANCH  61  62
ENDBRANCH  59  61
ENDBRANCH  58  59
BRANCH  58  65
HETATM   65  O   UNK N   1      32.740  15.636   2.555  0.00  0.00    -0.393 OA
HETATM   66  H   UNK N   1      32.477  15.970   1.682  0.00  0.00     0.210 HD
ENDBRANCH  58  65
ENDBRANCH  41  58
BRANCH  37  67
HETATM   67  C   UNK N   1      33.804  12.787   4.249  0.00  0.00     0.009 C 
HETATM   68  C   UNK N   1      34.892  13.069   3.228  0.00  0.00     0.012 C 
HETATM   69  C   UNK N   1      34.341  11.832   5.309  0.00  0.00     0.012 C 
ENDBRANCH  37  67
BRANCH   1  70
HETATM   70  C   UNK N   1      28.893  17.027   4.349  0.00  0.00     0.030 C 
HETATM   71  C   UNK N   1      29.056  18.531   4.485  0.00  0.00     0.007 C 
ENDBRANCH   1  70
BRANCH  33  72
HETATM   72  C   UNK N   1      33.287   8.499   1.248  0.00  0.00     0.039 C 
BRANCH  72  73
HETATM   73  C   UNK N   1      33.744   8.159  -0.184  0.00  0.00    -0.020 C 
HETATM   74  C   UNK N   1      33.656   6.682  -0.546  0.00  0.00     0.009 C 
HETATM   75  C   UNK N   1      33.190   9.097  -1.213  0.00  0.00     0.009 C 
ENDBRANCH  72  73
ENDBRANCH  33  72
BRANCH   8  76
HETATM   76  C   UNK N   1      23.993  14.268   2.880  0.00  0.00     0.122 C 
HETATM   77  C   UNK N   1      22.776  14.212   1.975  0.00  0.00     0.026 C 
ENDBRANCH   8  76
BRANCH  29  78
HETATM   78  C   UNK N   1      32.281   6.770   3.289  0.00  0.00     0.039 C 
BRANCH  78  79
HETATM   79  C   UNK N   1      33.209   6.871   4.528  0.00  0.00    -0.020 C 
HETATM   80  C   UNK N   1      32.893   6.018   5.724  0.00  0.00     0.009 C 
HETATM   81  C   UNK N   1      34.092   8.026   4.908  0.00  0.00     0.009 C 
ENDBRANCH  78  79
ENDBRANCH  29  78
BRANCH   9  82
HETATM   82  C   UNK N   1      21.958  14.578   6.099  0.00  0.00     0.009 C 
HETATM   83  C   UNK N   1      22.019  13.815   7.389  0.00  0.00     0.012 C 
HETATM   84  C   UNK N   1      20.526  14.599   5.605  0.00  0.00     0.012 C 
ENDBRANCH   9  82
BRANCH  13  85
HETATM   85  C   UNK N   1      22.090  11.203   5.004  0.00  0.00     0.009 C 
HETATM   86  C   UNK N   1      21.282  11.254   3.730  0.00  0.00     0.012 C 
HETATM   87  C   UNK N   1      21.430  10.365   6.080  0.00  0.00     0.012 C 
ENDBRANCH  13  85
BRANCH  17  88
HETATM   88  C   UNK N   1      23.000   7.978   4.469  0.00  0.00     0.033 C 
BRANCH  88  89
HETATM   89  C   UNK N   1      21.818   7.796   3.529  0.00  0.00    -0.021 C 
HETATM   90  C   UNK N   1      22.067   8.146   2.068  0.00  0.00     0.009 C 
HETATM   91  C   UNK N   1      21.360   6.367   3.656  0.00  0.00     0.009 C 
ENDBRANCH  88  89
ENDBRANCH  17  88
TORSDOF 16
ENDMDL
MODEL 6
REMARK VINA RESULT:      -5.7      8.021     12.854
REMARK  16 active torsions:
REMARK  status: ('A' for Active; 'I' for Inactive)
REMARK    1  A    between atoms: C_3  and  C_2 
REMARK    2  A    between atoms: N_10  and  C_83 
REMARK    3  A    between atoms: C_11  and  C_80 
REMARK    4  A    between atoms: C_15  and  C_77 
REMARK    5  A    between atoms: C_19  and  C_72 
REMARK    6  A    between atoms: C_31  and  C_65 
REMARK    7  A    between atoms: C_35  and  C_60 
REMARK    8  A    between atoms: C_39  and  C_56 
REMARK    9  A    between atoms: C_43  and  C_47 
REMARK   10  A    between atoms: C_47  and  C_48 
REMARK   11  A    between atoms: C_47  and  O_54 
REMARK   12  A    between atoms: C_48  and  C_50 
REMARK   13  A    between atoms: C_50  and  C_51 
REMARK   14  A    between atoms: C_60  and  C_61 
REMARK   15  A    between atoms: C_65  and  C_66 
REMARK   16  A    between atoms: C_72  and  C_73 
ROOT
HETATM    1  C   UNK N   1      34.618  13.686  11.320  0.00  0.00     0.176 C 
HETATM    2  C   UNK N   1      33.979  13.574  10.005  0.00  0.00     0.243 C 
HETATM    3  O   UNK N   1      33.337  14.530   9.610  0.00  0.00    -0.271 OA
HETATM    4  N   UNK N   1      34.526  12.689   9.110  0.00  0.00    -0.342 N 
HETATM    5  C   UNK N   1      35.564  13.148   8.199  0.00  0.00     0.175 C 
HETATM    6  C   UNK N   1      34.850  13.336   6.991  0.00  0.00     0.243 C 
HETATM    7  O   UNK N   1      33.792  13.939   7.061  0.00  0.00    -0.271 OA
HETATM    8  N   UNK N   1      35.156  12.560   5.936  0.00  0.00    -0.337 N 
HETATM    9  C   UNK N   1      34.000  11.967   5.332  0.00  0.00     0.182 C 
HETATM   10  C   UNK N   1      33.458  11.035   6.333  0.00  0.00     0.241 C 
HETATM   11  O   UNK N   1      32.312  11.077   6.754  0.00  0.00    -0.271 OA
HETATM   12  N   UNK N   1      34.199   9.964   6.512  0.00  0.00    -0.346 N 
HETATM   13  C   UNK N   1      33.916   8.881   5.673  0.00  0.00     0.174 C 
HETATM   14  C   UNK N   1      33.087   7.971   6.484  0.00  0.00     0.223 C 
HETATM   15  O   UNK N   1      31.875   7.927   6.349  0.00  0.00    -0.277 OA
HETATM   16  N   UNK N   1      33.741   6.953   7.039  0.00  0.00    -0.242 NA
HETATM   17  C   UNK N   1      34.577   6.297   6.059  0.00  0.00     0.157 C 
HETATM   18  C   UNK N   1      35.178   5.105   6.589  0.00  0.00     0.236 C 
HETATM   19  O   UNK N   1      34.596   4.046   6.422  0.00  0.00    -0.272 OA
HETATM   20  N   UNK N   1      36.431   5.172   7.107  0.00  0.00    -0.347 N 
HETATM   21  C   UNK N   1      37.158   4.007   7.537  0.00  0.00     0.172 C 
HETATM   22  C   UNK N   1      36.372   3.288   8.571  0.00  0.00     0.240 C 
HETATM   23  O   UNK N   1      35.260   2.866   8.308  0.00  0.00    -0.271 OA
HETATM   24  N   UNK N   1      36.860   3.084   9.798  0.00  0.00    -0.346 N 
HETATM   25  C   UNK N   1      36.012   2.436  10.771  0.00  0.00     0.172 C 
HETATM   26  C   UNK N   1      34.790   3.300  10.964  0.00  0.00     0.242 C 
HETATM   27  O   UNK N   1      33.706   2.969  10.492  0.00  0.00    -0.271 OA
HETATM   28  N   UNK N   1      34.922   4.489  11.580  0.00  0.00    -0.341 N 
HETATM   29  C   UNK N   1      36.029   4.650  12.493  0.00  0.00     0.179 C 
HETATM   30  C   UNK N   1      37.350   5.074  11.913  0.00  0.00     0.243 C 
HETATM   31  O   UNK N   1      38.173   4.219  11.637  0.00  0.00    -0.271 OA
HETATM   32  N   UNK N   1      37.812   6.243  12.332  0.00  0.00    -0.341 N 
HETATM   33  C   UNK N   1      38.251   6.348  13.717  0.00  0.00     0.179 C 
HETATM   34  C   UNK N   1      37.607   7.395  14.456  0.00  0.00     0.243 C 
HETATM   35  O   UNK N   1      38.306   7.952  15.295  0.00  0.00    -0.271 OA
HETATM   36  N   UNK N   1      36.413   7.934  14.109  0.00  0.00    -0.341 N 
HETATM   37  C   UNK N   1      36.376   9.297  14.303  0.00  0.00     0.182 C 
HETATM   38  C   UNK N   1      37.419   9.859  13.300  0.00  0.00     0.243 C 
HETATM   39  O   UNK N   1      38.517   9.306  13.062  0.00  0.00    -0.271 OA
HETATM   40  N   UNK N   1      37.115  10.887  12.562  0.00  0.00    -0.339 N 
HETATM   41  C   UNK N   1      36.229  11.771  13.235  0.00  0.00     0.207 C 
HETATM   42  C   UNK N   1      34.921  11.818  12.714  0.00  0.00     0.243 C 
HETATM   43  O   UNK N   1      33.900  11.702  13.374  0.00  0.00    -0.271 OA
HETATM   44  N   UNK N   1      34.917  12.352  11.557  0.00  0.00    -0.346 N 
HETATM   45  C   UNK N   1      37.804  11.263  11.363  0.00  0.00     0.153 C 
HETATM   46  C   UNK N   1      35.479   7.409  13.147  0.00  0.00     0.153 C 
HETATM   47  C   UNK N   1      38.080   7.277  11.353  0.00  0.00     0.153 C 
HETATM   48  C   UNK N   1      33.858   5.463  11.563  0.00  0.00     0.153 C 
HETATM   49  C   UNK N   1      35.727   1.008  10.336  0.00  0.00     0.042 C 
HETATM   50  C   UNK N   1      37.387   3.080   6.358  0.00  0.00     0.042 C 
HETATM   51  C   UNK N   1      34.454   7.319   8.253  0.00  0.00     0.120 C 
HETATM   52  C   UNK N   1      36.245  14.465   8.460  0.00  0.00     0.042 C 
HETATM   53  C   UNK N   1      34.458  11.247   9.334  0.00  0.00     0.153 C 
HETATM   54  H   UNK N   1      34.910   9.928   7.191  0.00  0.00     0.163 HD
HETATM   55  H   UNK N   1      36.859   6.053   7.190  0.00  0.00     0.163 HD
HETATM   56  H   UNK N   1      37.773   3.368  10.032  0.00  0.00     0.163 HD
HETATM   57  H   UNK N   1      35.139  11.784  10.785  0.00  0.00     0.163 HD
ENDROOT
BRANCH  41  58
HETATM   58  C   UNK N   1      36.652  12.194  14.617  0.00  0.00     0.154 C 
BRANCH  58  59
HETATM   59  C   UNK N   1      35.967  13.435  14.996  0.00  0.00     0.016 C 
HETATM   60  C   UNK N   1      36.918  14.519  15.490  0.00  0.00     0.013 C 
BRANCH  59  61
HETATM   61  C   UNK N   1      34.848  13.094  15.967  0.00  0.00     0.033 C 
BRANCH  61  62
HETATM   62  C   UNK N   1      35.393  13.284  17.308  0.00  0.00    -0.031 C 
HETATM   63  C   UNK N   1      35.120  12.351  18.205  0.00  0.00    -0.035 C 
HETATM   64  C   UNK N   1      35.433  12.588  19.620  0.00  0.00     0.036 C 
ENDBRANCH  61  62
ENDBRANCH  59  61
ENDBRANCH  58  59
BRANCH  58  65
HETATM   65  O   UNK N   1      38.035  12.422  14.654  0.00  0.00    -0.393 OA
HETATM   66  H   UNK N   1      38.967  12.173  14.761  0.00  0.00     0.210 HD
ENDBRANCH  58  65
ENDBRANCH  41  58
BRANCH  37  67
HETATM   67  C   UNK N   1      36.067   9.726  15.775  0.00  0.00     0.009 C 
HETATM   68  C   UNK N   1      37.226   9.660  16.753  0.00  0.00     0.012 C 
HETATM   69  C   UNK N   1      34.874   8.973  16.355  0.00  0.00     0.012 C 
ENDBRANCH  37  67
BRANCH   1  70
HETATM   70  C   UNK N   1      36.022  14.325  11.198  0.00  0.00     0.030 C 
HETATM   71  C   UNK N   1      36.269  15.633  11.929  0.00  0.00     0.007 C 
ENDBRANCH   1  70
BRANCH  33  72
HETATM   72  C   UNK N   1      38.262   5.097  14.585  0.00  0.00     0.039 C 
BRANCH  72  73
HETATM   73  C   UNK N   1      39.673   4.632  14.996  0.00  0.00    -0.020 C 
HETATM   74  C   UNK N   1      40.808   5.268  14.204  0.00  0.00     0.009 C 
HETATM   75  C   UNK N   1      39.873   4.611  16.481  0.00  0.00     0.009 C 
ENDBRANCH  72  73
ENDBRANCH  33  72
BRANCH   8  76
HETATM   76  C   UNK N   1      36.408  11.793   5.981  0.00  0.00     0.122 C 
HETATM   77  C   UNK N   1      37.122  11.686   4.645  0.00  0.00     0.026 C 
ENDBRANCH   8  76
BRANCH  29  78
HETATM   78  C   UNK N   1      35.863   3.779  13.762  0.00  0.00     0.039 C 
BRANCH  78  79
HETATM   79  C   UNK N   1      34.840   4.039  14.900  0.00  0.00    -0.020 C 
HETATM   80  C   UNK N   1      33.425   3.574  14.703  0.00  0.00     0.009 C 
HETATM   81  C   UNK N   1      34.917   5.096  15.965  0.00  0.00     0.009 C 
ENDBRANCH  78  79
ENDBRANCH  29  78
BRANCH   9  82
HETATM   82  C   UNK N   1      33.049  12.745   4.428  0.00  0.00     0.009 C 
HETATM   83  C   UNK N   1      31.679  12.157   4.592  0.00  0.00     0.012 C 
HETATM   84  C   UNK N   1      33.373  12.838   2.952  0.00  0.00     0.012 C 
ENDBRANCH   9  82
BRANCH  13  85
HETATM   85  C   UNK N   1      33.603   9.246   4.199  0.00  0.00     0.009 C 
HETATM   86  C   UNK N   1      34.755   9.164   3.227  0.00  0.00     0.012 C 
HETATM   87  C   UNK N   1      32.329   8.643   3.645  0.00  0.00     0.012 C 
ENDBRANCH  13  85
BRANCH  17  88
HETATM   88  C   UNK N   1      33.731   5.913   4.824  0.00  0.00     0.033 C 
BRANCH  88  89
HETATM   89  C   UNK N   1      34.475   5.696   3.515  0.00  0.00    -0.021 C 
HETATM   90  C   UNK N   1      35.992   5.792   3.584  0.00  0.00     0.009 C 
HETATM   91  C   UNK N   1      34.057   4.350   2.981  0.00  0.00     0.009 C 
ENDBRANCH  88  89
ENDBRANCH  17  88
TORSDOF 16
ENDMDL
MODEL 7
REMARK VINA RESULT:      -5.6      6.302     11.348
REMARK  16 active torsions:
REMARK  status: ('A' for Active; 'I' for Inactive)
REMARK    1  A    between atoms: C_3  and  C_2 
REMARK    2  A    between atoms: N_10  and  C_83 
REMARK    3  A    between atoms: C_11  and  C_80 
REMARK    4  A    between atoms: C_15  and  C_77 
REMARK    5  A    between atoms: C_19  and  C_72 
REMARK    6  A    between atoms: C_31  and  C_65 
REMARK    7  A    between atoms: C_35  and  C_60 
REMARK    8  A    between atoms: C_39  and  C_56 
REMARK    9  A    between atoms: C_43  and  C_47 
REMARK   10  A    between atoms: C_47  and  C_48 
REMARK   11  A    between atoms: C_47  and  O_54 
REMARK   12  A    between atoms: C_48  and  C_50 
REMARK   13  A    between atoms: C_50  and  C_51 
REMARK   14  A    between atoms: C_60  and  C_61 
REMARK   15  A    between atoms: C_65  and  C_66 
REMARK   16  A    between atoms: C_72  and  C_73 
ROOT
HETATM    1  C   UNK N   1      35.063  12.274  11.499  0.00  0.00     0.176 C 
HETATM    2  C   UNK N   1      34.459  13.300  10.645  0.00  0.00     0.243 C 
HETATM    3  O   UNK N   1      34.293  14.406  11.128  0.00  0.00    -0.271 OA
HETATM    4  N   UNK N   1      34.590  13.150   9.287  0.00  0.00    -0.342 N 
HETATM    5  C   UNK N   1      35.739  13.736   8.614  0.00  0.00     0.175 C 
HETATM    6  C   UNK N   1      35.194  14.913   8.045  0.00  0.00     0.243 C 
HETATM    7  O   UNK N   1      34.494  15.604   8.766  0.00  0.00    -0.271 OA
HETATM    8  N   UNK N   1      35.157  15.021   6.705  0.00  0.00    -0.337 N 
HETATM    9  C   UNK N   1      33.868  15.416   6.218  0.00  0.00     0.182 C 
HETATM   10  C   UNK N   1      32.963  14.297   6.525  0.00  0.00     0.241 C 
HETATM   11  O   UNK N   1      31.938  14.408   7.180  0.00  0.00    -0.271 OA
HETATM   12  N   UNK N   1      33.173  13.231   5.785  0.00  0.00    -0.346 N 
HETATM   13  C   UNK N   1      32.468  13.180   4.577  0.00  0.00     0.174 C 
HETATM   14  C   UNK N   1      31.316  12.298   4.840  0.00  0.00     0.223 C 
HETATM   15  O   UNK N   1      30.205  12.752   5.052  0.00  0.00    -0.277 OA
HETATM   16  N   UNK N   1      31.464  11.039   4.432  0.00  0.00    -0.242 NA
HETATM   17  C   UNK N   1      31.955  11.004   3.073  0.00  0.00     0.157 C 
HETATM   18  C   UNK N   1      31.980   9.665   2.554  0.00  0.00     0.236 C 
HETATM   19  O   UNK N   1      31.005   9.270   1.938  0.00  0.00    -0.272 OA
HETATM   20  N   UNK N   1      33.133   8.952   2.624  0.00  0.00    -0.347 N 
HETATM   21  C   UNK N   1      33.287   7.657   2.014  0.00  0.00     0.172 C 
HETATM   22  C   UNK N   1      32.251   6.736   2.545  0.00  0.00     0.240 C 
HETATM   23  O   UNK N   1      31.070   6.996   2.402  0.00  0.00    -0.271 OA
HETATM   24  N   UNK N   1      32.585   5.609   3.182  0.00  0.00    -0.346 N 
HETATM   25  C   UNK N   1      31.526   4.794   3.729  0.00  0.00     0.172 C 
HETATM   26  C   UNK N   1      30.787   5.627   4.749  0.00  0.00     0.242 C 
HETATM   27  O   UNK N   1      29.674   6.080   4.501  0.00  0.00    -0.271 OA
HETATM   28  N   UNK N   1      31.405   5.947   5.901  0.00  0.00    -0.341 N 
HETATM   29  C   UNK N   1      32.458   5.075   6.360  0.00  0.00     0.179 C 
HETATM   30  C   UNK N   1      33.844   5.321   5.829  0.00  0.00     0.243 C 
HETATM   31  O   UNK N   1      34.227   4.680   4.866  0.00  0.00    -0.271 OA
HETATM   32  N   UNK N   1      34.754   5.656   6.731  0.00  0.00    -0.341 N 
HETATM   33  C   UNK N   1      35.173   4.640   7.689  0.00  0.00     0.179 C 
HETATM   34  C   UNK N   1      35.026   5.035   9.060  0.00  0.00     0.243 C 
HETATM   35  O   UNK N   1      35.882   4.605   9.824  0.00  0.00    -0.271 OA
HETATM   36  N   UNK N   1      34.182   6.012   9.474  0.00  0.00    -0.341 N 
HETATM   37  C   UNK N   1      34.728   6.789  10.472  0.00  0.00     0.182 C 
HETATM   38  C   UNK N   1      35.927   7.504   9.793  0.00  0.00     0.243 C 
HETATM   39  O   UNK N   1      36.688   6.947   8.969  0.00  0.00    -0.271 OA
HETATM   40  N   UNK N   1      36.104   8.780   9.975  0.00  0.00    -0.339 N 
HETATM   41  C   UNK N   1      35.670   9.191  11.265  0.00  0.00     0.207 C 
HETATM   42  C   UNK N   1      34.516   9.998  11.278  0.00  0.00     0.243 C 
HETATM   43  O   UNK N   1      33.533   9.803  11.975  0.00  0.00    -0.271 OA
HETATM   44  N   UNK N   1      34.759  11.138  10.762  0.00  0.00    -0.346 N 
HETATM   45  C   UNK N   1      36.907   9.621   9.137  0.00  0.00     0.153 C 
HETATM   46  C   UNK N   1      33.130   6.622   8.704  0.00  0.00     0.153 C 
HETATM   47  C   UNK N   1      35.454   6.915   6.580  0.00  0.00     0.153 C 
HETATM   48  C   UNK N   1      30.858   6.944   6.790  0.00  0.00     0.153 C 
HETATM   49  C   UNK N   1      30.666   4.243   2.606  0.00  0.00     0.042 C 
HETATM   50  C   UNK N   1      33.116   7.775   0.511  0.00  0.00     0.042 C 
HETATM   51  C   UNK N   1      32.245  10.223   5.349  0.00  0.00     0.120 C 
HETATM   52  C   UNK N   1      36.914  14.206   9.431  0.00  0.00     0.042 C 
HETATM   53  C   UNK N   1      33.908  12.072   8.576  0.00  0.00     0.153 C 
HETATM   54  H   UNK N   1      33.789  12.515   6.061  0.00  0.00     0.163 HD
HETATM   55  H   UNK N   1      33.895   9.337   3.112  0.00  0.00     0.163 HD
HETATM   56  H   UNK N   1      33.528   5.342   3.274  0.00  0.00     0.163 HD
HETATM   57  H   UNK N   1      34.730  11.217   9.782  0.00  0.00     0.163 HD
ENDROOT
BRANCH  41  58
HETATM   58  C   UNK N   1      36.210   8.392  12.422  0.00  0.00     0.154 C 
BRANCH  58  59
HETATM   59  C   UNK N   1      36.343   9.248  13.606  0.00  0.00     0.016 C 
HETATM   60  C   UNK N   1      37.770   9.319  14.138  0.00  0.00     0.013 C 
BRANCH  59  61
HETATM   61  C   UNK N   1      35.312   8.814  14.636  0.00  0.00     0.033 C 
BRANCH  61  62
HETATM   62  C   UNK N   1      35.118   9.952  15.530  0.00  0.00    -0.031 C 
HETATM   63  C   UNK N   1      34.575  11.039  15.009  0.00  0.00    -0.035 C 
HETATM   64  C   UNK N   1      34.564  12.289  15.781  0.00  0.00     0.036 C 
ENDBRANCH  61  62
ENDBRANCH  59  61
ENDBRANCH  58  59
BRANCH  58  65
HETATM   65  O   UNK N   1      37.474   7.872  12.106  0.00  0.00    -0.393 OA
HETATM   66  H   UNK N   1      38.100   7.183  11.834  0.00  0.00     0.210 HD
ENDBRANCH  58  65
ENDBRANCH  41  58
BRANCH  37  67
HETATM   67  C   UNK N   1      34.608   6.169  11.903  0.00  0.00     0.009 C 
HETATM   68  C   UNK N   1      35.802   5.373  12.395  0.00  0.00     0.012 C 
HETATM   69  C   UNK N   1      33.343   5.333  12.063  0.00  0.00     0.012 C 
ENDBRANCH  37  67
BRANCH   1  70
HETATM   70  C   UNK N   1      36.607  12.323  11.414  0.00  0.00     0.030 C 
HETATM   71  C   UNK N   1      37.376  12.641  12.684  0.00  0.00     0.007 C 
ENDBRANCH   1  70
BRANCH  33  72
HETATM   72  C   UNK N   1      34.634   3.224   7.546  0.00  0.00     0.039 C 
BRANCH  72  73
HETATM   73  C   UNK N   1      35.652   2.223   6.963  0.00  0.00    -0.020 C 
HETATM   74  C   UNK N   1      35.112   1.348   5.839  0.00  0.00     0.009 C 
HETATM   75  C   UNK N   1      36.991   2.841   6.697  0.00  0.00     0.009 C 
ENDBRANCH  72  73
ENDBRANCH  33  72
BRANCH   8  76
HETATM   76  C   UNK N   1      35.960  14.081   5.911  0.00  0.00     0.122 C 
HETATM   77  C   UNK N   1      37.367  14.564   5.609  0.00  0.00     0.026 C 
ENDBRANCH   8  76
BRANCH  29  78
HETATM   78  C   UNK N   1      31.916   3.692   6.797  0.00  0.00     0.039 C 
BRANCH  78  79
HETATM   79  C   UNK N   1      30.980   3.438   8.009  0.00  0.00    -0.020 C 
HETATM   80  C   UNK N   1      29.499   3.582   7.805  0.00  0.00     0.009 C 
HETATM   81  C   UNK N   1      31.337   3.536   9.465  0.00  0.00     0.009 C 
ENDBRANCH  78  79
ENDBRANCH  29  78
BRANCH   9  82
HETATM   82  C   UNK N   1      33.355  16.849   6.304  0.00  0.00     0.009 C 
HETATM   83  C   UNK N   1      33.352  17.419   4.917  0.00  0.00     0.012 C 
HETATM   84  C   UNK N   1      34.064  17.813   7.232  0.00  0.00     0.012 C 
ENDBRANCH   9  82
BRANCH  13  85
HETATM   85  C   UNK N   1      32.365  14.524   3.811  0.00  0.00     0.009 C 
HETATM   86  C   UNK N   1      33.351  14.734   2.688  0.00  0.00     0.012 C 
HETATM   87  C   UNK N   1      30.958  14.944   3.439  0.00  0.00     0.012 C 
ENDBRANCH  13  85
BRANCH  17  88
HETATM   88  C   UNK N   1      31.047  11.864   2.166  0.00  0.00     0.033 C 
BRANCH  88  89
HETATM   89  C   UNK N   1      31.634  12.337   0.844  0.00  0.00    -0.021 C 
HETATM   90  C   UNK N   1      33.041  11.852   0.527  0.00  0.00     0.009 C 
HETATM   91  C   UNK N   1      30.677  11.922  -0.243  0.00  0.00     0.009 C 
ENDBRANCH  88  89
ENDBRANCH  17  88
TORSDOF 16
ENDMDL
MODEL 8
REMARK VINA RESULT:      -5.5      6.162     10.611
REMARK  16 active torsions:
REMARK  status: ('A' for Active; 'I' for Inactive)
REMARK    1  A    between atoms: C_3  and  C_2 
REMARK    2  A    between atoms: N_10  and  C_83 
REMARK    3  A    between atoms: C_11  and  C_80 
REMARK    4  A    between atoms: C_15  and  C_77 
REMARK    5  A    between atoms: C_19  and  C_72 
REMARK    6  A    between atoms: C_31  and  C_65 
REMARK    7  A    between atoms: C_35  and  C_60 
REMARK    8  A    between atoms: C_39  and  C_56 
REMARK    9  A    between atoms: C_43  and  C_47 
REMARK   10  A    between atoms: C_47  and  C_48 
REMARK   11  A    between atoms: C_47  and  O_54 
REMARK   12  A    between atoms: C_48  and  C_50 
REMARK   13  A    between atoms: C_50  and  C_51 
REMARK   14  A    between atoms: C_60  and  C_61 
REMARK   15  A    between atoms: C_65  and  C_66 
REMARK   16  A    between atoms: C_72  and  C_73 
ROOT
HETATM    1  C   UNK N   1      33.767  14.379   9.961  0.00  0.00     0.176 C 
HETATM    2  C   UNK N   1      32.857  14.518   8.821  0.00  0.00     0.243 C 
HETATM    3  O   UNK N   1      32.022  15.403   8.874  0.00  0.00    -0.271 OA
HETATM    4  N   UNK N   1      33.288  14.044   7.607  0.00  0.00    -0.342 N 
HETATM    5  C   UNK N   1      34.015  14.933   6.713  0.00  0.00     0.175 C 
HETATM    6  C   UNK N   1      33.020  15.311   5.780  0.00  0.00     0.243 C 
HETATM    7  O   UNK N   1      31.938  15.653   6.231  0.00  0.00    -0.271 OA
HETATM    8  N   UNK N   1      33.167  14.937   4.496  0.00  0.00    -0.337 N 
HETATM    9  C   UNK N   1      31.987  14.326   3.960  0.00  0.00     0.182 C 
HETATM   10  C   UNK N   1      31.820  13.063   4.696  0.00  0.00     0.241 C 
HETATM   11  O   UNK N   1      30.810  12.761   5.312  0.00  0.00    -0.271 OA
HETATM   12  N   UNK N   1      32.714  12.150   4.387  0.00  0.00    -0.346 N 
HETATM   13  C   UNK N   1      32.385  11.313   3.317  0.00  0.00     0.174 C 
HETATM   14  C   UNK N   1      31.893  10.068   3.937  0.00  0.00     0.223 C 
HETATM   15  O   UNK N   1      30.699   9.830   4.020  0.00  0.00    -0.277 OA
HETATM   16  N   UNK N   1      32.784   9.082   4.010  0.00  0.00    -0.242 NA
HETATM   17  C   UNK N   1      33.444   8.904   2.737  0.00  0.00     0.157 C 
HETATM   18  C   UNK N   1      34.301   7.751   2.742  0.00  0.00     0.236 C 
HETATM   19  O   UNK N   1      33.837   6.690   2.359  0.00  0.00    -0.272 OA
HETATM   20  N   UNK N   1      35.621   7.912   3.014  0.00  0.00    -0.347 N 
HETATM   21  C   UNK N   1      36.573   6.838   2.912  0.00  0.00     0.172 C 
HETATM   22  C   UNK N   1      36.150   5.718   3.791  0.00  0.00     0.240 C 
HETATM   23  O   UNK N   1      35.072   5.180   3.618  0.00  0.00    -0.271 OA
HETATM   24  N   UNK N   1      36.935   5.276   4.779  0.00  0.00    -0.346 N 
HETATM   25  C   UNK N   1      36.431   4.229   5.635  0.00  0.00     0.172 C 
HETATM   26  C   UNK N   1      35.187   4.750   6.314  0.00  0.00     0.242 C 
HETATM   27  O   UNK N   1      34.075   4.361   5.969  0.00  0.00    -0.271 OA
HETATM   28  N   UNK N   1      35.306   5.720   7.239  0.00  0.00    -0.341 N 
HETATM   29  C   UNK N   1      36.565   5.830   7.935  0.00  0.00     0.179 C 
HETATM   30  C   UNK N   1      37.647   6.648   7.286  0.00  0.00     0.243 C 
HETATM   31  O   UNK N   1      38.486   6.081   6.607  0.00  0.00    -0.271 OA
HETATM   32  N   UNK N   1      38.040   7.718   7.960  0.00  0.00    -0.341 N 
HETATM   33  C   UNK N   1      38.775   7.513   9.202  0.00  0.00     0.179 C 
HETATM   34  C   UNK N   1      38.193   8.165  10.339  0.00  0.00     0.243 C 
HETATM   35  O   UNK N   1      38.991   8.588  11.167  0.00  0.00    -0.271 OA
HETATM   36  N   UNK N   1      36.891   8.536  10.407  0.00  0.00    -0.341 N 
HETATM   37  C   UNK N   1      36.726   9.756  11.025  0.00  0.00     0.182 C 
HETATM   38  C   UNK N   1      37.423  10.769  10.077  0.00  0.00     0.243 C 
HETATM   39  O   UNK N   1      38.496  10.529   9.479  0.00  0.00    -0.271 OA
HETATM   40  N   UNK N   1      36.825  11.883   9.772  0.00  0.00    -0.339 N 
HETATM   41  C   UNK N   1      36.015  12.353  10.841  0.00  0.00     0.207 C 
HETATM   42  C   UNK N   1      34.627  12.290  10.612  0.00  0.00     0.243 C 
HETATM   43  O   UNK N   1      33.812  11.797  11.378  0.00  0.00    -0.271 OA
HETATM   44  N   UNK N   1      34.282  13.116   9.705  0.00  0.00    -0.346 N 
HETATM   45  C   UNK N   1      37.158  12.707   8.648  0.00  0.00     0.153 C 
HETATM   46  C   UNK N   1      35.834   8.132   9.518  0.00  0.00     0.153 C 
HETATM   47  C   UNK N   1      37.936   9.017   7.327  0.00  0.00     0.153 C 
HETATM   48  C   UNK N   1      34.150   6.434   7.727  0.00  0.00     0.153 C 
HETATM   49  C   UNK N   1      36.238   2.955   4.832  0.00  0.00     0.042 C 
HETATM   50  C   UNK N   1      36.636   6.341   1.479  0.00  0.00     0.042 C 
HETATM   51  C   UNK N   1      33.709   9.224   5.124  0.00  0.00     0.120 C 
HETATM   52  C   UNK N   1      34.563  16.230   7.247  0.00  0.00     0.042 C 
HETATM   53  C   UNK N   1      33.460  12.613   7.372  0.00  0.00     0.153 C 
HETATM   54  H   UNK N   1      33.563  12.063   4.877  0.00  0.00     0.163 HD
HETATM   55  H   UNK N   1      35.940   8.800   3.291  0.00  0.00     0.163 HD
HETATM   56  H   UNK N   1      37.833   5.655   4.918  0.00  0.00     0.163 HD
HETATM   57  H   UNK N   1      34.388  12.842   8.766  0.00  0.00     0.163 HD
ENDROOT
BRANCH  41  58
HETATM   58  C   UNK N   1      36.692  12.444  12.183  0.00  0.00     0.154 C 
BRANCH  58  59
HETATM   59  C   UNK N   1      35.853  13.198  13.121  0.00  0.00     0.016 C 
HETATM   60  C   UNK N   1      36.437  14.557  13.491  0.00  0.00     0.013 C 
BRANCH  59  61
HETATM   61  C   UNK N   1      35.535  12.308  14.312  0.00  0.00     0.033 C 
BRANCH  61  62
HETATM   62  C   UNK N   1      35.906  13.064  15.504  0.00  0.00    -0.031 C 
HETATM   63  C   UNK N   1      35.140  12.915  16.572  0.00  0.00    -0.035 C 
HETATM   64  C   UNK N   1      35.312  13.812  17.722  0.00  0.00     0.036 C 
ENDBRANCH  61  62
ENDBRANCH  59  61
ENDBRANCH  58  59
BRANCH  58  65
HETATM   65  O   UNK N   1      37.924  13.104  12.063  0.00  0.00    -0.393 OA
HETATM   66  H   UNK N   1      38.891  13.177  12.097  0.00  0.00     0.210 HD
ENDBRANCH  58  65
ENDBRANCH  41  58
BRANCH  37  67
HETATM   67  C   UNK N   1      36.718   9.685  12.588  0.00  0.00     0.009 C 
HETATM   68  C   UNK N   1      38.074   9.711  13.270  0.00  0.00     0.012 C 
HETATM   69  C   UNK N   1      35.915   8.497  13.106  0.00  0.00     0.012 C 
ENDBRANCH  37  67
BRANCH   1  70
HETATM   70  C   UNK N   1      35.008  15.286   9.792  0.00  0.00     0.030 C 
HETATM   71  C   UNK N   1      35.203  16.412  10.791  0.00  0.00     0.007 C 
ENDBRANCH   1  70
BRANCH  33  72
HETATM   72  C   UNK N   1      39.150   6.095   9.612  0.00  0.00     0.039 C 
BRANCH  72  73
HETATM   73  C   UNK N   1      40.667   5.822   9.601  0.00  0.00    -0.020 C 
HETATM   74  C   UNK N   1      41.460   6.672   8.618  0.00  0.00     0.009 C 
HETATM   75  C   UNK N   1      41.255   5.732  10.977  0.00  0.00     0.009 C 
ENDBRANCH  72  73
ENDBRANCH  33  72
BRANCH   8  76
HETATM   76  C   UNK N   1      34.483  14.447   4.064  0.00  0.00     0.122 C 
HETATM   77  C   UNK N   1      34.713  14.517   2.566  0.00  0.00     0.026 C 
ENDBRANCH   8  76
BRANCH  29  78
HETATM   78  C   UNK N   1      36.815   4.622   8.871  0.00  0.00     0.039 C 
BRANCH  78  79
HETATM   79  C   UNK N   1      36.000   4.296  10.151  0.00  0.00    -0.020 C 
HETATM   80  C   UNK N   1      34.745   3.485  10.006  0.00  0.00     0.009 C 
HETATM   81  C   UNK N   1      36.004   5.058  11.447  0.00  0.00     0.009 C 
ENDBRANCH  78  79
ENDBRANCH  29  78
BRANCH   9  82
HETATM   82  C   UNK N   1      30.759  15.126   3.540  0.00  0.00     0.009 C 
HETATM   83  C   UNK N   1      31.229  16.455   3.031  0.00  0.00     0.012 C 
HETATM   84  C   UNK N   1      29.661  15.347   4.560  0.00  0.00     0.012 C 
ENDBRANCH   9  82
BRANCH  13  85
HETATM   85  C   UNK N   1      31.690  12.009   2.118  0.00  0.00     0.009 C 
HETATM   86  C   UNK N   1      32.558  12.312   0.921  0.00  0.00     0.012 C 
HETATM   87  C   UNK N   1      30.345  11.430   1.730  0.00  0.00     0.012 C 
ENDBRANCH  13  85
BRANCH  17  88
HETATM   88  C   UNK N   1      32.389   8.726   1.622  0.00  0.00     0.033 C 
BRANCH  88  89
HETATM   89  C   UNK N   1      32.824   9.044   0.198  0.00  0.00    -0.021 C 
HETATM   90  C   UNK N   1      34.301   9.352   0.004  0.00  0.00     0.009 C 
HETATM   91  C   UNK N   1      32.412   7.880  -0.665  0.00  0.00     0.009 C 
ENDBRANCH  88  89
ENDBRANCH  17  88
TORSDOF 16
ENDMDL
MODEL 9
REMARK VINA RESULT:      -5.5      5.781     12.362
REMARK  16 active torsions:
REMARK  status: ('A' for Active; 'I' for Inactive)
REMARK    1  A    between atoms: C_3  and  C_2 
REMARK    2  A    between atoms: N_10  and  C_83 
REMARK    3  A    between atoms: C_11  and  C_80 
REMARK    4  A    between atoms: C_15  and  C_77 
REMARK    5  A    between atoms: C_19  and  C_72 
REMARK    6  A    between atoms: C_31  and  C_65 
REMARK    7  A    between atoms: C_35  and  C_60 
REMARK    8  A    between atoms: C_39  and  C_56 
REMARK    9  A    between atoms: C_43  and  C_47 
REMARK   10  A    between atoms: C_47  and  C_48 
REMARK   11  A    between atoms: C_47  and  O_54 
REMARK   12  A    between atoms: C_48  and  C_50 
REMARK   13  A    between atoms: C_50  and  C_51 
REMARK   14  A    between atoms: C_60  and  C_61 
REMARK   15  A    between atoms: C_65  and  C_66 
REMARK   16  A    between atoms: C_72  and  C_73 
ROOT
HETATM    1  C   UNK N   1      36.754  14.319   8.443  0.00  0.00     0.176 C 
HETATM    2  C   UNK N   1      38.053  13.649   8.328  0.00  0.00     0.243 C 
HETATM    3  O   UNK N   1      38.949  14.034   9.058  0.00  0.00    -0.271 OA
HETATM    4  N   UNK N   1      38.063  12.368   7.835  0.00  0.00    -0.342 N 
HETATM    5  C   UNK N   1      37.940  11.250   8.757  0.00  0.00     0.175 C 
HETATM    6  C   UNK N   1      39.278  10.804   8.878  0.00  0.00     0.243 C 
HETATM    7  O   UNK N   1      40.131  11.655   9.066  0.00  0.00    -0.271 OA
HETATM    8  N   UNK N   1      39.589   9.575   8.429  0.00  0.00    -0.337 N 
HETATM    9  C   UNK N   1      40.744   9.572   7.581  0.00  0.00     0.182 C 
HETATM   10  C   UNK N   1      40.357  10.321   6.375  0.00  0.00     0.241 C 
HETATM   11  O   UNK N   1      40.958  11.298   5.957  0.00  0.00    -0.271 OA
HETATM   12  N   UNK N   1      39.505   9.678   5.607  0.00  0.00    -0.346 N 
HETATM   13  C   UNK N   1      40.069   8.842   4.638  0.00  0.00     0.174 C 
HETATM   14  C   UNK N   1      40.024   9.617   3.384  0.00  0.00     0.223 C 
HETATM   15  O   UNK N   1      41.014  10.183   2.952  0.00  0.00    -0.277 OA
HETATM   16  N   UNK N   1      39.007   9.325   2.576  0.00  0.00    -0.242 NA
HETATM   17  C   UNK N   1      38.892   7.894   2.407  0.00  0.00     0.157 C 
HETATM   18  C   UNK N   1      37.901   7.556   1.423  0.00  0.00     0.236 C 
HETATM   19  O   UNK N   1      38.267   7.403   0.270  0.00  0.00    -0.272 OA
HETATM   20  N   UNK N   1      36.640   7.262   1.831  0.00  0.00    -0.347 N 
HETATM   21  C   UNK N   1      35.622   6.786   0.932  0.00  0.00     0.172 C 
HETATM   22  C   UNK N   1      35.435   7.769  -0.166  0.00  0.00     0.240 C 
HETATM   23  O   UNK N   1      36.367   8.055  -0.894  0.00  0.00    -0.271 OA
HETATM   24  N   UNK N   1      34.252   8.351  -0.382  0.00  0.00    -0.346 N 
HETATM   25  C   UNK N   1      34.160   9.346  -1.424  0.00  0.00     0.172 C 
HETATM   26  C   UNK N   1      35.103  10.471  -1.070  0.00  0.00     0.242 C 
HETATM   27  O   UNK N   1      36.163  10.614  -1.672  0.00  0.00    -0.271 OA
HETATM   28  N   UNK N   1      34.811  11.260  -0.019  0.00  0.00    -0.341 N 
HETATM   29  C   UNK N   1      33.424  11.379   0.363  0.00  0.00     0.179 C 
HETATM   30  C   UNK N   1      32.871  10.339   1.298  0.00  0.00     0.243 C 
HETATM   31  O   UNK N   1      32.283   9.379   0.828  0.00  0.00    -0.271 OA
HETATM   32  N   UNK N   1      32.453  10.786   2.473  0.00  0.00    -0.341 N 
HETATM   33  C   UNK N   1      31.258  11.619   2.501  0.00  0.00     0.179 C 
HETATM   34  C   UNK N   1      31.449  12.891   3.137  0.00  0.00     0.243 C 
HETATM   35  O   UNK N   1      30.483  13.317   3.759  0.00  0.00    -0.271 OA
HETATM   36  N   UNK N   1      32.659  13.483   3.283  0.00  0.00    -0.341 N 
HETATM   37  C   UNK N   1      32.793  14.107   4.504  0.00  0.00     0.182 C 
HETATM   38  C   UNK N   1      32.742  12.951   5.538  0.00  0.00     0.243 C 
HETATM   39  O   UNK N   1      31.974  11.967   5.437  0.00  0.00    -0.271 OA
HETATM   40  N   UNK N   1      33.613  12.910   6.504  0.00  0.00    -0.339 N 
HETATM   41  C   UNK N   1      34.000  14.214   6.916  0.00  0.00     0.207 C 
HETATM   42  C   UNK N   1      35.324  14.574   6.596  0.00  0.00     0.243 C 
HETATM   43  O   UNK N   1      35.652  15.609   6.036  0.00  0.00    -0.271 OA
HETATM   44  N   UNK N   1      36.154  13.882   7.271  0.00  0.00    -0.346 N 
HETATM   45  C   UNK N   1      33.922  11.743   7.275  0.00  0.00     0.153 C 
HETATM   46  C   UNK N   1      33.886  13.107   2.630  0.00  0.00     0.153 C 
HETATM   47  C   UNK N   1      33.049  10.242   3.676  0.00  0.00     0.153 C 
HETATM   48  C   UNK N   1      35.787  12.174   0.523  0.00  0.00     0.153 C 
HETATM   49  C   UNK N   1      34.411   8.700  -2.776  0.00  0.00     0.042 C 
HETATM   50  C   UNK N   1      36.045   5.457   0.335  0.00  0.00     0.042 C 
HETATM   51  C   UNK N   1      37.758   9.962   2.968  0.00  0.00     0.120 C 
HETATM   52  C   UNK N   1      37.483  11.504  10.169  0.00  0.00     0.042 C 
HETATM   53  C   UNK N   1      37.729  12.093   6.440  0.00  0.00     0.153 C 
HETATM   54  H   UNK N   1      38.532   9.778   5.708  0.00  0.00     0.163 HD
HETATM   55  H   UNK N   1      36.414   7.379   2.781  0.00  0.00     0.163 HD
HETATM   56  H   UNK N   1      33.464   8.108   0.156  0.00  0.00     0.163 HD
HETATM   57  H   UNK N   1      36.382  12.984   6.941  0.00  0.00     0.163 HD
ENDROOT
BRANCH  41  58
HETATM   58  C   UNK N   1      32.873  15.160   7.234  0.00  0.00     0.154 C 
BRANCH  58  59
HETATM   59  C   UNK N   1      33.393  16.352   7.913  0.00  0.00     0.016 C 
HETATM   60  C   UNK N   1      33.461  16.199   9.428  0.00  0.00     0.013 C 
BRANCH  59  61
HETATM   61  C   UNK N   1      32.602  17.562   7.442  0.00  0.00     0.033 C 
BRANCH  61  62
HETATM   62  C   UNK N   1      31.793  17.996   8.578  0.00  0.00    -0.031 C 
HETATM   63  C   UNK N   1      30.480  17.938   8.436  0.00  0.00    -0.035 C 
HETATM   64  C   UNK N   1      29.611  18.570   9.438  0.00  0.00     0.036 C 
ENDBRANCH  61  62
ENDBRANCH  59  61
ENDBRANCH  58  59
BRANCH  58  65
HETATM   65  O   UNK N   1      31.941  14.540   8.079  0.00  0.00    -0.393 OA
HETATM   66  H   UNK N   1      31.102  14.103   8.296  0.00  0.00     0.210 HD
ENDBRANCH  58  65
ENDBRANCH  41  58
BRANCH  37  67
HETATM   67  C   UNK N   1      32.160  15.537   4.565  0.00  0.00     0.009 C 
HETATM   68  C   UNK N   1      30.684  15.605   4.912  0.00  0.00     0.012 C 
HETATM   69  C   UNK N   1      32.416  16.333   3.290  0.00  0.00     0.012 C 
ENDBRANCH  37  67
BRANCH   1  70
HETATM   70  C   UNK N   1      35.884  13.650   9.533  0.00  0.00     0.030 C 
HETATM   71  C   UNK N   1      35.855  14.292  10.908  0.00  0.00     0.007 C 
ENDBRANCH   1  70
BRANCH  33  72
HETATM   72  C   UNK N   1      30.487  11.849   1.209  0.00  0.00     0.039 C 
BRANCH  72  73
HETATM   73  C   UNK N   1      29.075  11.229   1.205  0.00  0.00    -0.020 C 
HETATM   74  C   UNK N   1      28.970   9.882   1.906  0.00  0.00     0.009 C 
HETATM   75  C   UNK N   1      28.003  12.214   1.561  0.00  0.00     0.009 C 
ENDBRANCH  72  73
ENDBRANCH  33  72
BRANCH   8  76
HETATM   76  C   UNK N   1      38.489   8.645   8.138  0.00  0.00     0.122 C 
HETATM   77  C   UNK N   1      38.795   7.195   8.467  0.00  0.00     0.026 C 
ENDBRANCH   8  76
BRANCH  29  78
HETATM   78  C   UNK N   1      32.594  12.138  -0.700  0.00  0.00     0.039 C 
BRANCH  78  79
HETATM   79  C   UNK N   1      32.036  11.522  -2.011  0.00  0.00    -0.020 C 
HETATM   80  C   UNK N   1      32.658  11.937  -3.313  0.00  0.00     0.009 C 
HETATM   81  C   UNK N   1      30.667  10.941  -2.228  0.00  0.00     0.009 C 
ENDBRANCH  78  79
ENDBRANCH  29  78
BRANCH   9  82
HETATM   82  C   UNK N   1      42.166   9.687   8.120  0.00  0.00     0.009 C 
HETATM   83  C   UNK N   1      42.226   8.937   9.417  0.00  0.00     0.012 C 
HETATM   84  C   UNK N   1      42.749  11.070   8.320  0.00  0.00     0.012 C 
ENDBRANCH   9  82
BRANCH  13  85
HETATM   85  C   UNK N   1      41.306   8.028   5.101  0.00  0.00     0.009 C 
HETATM   86  C   UNK N   1      41.048   6.607   5.541  0.00  0.00     0.012 C 
HETATM   87  C   UNK N   1      42.526   8.152   4.212  0.00  0.00     0.012 C 
ENDBRANCH  13  85
BRANCH  17  88
HETATM   88  C   UNK N   1      40.250   7.310   1.957  0.00  0.00     0.033 C 
BRANCH  88  89
HETATM   89  C   UNK N   1      40.487   5.829   2.213  0.00  0.00    -0.021 C 
HETATM   90  C   UNK N   1      39.316   5.058   2.806  0.00  0.00     0.009 C 
HETATM   91  C   UNK N   1      40.915   5.212   0.907  0.00  0.00     0.009 C 
ENDBRANCH  88  89
ENDBRANCH  17  88
TORSDOF 16
ENDMDL
