MODEL 1
REMARK VINA RESULT:      -8.6      0.000      0.000
REMARK  8 active torsions:
REMARK  status: ('A' for Active; 'I' for Inactive)
REMARK    1  A    between atoms: C_26  and  C_14 
REMARK    2  A    between atoms: N_39  and  C_14 
REMARK    3  A    between atoms: C_15  and  C_17 
REMARK    4  A    between atoms: N_40  and  C_16 
REMARK    5  A    between atoms: C_19  and  N_34 
REMARK    6  A    between atoms: N_38  and  C_24 
REMARK    7  A    between atoms: C_24  and  O_42 
REMARK    8  A    between atoms: O_43  and  C_25 
ROOT
HETATM    1  C   UNK N   1      26.634  18.913   4.509  0.00  0.00     0.215 C 
HETATM    2  N   UNK N   1      25.673  18.091   4.780  0.00  0.00    -0.343 N 
ATOM      3  HN  UNK N   1      25.696  17.663   5.706  1.00  0.00     0.164 HD
ENDROOT
BRANCH   2   4
HETATM    4  C   UNK N   1      24.567  17.704   3.926  0.00  0.00     0.177 C 
HETATM    5  C   UNK N   1      24.315  16.229   4.218  0.00  0.00     0.035 C 
HETATM    6  C   UNK N   1      23.482  15.498   3.177  0.00  0.00     0.013 C 
HETATM    7  C   UNK N   1      22.211  16.237   2.775  0.00  0.00     0.040 C 
HETATM    8  C   UNK N   1      21.644  16.901   4.040  0.00  0.00     0.135 C 
HETATM    9  N   UNK N   1      22.066  18.281   4.146  0.00  0.00    -0.341 N 
HETATM   10  C   UNK N   1      23.376  18.680   4.007  0.00  0.00     0.242 C 
HETATM   11  O   UNK N   1      23.625  19.876   3.920  0.00  0.00    -0.271 OA
BRANCH   7  12
HETATM   12  C   UNK N   1      21.286  15.259   2.076  0.00  0.00    -0.011 A 
HETATM   13  C   UNK N   1      21.500  13.887   2.298  0.00  0.00     0.011 A 
HETATM   14  C   UNK N   1      20.681  12.927   1.704  0.00  0.00     0.004 A 
HETATM   15  C   UNK N   1      19.644  13.325   0.861  0.00  0.00     0.045 A 
HETATM   16  C   UNK N   1      19.426  14.680   0.610  0.00  0.00     0.155 A 
HETATM   17  C   UNK N   1      20.235  15.651   1.211  0.00  0.00     0.161 A 
HETATM   18  F   UNK N   1      18.426  15.053  -0.224  0.00  0.00    -0.203 F 
HETATM   19  F   UNK N   1      19.993  16.956   0.930  0.00  0.00    -0.202 F 
ENDBRANCH   7  12
BRANCH   9  20
HETATM   20  C   UNK N   1      21.008  19.252   4.339  0.00  0.00     0.243 C 
BRANCH  20  21
HETATM   21  C   UNK N   1      20.371  19.664   3.007  0.00  0.00     0.403 C 
HETATM   22  F   UNK N   1      21.184  19.304   1.945  0.00  0.00    -0.169 F 
HETATM   23  F   UNK N   1      20.210  21.036   2.991  0.00  0.00    -0.169 F 
HETATM   24  F   UNK N   1      19.134  19.068   2.858  0.00  0.00    -0.169 F 
ENDBRANCH  20  21
ENDBRANCH   9  20
ENDBRANCH   2   4
BRANCH   1  25
HETATM   25  N   UNK N   1      27.712  19.035   5.422  0.00  0.00    -0.348 N 
HETATM   26  C   UNK N   1      29.018  18.741   4.901  0.00  0.00     0.128 C 
HETATM   27  C   UNK N   1      29.195  17.212   4.983  0.00  0.00     0.045 C 
HETATM   28  C   UNK N   1      28.986  16.719   6.434  0.00  0.00     0.097 C 
HETATM   29  C   UNK N   1      27.637  17.209   6.984  0.00  0.00     0.045 C 
HETATM   30  C   UNK N   1      27.496  18.716   6.815  0.00  0.00     0.128 C 
BRANCH  28  31
HETATM   31  N   UNK N   1      30.099  17.083   7.329  0.00  0.00    -0.305 N 
HETATM   32  C   UNK N   1      31.404  17.262   7.041  0.00  0.00     0.082 A 
HETATM   33  C   UNK N   1      32.084  17.150   5.831  0.00  0.00     0.035 A 
HETATM   34  C   UNK N   1      32.066  17.571   8.186  0.00  0.00     0.135 A 
HETATM   35  C   UNK N   1      33.469  17.380   5.843  0.00  0.00     0.019 A 
HETATM   36  C   UNK N   1      34.114  17.709   7.057  0.00  0.00     0.090 A 
HETATM   37  N   UNK N   1      33.401  17.798   8.222  0.00  0.00    -0.350 N 
ATOM     38  HN  UNK N   1      33.865  18.031   9.100  1.00  0.00     0.166 HD
HETATM   39  N   UNK N   1      31.218  17.595   9.229  0.00  0.00    -0.306 N 
HETATM   40  C   UNK N   1      30.021  17.284   8.672  0.00  0.00     0.226 A 
ATOM     41  HN  UNK N   1      31.426  17.799  10.207  1.00  0.00     0.171 HD
BRANCH  40  42
HETATM   42  O   UNK N   1      28.883  17.193   9.382  0.00  0.00    -0.332 OA
HETATM   43  H   UNK N   1      28.815  16.579  10.087  0.00  0.00     0.221 HD
ENDBRANCH  40  42
ENDBRANCH  28  31
ENDBRANCH   1  25
BRANCH   1  44
HETATM   44  O   UNK N   1      26.685  19.579   3.336  0.00  0.00    -0.333 OA
HETATM   45  H   UNK N   1      26.989  20.464   3.310  0.00  0.00     0.220 HD
ENDBRANCH   1  44
TORSDOF 8
ENDMDL
MODEL 2
REMARK VINA RESULT:      -8.4      5.533     11.159
REMARK  8 active torsions:
REMARK  status: ('A' for Active; 'I' for Inactive)
REMARK    1  A    between atoms: C_26  and  C_14 
REMARK    2  A    between atoms: N_39  and  C_14 
REMARK    3  A    between atoms: C_15  and  C_17 
REMARK    4  A    between atoms: N_40  and  C_16 
REMARK    5  A    between atoms: C_19  and  N_34 
REMARK    6  A    between atoms: N_38  and  C_24 
REMARK    7  A    between atoms: C_24  and  O_42 
REMARK    8  A    between atoms: O_43  and  C_25 
ROOT
HETATM    1  C   UNK N   1      27.011  17.982   3.814  0.00  0.00     0.215 C 
HETATM    2  N   UNK N   1      27.895  17.045   3.929  0.00  0.00    -0.343 N 
ATOM      3  HN  UNK N   1      27.618  16.123   3.589  1.00  0.00     0.164 HD
ENDROOT
BRANCH   2   4
HETATM    4  C   UNK N   1      29.231  17.145   4.482  0.00  0.00     0.177 C 
HETATM    5  C   UNK N   1      29.098  16.776   5.955  0.00  0.00     0.035 C 
HETATM    6  C   UNK N   1      30.271  17.186   6.832  0.00  0.00     0.013 C 
HETATM    7  C   UNK N   1      31.631  16.809   6.258  0.00  0.00     0.040 C 
HETATM    8  C   UNK N   1      31.482  15.436   5.584  0.00  0.00     0.135 C 
HETATM    9  N   UNK N   1      31.244  15.569   4.163  0.00  0.00    -0.341 N 
HETATM   10  C   UNK N   1      30.289  16.408   3.635  0.00  0.00     0.242 C 
HETATM   11  O   UNK N   1      30.276  16.607   2.427  0.00  0.00    -0.271 OA
BRANCH   7  12
HETATM   12  C   UNK N   1      32.661  16.886   7.369  0.00  0.00    -0.011 A 
HETATM   13  C   UNK N   1      33.595  17.938   7.320  0.00  0.00     0.011 A 
HETATM   14  C   UNK N   1      34.562  18.085   8.313  0.00  0.00     0.004 A 
HETATM   15  C   UNK N   1      34.624  17.171   9.364  0.00  0.00     0.045 A 
HETATM   16  C   UNK N   1      33.721  16.109   9.422  0.00  0.00     0.155 A 
HETATM   17  C   UNK N   1      32.739  15.959   8.436  0.00  0.00     0.161 A 
HETATM   18  F   UNK N   1      33.802  15.217  10.439  0.00  0.00    -0.203 F 
HETATM   19  F   UNK N   1      31.889  14.905   8.528  0.00  0.00    -0.202 F 
ENDBRANCH   7  12
BRANCH   9  20
HETATM   20  C   UNK N   1      32.128  14.812   3.299  0.00  0.00     0.243 C 
BRANCH  20  21
HETATM   21  C   UNK N   1      33.522  15.448   3.224  0.00  0.00     0.403 C 
HETATM   22  F   UNK N   1      34.276  15.104   4.333  0.00  0.00    -0.169 F 
HETATM   23  F   UNK N   1      33.388  16.822   3.193  0.00  0.00    -0.169 F 
HETATM   24  F   UNK N   1      34.179  15.039   2.080  0.00  0.00    -0.169 F 
ENDBRANCH  20  21
ENDBRANCH   9  20
ENDBRANCH   2   4
BRANCH   1  25
HETATM   25  N   UNK N   1      25.700  17.644   3.392  0.00  0.00    -0.348 N 
HETATM   26  C   UNK N   1      24.729  18.702   3.437  0.00  0.00     0.128 C 
HETATM   27  C   UNK N   1      24.191  18.750   4.880  0.00  0.00     0.045 C 
HETATM   28  C   UNK N   1      23.621  17.373   5.293  0.00  0.00     0.097 C 
HETATM   29  C   UNK N   1      24.662  16.264   5.065  0.00  0.00     0.045 C 
HETATM   30  C   UNK N   1      25.202  16.311   3.642  0.00  0.00     0.128 C 
BRANCH  28  31
HETATM   31  N   UNK N   1      22.343  17.060   4.630  0.00  0.00    -0.305 N 
HETATM   32  C   UNK N   1      21.476  17.885   4.011  0.00  0.00     0.082 A 
HETATM   33  C   UNK N   1      21.523  19.265   3.822  0.00  0.00     0.035 A 
HETATM   34  C   UNK N   1      20.422  17.156   3.563  0.00  0.00     0.135 A 
HETATM   35  C   UNK N   1      20.449  19.862   3.144  0.00  0.00     0.019 A 
HETATM   36  C   UNK N   1      19.376  19.062   2.688  0.00  0.00     0.090 A 
HETATM   37  N   UNK N   1      19.374  17.710   2.906  0.00  0.00    -0.350 N 
ATOM     38  HN  UNK N   1      18.599  17.132   2.582  1.00  0.00     0.166 HD
HETATM   39  N   UNK N   1      20.575  15.859   3.881  0.00  0.00    -0.306 N 
HETATM   40  C   UNK N   1      21.760  15.833   4.542  0.00  0.00     0.226 A 
ATOM     41  HN  UNK N   1      19.950  15.081   3.674  1.00  0.00     0.171 HD
BRANCH  40  42
HETATM   42  O   UNK N   1      22.294  14.708   5.047  0.00  0.00    -0.332 OA
HETATM   43  H   UNK N   1      22.113  13.880   4.647  0.00  0.00     0.221 HD
ENDBRANCH  40  42
ENDBRANCH  28  31
ENDBRANCH   1  25
BRANCH   1  44
HETATM   44  O   UNK N   1      27.278  19.253   4.182  0.00  0.00    -0.333 OA
HETATM   45  H   UNK N   1      26.727  19.689   4.801  0.00  0.00     0.220 HD
ENDBRANCH   1  44
TORSDOF 8
ENDMDL
MODEL 3
REMARK VINA RESULT:      -8.3      3.165      4.892
REMARK  8 active torsions:
REMARK  status: ('A' for Active; 'I' for Inactive)
REMARK    1  A    between atoms: C_26  and  C_14 
REMARK    2  A    between atoms: N_39  and  C_14 
REMARK    3  A    between atoms: C_15  and  C_17 
REMARK    4  A    between atoms: N_40  and  C_16 
REMARK    5  A    between atoms: C_19  and  N_34 
REMARK    6  A    between atoms: N_38  and  C_24 
REMARK    7  A    between atoms: C_24  and  O_42 
REMARK    8  A    between atoms: O_43  and  C_25 
ROOT
HETATM    1  C   UNK N   1      29.778  16.589   4.738  0.00  0.00     0.215 C 
HETATM    2  N   UNK N   1      28.618  16.766   5.283  0.00  0.00    -0.343 N 
ATOM      3  HN  UNK N   1      28.534  16.485   6.260  1.00  0.00     0.164 HD
ENDROOT
BRANCH   2   4
HETATM    4  C   UNK N   1      27.424  17.316   4.672  0.00  0.00     0.177 C 
HETATM    5  C   UNK N   1      26.257  16.538   5.270  0.00  0.00     0.035 C 
HETATM    6  C   UNK N   1      24.947  16.651   4.506  0.00  0.00     0.013 C 
HETATM    7  C   UNK N   1      24.567  18.082   4.142  0.00  0.00     0.040 C 
HETATM    8  C   UNK N   1      24.973  18.980   5.321  0.00  0.00     0.135 C 
HETATM    9  N   UNK N   1      26.272  19.579   5.106  0.00  0.00    -0.341 N 
HETATM   10  C   UNK N   1      27.379  18.857   4.722  0.00  0.00     0.242 C 
HETATM   11  O   UNK N   1      28.388  19.458   4.377  0.00  0.00    -0.271 OA
BRANCH   7  12
HETATM   12  C   UNK N   1      23.097  18.110   3.770  0.00  0.00    -0.011 A 
HETATM   13  C   UNK N   1      22.382  16.901   3.849  0.00  0.00     0.011 A 
HETATM   14  C   UNK N   1      21.023  16.850   3.539  0.00  0.00     0.004 A 
HETATM   15  C   UNK N   1      20.361  18.005   3.127  0.00  0.00     0.045 A 
HETATM   16  C   UNK N   1      21.055  19.211   3.022  0.00  0.00     0.155 A 
HETATM   17  C   UNK N   1      22.416  19.276   3.342  0.00  0.00     0.161 A 
HETATM   18  F   UNK N   1      20.405  20.324   2.604  0.00  0.00    -0.203 F 
HETATM   19  F   UNK N   1      23.053  20.467   3.216  0.00  0.00    -0.202 F 
ENDBRANCH   7  12
BRANCH   9  20
HETATM   20  C   UNK N   1      26.336  21.020   5.249  0.00  0.00     0.243 C 
BRANCH  20  21
HETATM   21  C   UNK N   1      26.828  21.426   6.643  0.00  0.00     0.403 C 
HETATM   22  F   UNK N   1      28.015  22.133   6.557  0.00  0.00    -0.169 F 
HETATM   23  F   UNK N   1      27.048  20.286   7.391  0.00  0.00    -0.169 F 
HETATM   24  F   UNK N   1      25.880  22.202   7.283  0.00  0.00    -0.169 F 
ENDBRANCH  20  21
ENDBRANCH   9  20
ENDBRANCH   2   4
BRANCH   1  25
HETATM   25  N   UNK N   1      30.776  15.885   5.460  0.00  0.00    -0.348 N 
HETATM   26  C   UNK N   1      30.787  16.085   6.882  0.00  0.00     0.128 C 
HETATM   27  C   UNK N   1      31.589  17.375   7.143  0.00  0.00     0.045 C 
HETATM   28  C   UNK N   1      33.003  17.270   6.524  0.00  0.00     0.097 C 
HETATM   29  C   UNK N   1      32.917  16.893   5.036  0.00  0.00     0.045 C 
HETATM   30  C   UNK N   1      32.060  15.650   4.839  0.00  0.00     0.128 C 
BRANCH  28  31
HETATM   31  N   UNK N   1      33.885  16.352   7.265  0.00  0.00    -0.305 N 
HETATM   32  C   UNK N   1      34.805  15.485   6.795  0.00  0.00     0.082 A 
HETATM   33  C   UNK N   1      35.186  15.196   5.487  0.00  0.00     0.035 A 
HETATM   34  C   UNK N   1      35.366  14.831   7.845  0.00  0.00     0.135 A 
HETATM   35  C   UNK N   1      36.175  14.216   5.302  0.00  0.00     0.019 A 
HETATM   36  C   UNK N   1      36.737  13.568   6.426  0.00  0.00     0.090 A 
HETATM   37  N   UNK N   1      36.321  13.883   7.692  0.00  0.00    -0.350 N 
ATOM     38  HN  UNK N   1      36.723  13.414   8.503  1.00  0.00     0.166 HD
HETATM   39  N   UNK N   1      34.827  15.249   9.004  0.00  0.00    -0.306 N 
HETATM   40  C   UNK N   1      33.917  16.176   8.614  0.00  0.00     0.226 A 
ATOM     41  HN  UNK N   1      35.050  14.942   9.950  1.00  0.00     0.171 HD
BRANCH  40  42
HETATM   42  O   UNK N   1      33.137  16.848   9.479  0.00  0.00    -0.332 OA
HETATM   43  H   UNK N   1      32.240  16.603   9.594  0.00  0.00     0.221 HD
ENDBRANCH  40  42
ENDBRANCH  28  31
ENDBRANCH   1  25
BRANCH   1  44
HETATM   44  O   UNK N   1      30.027  16.968   3.467  0.00  0.00    -0.333 OA
HETATM   45  H   UNK N   1      30.781  16.640   3.018  0.00  0.00     0.220 HD
ENDBRANCH   1  44
TORSDOF 8
ENDMDL
MODEL 4
REMARK VINA RESULT:      -8.3      3.247      5.280
REMARK  8 active torsions:
REMARK  status: ('A' for Active; 'I' for Inactive)
REMARK    1  A    between atoms: C_26  and  C_14 
REMARK    2  A    between atoms: N_39  and  C_14 
REMARK    3  A    between atoms: C_15  and  C_17 
REMARK    4  A    between atoms: N_40  and  C_16 
REMARK    5  A    between atoms: C_19  and  N_34 
REMARK    6  A    between atoms: N_38  and  C_24 
REMARK    7  A    between atoms: C_24  and  O_42 
REMARK    8  A    between atoms: O_43  and  C_25 
ROOT
HETATM    1  C   UNK N   1      29.284  16.689   6.443  0.00  0.00     0.215 C 
HETATM    2  N   UNK N   1      28.635  16.341   5.380  0.00  0.00    -0.343 N 
ATOM      3  HN  UNK N   1      28.940  15.478   4.931  1.00  0.00     0.164 HD
ENDROOT
BRANCH   2   4
HETATM    4  C   UNK N   1      27.527  17.031   4.750  0.00  0.00     0.177 C 
HETATM    5  C   UNK N   1      26.269  16.498   5.426  0.00  0.00     0.035 C 
HETATM    6  C   UNK N   1      24.972  16.765   4.679  0.00  0.00     0.013 C 
HETATM    7  C   UNK N   1      24.815  18.207   4.212  0.00  0.00     0.040 C 
HETATM    8  C   UNK N   1      25.394  19.113   5.310  0.00  0.00     0.135 C 
HETATM    9  N   UNK N   1      26.765  19.476   5.027  0.00  0.00    -0.341 N 
HETATM   10  C   UNK N   1      27.730  18.558   4.680  0.00  0.00     0.242 C 
HETATM   11  O   UNK N   1      28.812  18.961   4.273  0.00  0.00    -0.271 OA
BRANCH   7  12
HETATM   12  C   UNK N   1      23.358  18.446   3.865  0.00  0.00    -0.011 A 
HETATM   13  C   UNK N   1      22.461  17.378   4.050  0.00  0.00     0.011 A 
HETATM   14  C   UNK N   1      21.103  17.525   3.768  0.00  0.00     0.004 A 
HETATM   15  C   UNK N   1      20.622  18.738   3.279  0.00  0.00     0.045 A 
HETATM   16  C   UNK N   1      21.497  19.805   3.069  0.00  0.00     0.155 A 
HETATM   17  C   UNK N   1      22.859  19.671   3.360  0.00  0.00     0.161 A 
HETATM   18  F   UNK N   1      21.020  20.974   2.577  0.00  0.00    -0.203 F 
HETATM   19  F   UNK N   1      23.674  20.731   3.129  0.00  0.00    -0.202 F 
ENDBRANCH   7  12
BRANCH   9  20
HETATM   20  C   UNK N   1      27.063  20.894   5.056  0.00  0.00     0.243 C 
BRANCH  20  21
HETATM   21  C   UNK N   1      27.150  21.421   6.494  0.00  0.00     0.403 C 
HETATM   22  F   UNK N   1      26.011  22.137   6.822  0.00  0.00    -0.169 F 
HETATM   23  F   UNK N   1      28.242  22.260   6.599  0.00  0.00    -0.169 F 
HETATM   24  F   UNK N   1      27.305  20.375   7.383  0.00  0.00    -0.169 F 
ENDBRANCH  20  21
ENDBRANCH   9  20
ENDBRANCH   2   4
BRANCH   1  25
HETATM   25  N   UNK N   1      30.446  15.962   6.808  0.00  0.00    -0.348 N 
HETATM   26  C   UNK N   1      31.103  16.385   8.014  0.00  0.00     0.128 C 
HETATM   27  C   UNK N   1      32.026  17.558   7.630  0.00  0.00     0.045 C 
HETATM   28  C   UNK N   1      33.006  17.134   6.511  0.00  0.00     0.097 C 
HETATM   29  C   UNK N   1      32.242  16.540   5.316  0.00  0.00     0.045 C 
HETATM   30  C   UNK N   1      31.301  15.432   5.770  0.00  0.00     0.128 C 
BRANCH  28  31
HETATM   31  N   UNK N   1      34.058  16.219   6.988  0.00  0.00    -0.305 N 
HETATM   32  C   UNK N   1      34.602  16.108   8.216  0.00  0.00     0.082 A 
HETATM   33  C   UNK N   1      34.343  16.820   9.385  0.00  0.00     0.035 A 
HETATM   34  C   UNK N   1      35.554  15.140   8.187  0.00  0.00     0.135 A 
HETATM   35  C   UNK N   1      35.093  16.489  10.525  0.00  0.00     0.019 A 
HETATM   36  C   UNK N   1      36.068  15.468  10.450  0.00  0.00     0.090 A 
HETATM   37  N   UNK N   1      36.290  14.803   9.274  0.00  0.00    -0.350 N 
ATOM     38  HN  UNK N   1      36.996  14.069   9.217  1.00  0.00     0.166 HD
HETATM   39  N   UNK N   1      35.652  14.611   6.955  0.00  0.00    -0.306 N 
HETATM   40  C   UNK N   1      34.727  15.300   6.240  0.00  0.00     0.226 A 
ATOM     41  HN  UNK N   1      36.274  13.869   6.635  1.00  0.00     0.171 HD
BRANCH  40  42
HETATM   42  O   UNK N   1      34.500  15.083   4.934  0.00  0.00    -0.332 OA
HETATM   43  H   UNK N   1      34.001  14.339   4.659  0.00  0.00     0.221 HD
ENDBRANCH  40  42
ENDBRANCH  28  31
ENDBRANCH   1  25
BRANCH   1  44
HETATM   44  O   UNK N   1      28.942  17.785   7.154  0.00  0.00    -0.333 OA
HETATM   45  H   UNK N   1      29.052  17.796   8.083  0.00  0.00     0.220 HD
ENDBRANCH   1  44
TORSDOF 8
ENDMDL
MODEL 5
REMARK VINA RESULT:      -8.2      9.362     14.634
REMARK  8 active torsions:
REMARK  status: ('A' for Active; 'I' for Inactive)
REMARK    1  A    between atoms: C_26  and  C_14 
REMARK    2  A    between atoms: N_39  and  C_14 
REMARK    3  A    between atoms: C_15  and  C_17 
REMARK    4  A    between atoms: N_40  and  C_16 
REMARK    5  A    between atoms: C_19  and  N_34 
REMARK    6  A    between atoms: N_38  and  C_24 
REMARK    7  A    between atoms: C_24  and  O_42 
REMARK    8  A    between atoms: O_43  and  C_25 
ROOT
HETATM    1  C   UNK N   1      34.628  17.015   8.760  0.00  0.00     0.215 C 
HETATM    2  N   UNK N   1      34.715  15.731   8.887  0.00  0.00    -0.343 N 
ATOM      3  HN  UNK N   1      34.220  15.176   8.188  1.00  0.00     0.164 HD
ENDROOT
BRANCH   2   4
HETATM    4  C   UNK N   1      35.430  14.985   9.903  0.00  0.00     0.177 C 
HETATM    5  C   UNK N   1      34.381  14.571  10.929  0.00  0.00     0.035 C 
HETATM    6  C   UNK N   1      34.934  14.128  12.275  0.00  0.00     0.013 C 
HETATM    7  C   UNK N   1      36.076  13.124  12.172  0.00  0.00     0.040 C 
HETATM    8  C   UNK N   1      35.753  12.177  11.005  0.00  0.00     0.135 C 
HETATM    9  N   UNK N   1      36.404  12.603   9.785  0.00  0.00    -0.341 N 
HETATM   10  C   UNK N   1      36.348  13.895   9.313  0.00  0.00     0.242 C 
HETATM   11  O   UNK N   1      37.076  14.218   8.384  0.00  0.00    -0.271 OA
BRANCH   7  12
HETATM   12  C   UNK N   1      36.257  12.461  13.524  0.00  0.00    -0.011 A 
HETATM   13  C   UNK N   1      35.462  12.923  14.589  0.00  0.00     0.011 A 
HETATM   14  C   UNK N   1      35.560  12.353  15.857  0.00  0.00     0.004 A 
HETATM   15  C   UNK N   1      36.469  11.322  16.087  0.00  0.00     0.045 A 
HETATM   16  C   UNK N   1      37.283  10.861  15.052  0.00  0.00     0.155 A 
HETATM   17  C   UNK N   1      37.184  11.419  13.772  0.00  0.00     0.161 A 
HETATM   18  F   UNK N   1      38.175   9.870  15.292  0.00  0.00    -0.203 F 
HETATM   19  F   UNK N   1      38.002  10.947  12.798  0.00  0.00    -0.202 F 
ENDBRANCH   7  12
BRANCH   9  20
HETATM   20  C   UNK N   1      37.196  11.596   9.106  0.00  0.00     0.243 C 
BRANCH  20  21
HETATM   21  C   UNK N   1      38.655  11.615   9.578  0.00  0.00     0.403 C 
HETATM   22  F   UNK N   1      38.847  12.599  10.534  0.00  0.00    -0.169 F 
HETATM   23  F   UNK N   1      39.473  11.885   8.499  0.00  0.00    -0.169 F 
HETATM   24  F   UNK N   1      39.007  10.388  10.108  0.00  0.00    -0.169 F 
ENDBRANCH  20  21
ENDBRANCH   9  20
ENDBRANCH   2   4
BRANCH   1  25
HETATM   25  N   UNK N   1      33.743  17.552   7.789  0.00  0.00    -0.348 N 
HETATM   26  C   UNK N   1      32.435  17.915   8.259  0.00  0.00     0.128 C 
HETATM   27  C   UNK N   1      31.585  16.629   8.241  0.00  0.00     0.045 C 
HETATM   28  C   UNK N   1      31.579  16.001   6.828  0.00  0.00     0.097 C 
HETATM   29  C   UNK N   1      33.016  15.791   6.322  0.00  0.00     0.045 C 
HETATM   30  C   UNK N   1      33.822  17.079   6.426  0.00  0.00     0.128 C 
BRANCH  28  31
HETATM   31  N   UNK N   1      30.773  16.769   5.863  0.00  0.00    -0.305 N 
HETATM   32  C   UNK N   1      29.722  17.583   6.083  0.00  0.00     0.082 A 
HETATM   33  C   UNK N   1      29.084  17.931   7.272  0.00  0.00     0.035 A 
HETATM   34  C   UNK N   1      29.282  18.062   4.891  0.00  0.00     0.135 A 
HETATM   35  C   UNK N   1      27.984  18.799   7.186  0.00  0.00     0.019 A 
HETATM   36  C   UNK N   1      27.567  19.280   5.924  0.00  0.00     0.090 A 
HETATM   37  N   UNK N   1      28.224  18.901   4.784  0.00  0.00    -0.350 N 
ATOM     38  HN  UNK N   1      27.922  19.244   3.872  1.00  0.00     0.166 HD
HETATM   39  N   UNK N   1      30.025  17.573   3.883  0.00  0.00    -0.306 N 
HETATM   40  C   UNK N   1      30.926  16.777   4.510  0.00  0.00     0.226 A 
ATOM     41  HN  UNK N   1      29.932  17.757   2.884  1.00  0.00     0.171 HD
BRANCH  40  42
HETATM   42  O   UNK N   1      31.871  16.080   3.856  0.00  0.00    -0.332 OA
HETATM   43  H   UNK N   1      32.778  16.226   4.041  0.00  0.00     0.221 HD
ENDBRANCH  40  42
ENDBRANCH  28  31
ENDBRANCH   1  25
BRANCH   1  44
HETATM   44  O   UNK N   1      35.280  17.854   9.593  0.00  0.00    -0.333 OA
HETATM   45  H   UNK N   1      36.184  18.049   9.450  0.00  0.00     0.220 HD
ENDBRANCH   1  44
TORSDOF 8
ENDMDL
MODEL 6
REMARK VINA RESULT:      -8.2      5.497     11.128
REMARK  8 active torsions:
REMARK  status: ('A' for Active; 'I' for Inactive)
REMARK    1  A    between atoms: C_26  and  C_14 
REMARK    2  A    between atoms: N_39  and  C_14 
REMARK    3  A    between atoms: C_15  and  C_17 
REMARK    4  A    between atoms: N_40  and  C_16 
REMARK    5  A    between atoms: C_19  and  N_34 
REMARK    6  A    between atoms: N_38  and  C_24 
REMARK    7  A    between atoms: C_24  and  O_42 
REMARK    8  A    between atoms: O_43  and  C_25 
ROOT
HETATM    1  C   UNK N   1      27.300  18.237   3.649  0.00  0.00     0.215 C 
HETATM    2  N   UNK N   1      27.957  17.180   4.000  0.00  0.00    -0.343 N 
ATOM      3  HN  UNK N   1      27.508  16.286   3.801  1.00  0.00     0.164 HD
ENDROOT
BRANCH   2   4
HETATM    4  C   UNK N   1      29.255  17.112   4.643  0.00  0.00     0.177 C 
HETATM    5  C   UNK N   1      28.998  16.553   6.037  0.00  0.00     0.035 C 
HETATM    6  C   UNK N   1      30.129  16.758   7.033  0.00  0.00     0.013 C 
HETATM    7  C   UNK N   1      31.502  16.372   6.495  0.00  0.00     0.040 C 
HETATM    8  C   UNK N   1      31.320  15.119   5.624  0.00  0.00     0.135 C 
HETATM    9  N   UNK N   1      31.190  15.463   4.225  0.00  0.00    -0.341 N 
HETATM   10  C   UNK N   1      30.324  16.429   3.765  0.00  0.00     0.242 C 
HETATM   11  O   UNK N   1      30.408  16.793   2.599  0.00  0.00    -0.271 OA
BRANCH   7  12
HETATM   12  C   UNK N   1      32.455  16.226   7.666  0.00  0.00    -0.011 A 
HETATM   13  C   UNK N   1      32.320  15.083   8.476  0.00  0.00     0.011 A 
HETATM   14  C   UNK N   1      33.169  14.870   9.562  0.00  0.00     0.004 A 
HETATM   15  C   UNK N   1      34.156  15.805   9.866  0.00  0.00     0.045 A 
HETATM   16  C   UNK N   1      34.296  16.955   9.088  0.00  0.00     0.155 A 
HETATM   17  C   UNK N   1      33.456  17.173   7.990  0.00  0.00     0.161 A 
HETATM   18  F   UNK N   1      35.248  17.865   9.404  0.00  0.00    -0.203 F 
HETATM   19  F   UNK N   1      33.621  18.310   7.268  0.00  0.00    -0.202 F 
ENDBRANCH   7  12
BRANCH   9  20
HETATM   20  C   UNK N   1      32.086  14.774   3.318  0.00  0.00     0.243 C 
BRANCH  20  21
HETATM   21  C   UNK N   1      33.506  15.350   3.384  0.00  0.00     0.403 C 
HETATM   22  F   UNK N   1      34.207  14.800   4.444  0.00  0.00    -0.169 F 
HETATM   23  F   UNK N   1      33.428  16.717   3.570  0.00  0.00    -0.169 F 
HETATM   24  F   UNK N   1      34.185  15.099   2.207  0.00  0.00    -0.169 F 
ENDBRANCH  20  21
ENDBRANCH   9  20
ENDBRANCH   2   4
BRANCH   1  25
HETATM   25  N   UNK N   1      25.970  18.096   3.179  0.00  0.00    -0.348 N 
HETATM   26  C   UNK N   1      25.239  19.316   2.974  0.00  0.00     0.128 C 
HETATM   27  C   UNK N   1      24.653  19.717   4.341  0.00  0.00     0.045 C 
HETATM   28  C   UNK N   1      23.790  18.572   4.920  0.00  0.00     0.097 C 
HETATM   29  C   UNK N   1      24.587  17.258   4.958  0.00  0.00     0.045 C 
HETATM   30  C   UNK N   1      25.193  16.951   3.596  0.00  0.00     0.128 C 
BRANCH  28  31
HETATM   31  N   UNK N   1      22.508  18.407   4.211  0.00  0.00    -0.305 N 
HETATM   32  C   UNK N   1      21.703  17.328   4.141  0.00  0.00     0.082 A 
HETATM   33  C   UNK N   1      21.842  16.061   4.703  0.00  0.00     0.035 A 
HETATM   34  C   UNK N   1      20.635  17.629   3.358  0.00  0.00     0.135 A 
HETATM   35  C   UNK N   1      20.835  15.120   4.436  0.00  0.00     0.019 A 
HETATM   36  C   UNK N   1      19.737  15.481   3.622  0.00  0.00     0.090 A 
HETATM   37  N   UNK N   1      19.651  16.739   3.087  0.00  0.00    -0.350 N 
ATOM     38  HN  UNK N   1      18.862  17.000   2.496  1.00  0.00     0.166 HD
HETATM   39  N   UNK N   1      20.724  18.891   2.903  0.00  0.00    -0.306 N 
HETATM   40  C   UNK N   1      21.888  19.339   3.438  0.00  0.00     0.226 A 
ATOM     41  HN  UNK N   1      20.072  19.392   2.300  1.00  0.00     0.171 HD
BRANCH  40  42
HETATM   42  O   UNK N   1      22.365  20.577   3.224  0.00  0.00    -0.332 OA
HETATM   43  H   UNK N   1      23.008  20.727   2.559  0.00  0.00     0.221 HD
ENDBRANCH  40  42
ENDBRANCH  28  31
ENDBRANCH   1  25
BRANCH   1  44
HETATM   44  O   UNK N   1      27.813  19.475   3.814  0.00  0.00    -0.333 OA
HETATM   45  H   UNK N   1      28.198  19.926   3.089  0.00  0.00     0.220 HD
ENDBRANCH   1  44
TORSDOF 8
ENDMDL
MODEL 7
REMARK VINA RESULT:      -8.2      3.331      4.866
REMARK  8 active torsions:
REMARK  status: ('A' for Active; 'I' for Inactive)
REMARK    1  A    between atoms: C_26  and  C_14 
REMARK    2  A    between atoms: N_39  and  C_14 
REMARK    3  A    between atoms: C_15  and  C_17 
REMARK    4  A    between atoms: N_40  and  C_16 
REMARK    5  A    between atoms: C_19  and  N_34 
REMARK    6  A    between atoms: N_38  and  C_24 
REMARK    7  A    between atoms: C_24  and  O_42 
REMARK    8  A    between atoms: O_43  and  C_25 
ROOT
HETATM    1  C   UNK N   1      30.449  16.875   6.493  0.00  0.00     0.215 C 
HETATM    2  N   UNK N   1      29.161  16.930   6.585  0.00  0.00    -0.343 N 
ATOM      3  HN  UNK N   1      28.782  17.022   7.528  1.00  0.00     0.164 HD
ENDROOT
BRANCH   2   4
HETATM    4  C   UNK N   1      28.189  16.878   5.511  0.00  0.00     0.177 C 
HETATM    5  C   UNK N   1      27.307  15.671   5.808  0.00  0.00     0.035 C 
HETATM    6  C   UNK N   1      26.477  15.174   4.636  0.00  0.00     0.013 C 
HETATM    7  C   UNK N   1      25.725  16.277   3.900  0.00  0.00     0.040 C 
HETATM    8  C   UNK N   1      25.235  17.282   4.955  0.00  0.00     0.135 C 
HETATM    9  N   UNK N   1      26.150  18.395   5.089  0.00  0.00    -0.341 N 
HETATM   10  C   UNK N   1      27.508  18.237   5.250  0.00  0.00     0.242 C 
HETATM   11  O   UNK N   1      28.233  19.219   5.166  0.00  0.00    -0.271 OA
BRANCH   7  12
HETATM   12  C   UNK N   1      24.643  15.639   3.050  0.00  0.00    -0.011 A 
HETATM   13  C   UNK N   1      23.316  15.726   3.509  0.00  0.00     0.011 A 
HETATM   14  C   UNK N   1      22.265  15.179   2.775  0.00  0.00     0.004 A 
HETATM   15  C   UNK N   1      22.526  14.518   1.576  0.00  0.00     0.045 A 
HETATM   16  C   UNK N   1      23.836  14.402   1.110  0.00  0.00     0.155 A 
HETATM   17  C   UNK N   1      24.897  14.958   1.834  0.00  0.00     0.161 A 
HETATM   18  F   UNK N   1      24.079  13.743  -0.048  0.00  0.00    -0.203 F 
HETATM   19  F   UNK N   1      26.156  14.812   1.349  0.00  0.00    -0.202 F 
ENDBRANCH   7  12
BRANCH   9  20
HETATM   20  C   UNK N   1      25.563  19.714   4.970  0.00  0.00     0.243 C 
BRANCH  20  21
HETATM   21  C   UNK N   1      25.468  20.159   3.506  0.00  0.00     0.403 C 
HETATM   22  F   UNK N   1      25.487  19.063   2.660  0.00  0.00    -0.169 F 
HETATM   23  F   UNK N   1      26.552  20.962   3.209  0.00  0.00    -0.169 F 
HETATM   24  F   UNK N   1      24.308  20.880   3.295  0.00  0.00    -0.169 F 
ENDBRANCH  20  21
ENDBRANCH   9  20
ENDBRANCH   2   4
BRANCH   1  25
HETATM   25  N   UNK N   1      31.221  16.779   7.680  0.00  0.00    -0.348 N 
HETATM   26  C   UNK N   1      32.122  17.868   7.937  0.00  0.00     0.128 C 
HETATM   27  C   UNK N   1      33.410  17.575   7.143  0.00  0.00     0.045 C 
HETATM   28  C   UNK N   1      33.986  16.194   7.533  0.00  0.00     0.097 C 
HETATM   29  C   UNK N   1      32.916  15.099   7.388  0.00  0.00     0.045 C 
HETATM   30  C   UNK N   1      31.647  15.478   8.140  0.00  0.00     0.128 C 
BRANCH  28  31
HETATM   31  N   UNK N   1      34.591  16.184   8.877  0.00  0.00    -0.305 N 
HETATM   32  C   UNK N   1      34.753  15.156   9.734  0.00  0.00     0.082 A 
HETATM   33  C   UNK N   1      34.397  13.815   9.612  0.00  0.00     0.035 A 
HETATM   34  C   UNK N   1      35.344  15.620  10.866  0.00  0.00     0.135 A 
HETATM   35  C   UNK N   1      34.682  12.968  10.695  0.00  0.00     0.019 A 
HETATM   36  C   UNK N   1      35.305  13.493  11.849  0.00  0.00     0.090 A 
HETATM   37  N   UNK N   1      35.628  14.822  11.923  0.00  0.00    -0.350 N 
ATOM     38  HN  UNK N   1      36.075  15.203  12.757  1.00  0.00     0.166 HD
HETATM   39  N   UNK N   1      35.570  16.942  10.773  0.00  0.00    -0.306 N 
HETATM   40  C   UNK N   1      35.090  17.260   9.544  0.00  0.00     0.226 A 
ATOM     41  HN  UNK N   1      36.000  17.558  11.462  1.00  0.00     0.171 HD
BRANCH  40  42
HETATM   42  O   UNK N   1      35.115  18.508   9.047  0.00  0.00    -0.332 OA
HETATM   43  H   UNK N   1      35.535  18.681   8.227  0.00  0.00     0.221 HD
ENDBRANCH  40  42
ENDBRANCH  28  31
ENDBRANCH   1  25
BRANCH   1  44
HETATM   44  O   UNK N   1      31.070  16.804   5.296  0.00  0.00    -0.333 OA
HETATM   45  H   UNK N   1      31.741  16.167   5.151  0.00  0.00     0.220 HD
ENDBRANCH   1  44
TORSDOF 8
ENDMDL
MODEL 8
REMARK VINA RESULT:      -8.1     11.012     16.251
REMARK  8 active torsions:
REMARK  status: ('A' for Active; 'I' for Inactive)
REMARK    1  A    between atoms: C_26  and  C_14 
REMARK    2  A    between atoms: N_39  and  C_14 
REMARK    3  A    between atoms: C_15  and  C_17 
REMARK    4  A    between atoms: N_40  and  C_16 
REMARK    5  A    between atoms: C_19  and  N_34 
REMARK    6  A    between atoms: N_38  and  C_24 
REMARK    7  A    between atoms: C_24  and  O_42 
REMARK    8  A    between atoms: O_43  and  C_25 
ROOT
HETATM    1  C   UNK N   1      34.934  13.315  10.544  0.00  0.00     0.215 C 
HETATM    2  N   UNK N   1      35.826  13.786  11.353  0.00  0.00    -0.343 N 
ATOM      3  HN  UNK N   1      36.328  14.616  11.035  1.00  0.00     0.164 HD
ENDROOT
BRANCH   2   4
HETATM    4  C   UNK N   1      36.198  13.279  12.659  0.00  0.00     0.177 C 
HETATM    5  C   UNK N   1      34.911  13.248  13.475  0.00  0.00     0.035 C 
HETATM    6  C   UNK N   1      35.102  13.134  14.979  0.00  0.00     0.013 C 
HETATM    7  C   UNK N   1      36.081  12.042  15.396  0.00  0.00     0.040 C 
HETATM    8  C   UNK N   1      35.872  10.851  14.448  0.00  0.00     0.135 C 
HETATM    9  N   UNK N   1      36.817  10.876  13.352  0.00  0.00    -0.341 N 
HETATM   10  C   UNK N   1      37.048  11.994  12.584  0.00  0.00     0.242 C 
HETATM   11  O   UNK N   1      37.993  11.992  11.805  0.00  0.00    -0.271 OA
BRANCH   7  12
HETATM   12  C   UNK N   1      35.879  11.751  16.870  0.00  0.00    -0.011 A 
HETATM   13  C   UNK N   1      36.223  10.468  17.334  0.00  0.00     0.011 A 
HETATM   14  C   UNK N   1      36.081  10.130  18.679  0.00  0.00     0.004 A 
HETATM   15  C   UNK N   1      35.577  11.065  19.581  0.00  0.00     0.045 A 
HETATM   16  C   UNK N   1      35.211  12.337  19.140  0.00  0.00     0.155 A 
HETATM   17  C   UNK N   1      35.360  12.691  17.794  0.00  0.00     0.161 A 
HETATM   18  F   UNK N   1      34.706  13.232  20.023  0.00  0.00    -0.203 F 
HETATM   19  F   UNK N   1      34.982  13.935  17.409  0.00  0.00    -0.202 F 
ENDBRANCH   7  12
BRANCH   9  20
HETATM   20  C   UNK N   1      37.576   9.659  13.143  0.00  0.00     0.243 C 
BRANCH  20  21
HETATM   21  C   UNK N   1      38.608   9.442  14.256  0.00  0.00     0.403 C 
HETATM   22  F   UNK N   1      39.072  10.655  14.736  0.00  0.00    -0.169 F 
HETATM   23  F   UNK N   1      39.678   8.734  13.743  0.00  0.00    -0.169 F 
HETATM   24  F   UNK N   1      38.054   8.721  15.296  0.00  0.00    -0.169 F 
ENDBRANCH  20  21
ENDBRANCH   9  20
ENDBRANCH   2   4
BRANCH   1  25
HETATM   25  N   UNK N   1      34.832  13.862   9.239  0.00  0.00    -0.348 N 
HETATM   26  C   UNK N   1      35.367  15.184   9.065  0.00  0.00     0.128 C 
HETATM   27  C   UNK N   1      34.267  16.170   9.504  0.00  0.00     0.045 C 
HETATM   28  C   UNK N   1      32.966  15.923   8.705  0.00  0.00     0.097 C 
HETATM   29  C   UNK N   1      32.541  14.448   8.805  0.00  0.00     0.045 C 
HETATM   30  C   UNK N   1      33.690  13.525   8.421  0.00  0.00     0.128 C 
BRANCH  28  31
HETATM   31  N   UNK N   1      33.061  16.364   7.303  0.00  0.00    -0.305 N 
HETATM   32  C   UNK N   1      32.437  15.882   6.210  0.00  0.00     0.082 A 
HETATM   33  C   UNK N   1      31.533  14.830   6.078  0.00  0.00     0.035 A 
HETATM   34  C   UNK N   1      32.845  16.589   5.124  0.00  0.00     0.135 A 
HETATM   35  C   UNK N   1      31.058  14.542   4.789  0.00  0.00     0.019 A 
HETATM   36  C   UNK N   1      31.504  15.311   3.690  0.00  0.00     0.090 A 
HETATM   37  N   UNK N   1      32.401  16.330   3.872  0.00  0.00    -0.350 N 
ATOM     38  HN  UNK N   1      32.727  16.882   3.079  1.00  0.00     0.166 HD
HETATM   39  N   UNK N   1      33.736  17.530   5.482  0.00  0.00    -0.306 N 
HETATM   40  C   UNK N   1      33.854  17.362   6.824  0.00  0.00     0.226 A 
ATOM     41  HN  UNK N   1      34.210  18.209   4.887  1.00  0.00     0.171 HD
BRANCH  40  42
HETATM   42  O   UNK N   1      34.665  18.111   7.589  0.00  0.00    -0.332 OA
HETATM   43  H   UNK N   1      34.309  18.787   8.132  0.00  0.00     0.221 HD
ENDBRANCH  40  42
ENDBRANCH  28  31
ENDBRANCH   1  25
BRANCH   1  44
HETATM   44  O   UNK N   1      34.171  12.252  10.875  0.00  0.00    -0.333 OA
HETATM   45  H   UNK N   1      33.540  12.322  11.563  0.00  0.00     0.220 HD
ENDBRANCH   1  44
TORSDOF 8
ENDMDL
MODEL 9
REMARK VINA RESULT:      -8.1      5.791      9.229
REMARK  8 active torsions:
REMARK  status: ('A' for Active; 'I' for Inactive)
REMARK    1  A    between atoms: C_26  and  C_14 
REMARK    2  A    between atoms: N_39  and  C_14 
REMARK    3  A    between atoms: C_15  and  C_17 
REMARK    4  A    between atoms: N_40  and  C_16 
REMARK    5  A    between atoms: C_19  and  N_34 
REMARK    6  A    between atoms: N_38  and  C_24 
REMARK    7  A    between atoms: C_24  and  O_42 
REMARK    8  A    between atoms: O_43  and  C_25 
ROOT
HETATM    1  C   UNK N   1      33.214  16.449   8.866  0.00  0.00     0.215 C 
HETATM    2  N   UNK N   1      31.982  16.064   8.958  0.00  0.00    -0.343 N 
ATOM      3  HN  UNK N   1      31.753  15.484   9.765  1.00  0.00     0.164 HD
ENDROOT
BRANCH   2   4
HETATM    4  C   UNK N   1      30.889  16.358   8.052  0.00  0.00     0.177 C 
HETATM    5  C   UNK N   1      30.627  17.853   8.190  0.00  0.00     0.035 C 
HETATM    6  C   UNK N   1      29.285  18.325   7.651  0.00  0.00     0.013 C 
HETATM    7  C   UNK N   1      28.964  17.805   6.255  0.00  0.00     0.040 C 
HETATM    8  C   UNK N   1      30.275  17.796   5.453  0.00  0.00     0.135 C 
HETATM    9  N   UNK N   1      30.902  16.492   5.480  0.00  0.00    -0.341 N 
HETATM   10  C   UNK N   1      31.108  15.780   6.639  0.00  0.00     0.242 C 
HETATM   11  O   UNK N   1      31.468  14.612   6.561  0.00  0.00    -0.271 OA
BRANCH   7  12
HETATM   12  C   UNK N   1      27.844  18.645   5.673  0.00  0.00    -0.011 A 
HETATM   13  C   UNK N   1      27.529  19.852   6.324  0.00  0.00     0.011 A 
HETATM   14  C   UNK N   1      26.522  20.687   5.840  0.00  0.00     0.004 A 
HETATM   15  C   UNK N   1      25.801  20.320   4.705  0.00  0.00     0.045 A 
HETATM   16  C   UNK N   1      26.083  19.118   4.054  0.00  0.00     0.155 A 
HETATM   17  C   UNK N   1      27.099  18.278   4.526  0.00  0.00     0.161 A 
HETATM   18  F   UNK N   1      25.364  18.764   2.963  0.00  0.00    -0.203 F 
HETATM   19  F   UNK N   1      27.331  17.115   3.868  0.00  0.00    -0.202 F 
ENDBRANCH   7  12
BRANCH   9  20
HETATM   20  C   UNK N   1      31.245  15.929   4.189  0.00  0.00     0.243 C 
BRANCH  20  21
HETATM   21  C   UNK N   1      32.519  16.564   3.619  0.00  0.00     0.403 C 
HETATM   22  F   UNK N   1      33.080  17.441   4.533  0.00  0.00    -0.169 F 
HETATM   23  F   UNK N   1      32.197  17.269   2.476  0.00  0.00    -0.169 F 
HETATM   24  F   UNK N   1      33.443  15.588   3.296  0.00  0.00    -0.169 F 
ENDBRANCH  20  21
ENDBRANCH   9  20
ENDBRANCH   2   4
BRANCH   1  25
HETATM   25  N   UNK N   1      34.169  15.920   9.771  0.00  0.00    -0.348 N 
HETATM   26  C   UNK N   1      35.542  15.989   9.352  0.00  0.00     0.128 C 
HETATM   27  C   UNK N   1      35.795  14.761   8.455  0.00  0.00     0.045 C 
HETATM   28  C   UNK N   1      35.446  13.457   9.209  0.00  0.00     0.097 C 
HETATM   29  C   UNK N   1      34.015  13.520   9.769  0.00  0.00     0.045 C 
HETATM   30  C   UNK N   1      33.810  14.786  10.591  0.00  0.00     0.128 C 
BRANCH  28  31
HETATM   31  N   UNK N   1      36.424  13.123  10.259  0.00  0.00    -0.305 N 
HETATM   32  C   UNK N   1      36.240  12.460  11.418  0.00  0.00     0.082 A 
HETATM   33  C   UNK N   1      35.086  11.906  11.968  0.00  0.00     0.035 A 
HETATM   34  C   UNK N   1      37.424  12.403  12.082  0.00  0.00     0.135 A 
HETATM   35  C   UNK N   1      35.201  11.282  13.220  0.00  0.00     0.019 A 
HETATM   36  C   UNK N   1      36.455  11.240  13.870  0.00  0.00     0.090 A 
HETATM   37  N   UNK N   1      37.559  11.807  13.291  0.00  0.00    -0.350 N 
ATOM     38  HN  UNK N   1      38.464  11.781  13.760  1.00  0.00     0.166 HD
HETATM   39  N   UNK N   1      38.388  13.024  11.380  0.00  0.00    -0.306 N 
HETATM   40  C   UNK N   1      37.741  13.462  10.271  0.00  0.00     0.226 A 
ATOM     41  HN  UNK N   1      39.372  13.139  11.625  1.00  0.00     0.171 HD
BRANCH  40  42
HETATM   42  O   UNK N   1      38.350  14.152   9.291  0.00  0.00    -0.332 OA
HETATM   43  H   UNK N   1      38.418  13.787   8.430  0.00  0.00     0.221 HD
ENDBRANCH  40  42
ENDBRANCH  28  31
ENDBRANCH   1  25
BRANCH   1  44
HETATM   44  O   UNK N   1      33.628  17.261   7.870  0.00  0.00    -0.333 OA
HETATM   45  H   UNK N   1      34.234  16.947   7.229  0.00  0.00     0.220 HD
ENDBRANCH   1  44
TORSDOF 8
ENDMDL
