MODEL 1
REMARK VINA RESULT:      -6.8      0.000      0.000
REMARK  7 active torsions:
REMARK  status: ('A' for Active; 'I' for Inactive)
REMARK    1  A    between atoms: N_21  and  C_13 
REMARK    2  A    between atoms: O_23  and  C_14 
REMARK    3  A    between atoms: O_26  and  C_15 
REMARK    4  A    between atoms: S_27  and  C_16 
REMARK    5  A    between atoms: N_22  and  C_17 
REMARK    6  A    between atoms: N_21  and  C_18 
REMARK    7  A    between atoms: S_27  and  N_22 
ROOT
HETATM    1  C   UNK N   1      27.660  20.536   6.203  0.00  0.00     0.019 A 
HETATM    2  C   UNK N   1      27.862  19.616   7.231  0.00  0.00     0.035 A 
HETATM    3  C   UNK N   1      27.954  20.167   4.890  0.00  0.00     0.090 A 
HETATM    4  C   UNK N   1      28.331  18.335   6.938  0.00  0.00     0.086 A 
HETATM    5  C   UNK N   1      28.634  18.003   5.609  0.00  0.00     0.133 A 
HETATM    6  N   UNK N   1      28.443  18.926   4.622  0.00  0.00    -0.350 N 
ATOM      7  HN  UNK N   1      28.672  18.679   3.660  1.00  0.00     0.166 HD
ENDROOT
BRANCH   4   8
HETATM    8  N   UNK N   1      28.567  17.432   8.001  0.00  0.00    -0.277 N 
HETATM    9  H   UNK N   1      27.934  16.692   8.137  0.00  0.00     0.179 HD
BRANCH   8  10
HETATM   10  S   UNK N   1      29.938  17.572   9.089  0.00  0.00     0.263 S 
HETATM   11  O   UNK N   1      29.611  16.646  10.270  0.00  0.00    -0.200 OA
HETATM   12  O   UNK N   1      29.877  18.986   9.690  0.00  0.00    -0.200 OA
BRANCH  10  13
HETATM   13  C   UNK N   1      31.466  17.211   8.250  0.00  0.00     0.080 A 
HETATM   14  C   UNK N   1      32.438  18.197   8.057  0.00  0.00     0.028 A 
HETATM   15  C   UNK N   1      33.625  17.878   7.389  0.00  0.00     0.038 A 
HETATM   16  C   UNK N   1      33.843  16.578   6.911  0.00  0.00     0.068 A 
HETATM   17  C   UNK N   1      32.859  15.596   7.112  0.00  0.00     0.038 A 
HETATM   18  C   UNK N   1      31.678  15.915   7.778  0.00  0.00     0.028 A 
BRANCH  16  19
HETATM   19  O   UNK N   1      34.999  16.296   6.264  0.00  0.00    -0.356 OA
HETATM   20  C   UNK N   1      35.335  15.027   5.847  0.00  0.00     0.210 C 
ENDBRANCH  16  19
ENDBRANCH  10  13
ENDBRANCH   8  10
ENDBRANCH   4   8
BRANCH   5  21
HETATM   21  N   UNK N   1      29.191  16.734   5.309  0.00  0.00    -0.341 N 
HETATM   22  H   UNK N   1      28.763  15.937   5.698  0.00  0.00     0.167 HD
BRANCH  21  23
HETATM   23  C   UNK N   1      30.328  16.544   4.485  0.00  0.00     0.033 A 
HETATM   24  C   UNK N   1      30.520  15.305   3.866  0.00  0.00     0.032 A 
HETATM   25  C   UNK N   1      31.690  15.054   3.143  0.00  0.00     0.039 A 
HETATM   26  C   UNK N   1      32.680  16.037   3.050  0.00  0.00     0.065 A 
HETATM   27  C   UNK N   1      32.493  17.277   3.664  0.00  0.00     0.039 A 
HETATM   28  C   UNK N   1      31.325  17.529   4.384  0.00  0.00     0.032 A 
BRANCH  26  29
HETATM   29  O   UNK N   1      33.813  15.787   2.374  0.00  0.00    -0.361 OA
HETATM   30  H   UNK N   1      34.122  14.911   2.250  0.00  0.00     0.217 HD
ENDBRANCH  26  29
ENDBRANCH  21  23
ENDBRANCH   5  21
TORSDOF 7
ENDMDL
MODEL 2
REMARK VINA RESULT:      -6.8      3.008      4.807
REMARK  7 active torsions:
REMARK  status: ('A' for Active; 'I' for Inactive)
REMARK    1  A    between atoms: N_21  and  C_13 
REMARK    2  A    between atoms: O_23  and  C_14 
REMARK    3  A    between atoms: O_26  and  C_15 
REMARK    4  A    between atoms: S_27  and  C_16 
REMARK    5  A    between atoms: N_22  and  C_17 
REMARK    6  A    between atoms: N_21  and  C_18 
REMARK    7  A    between atoms: S_27  and  N_22 
ROOT
HETATM    1  C   UNK N   1      29.320  17.953   9.262  0.00  0.00     0.019 A 
HETATM    2  C   UNK N   1      30.135  17.836   8.138  0.00  0.00     0.035 A 
HETATM    3  C   UNK N   1      27.940  17.798   9.123  0.00  0.00     0.090 A 
HETATM    4  C   UNK N   1      29.572  17.543   6.895  0.00  0.00     0.086 A 
HETATM    5  C   UNK N   1      28.180  17.412   6.787  0.00  0.00     0.133 A 
HETATM    6  N   UNK N   1      27.401  17.546   7.900  0.00  0.00    -0.350 N 
ATOM      7  HN  UNK N   1      26.389  17.455   7.812  1.00  0.00     0.166 HD
ENDROOT
BRANCH   4   8
HETATM    8  N   UNK N   1      30.414  17.470   5.761  0.00  0.00    -0.277 N 
HETATM    9  H   UNK N   1      30.217  18.052   4.993  0.00  0.00     0.179 HD
BRANCH   8  10
HETATM   10  S   UNK N   1      31.794  16.389   5.661  0.00  0.00     0.263 S 
HETATM   11  O   UNK N   1      32.399  16.637   4.271  0.00  0.00    -0.200 OA
HETATM   12  O   UNK N   1      31.227  14.963   5.577  0.00  0.00    -0.200 OA
BRANCH  10  13
HETATM   13  C   UNK N   1      32.910  16.642   7.024  0.00  0.00     0.080 A 
HETATM   14  C   UNK N   1      33.116  15.650   7.986  0.00  0.00     0.028 A 
HETATM   15  C   UNK N   1      33.998  15.886   9.048  0.00  0.00     0.038 A 
HETATM   16  C   UNK N   1      34.673  17.110   9.150  0.00  0.00     0.068 A 
HETATM   17  C   UNK N   1      34.459  18.098   8.176  0.00  0.00     0.038 A 
HETATM   18  C   UNK N   1      33.582  17.862   7.120  0.00  0.00     0.028 A 
BRANCH  16  19
HETATM   19  O   UNK N   1      35.518  17.314  10.188  0.00  0.00    -0.356 OA
HETATM   20  C   UNK N   1      35.699  16.397  11.200  0.00  0.00     0.210 C 
ENDBRANCH  16  19
ENDBRANCH  10  13
ENDBRANCH   8  10
ENDBRANCH   4   8
BRANCH   5  21
HETATM   21  N   UNK N   1      27.588  17.198   5.516  0.00  0.00    -0.341 N 
HETATM   22  H   UNK N   1      27.659  16.302   5.117  0.00  0.00     0.167 HD
BRANCH  21  23
HETATM   23  C   UNK N   1      26.902  18.200   4.786  0.00  0.00     0.033 A 
HETATM   24  C   UNK N   1      25.578  17.972   4.397  0.00  0.00     0.032 A 
HETATM   25  C   UNK N   1      24.916  18.891   3.578  0.00  0.00     0.039 A 
HETATM   26  C   UNK N   1      25.582  20.036   3.131  0.00  0.00     0.065 A 
HETATM   27  C   UNK N   1      26.904  20.271   3.517  0.00  0.00     0.039 A 
HETATM   28  C   UNK N   1      27.564  19.354   4.336  0.00  0.00     0.032 A 
BRANCH  26  29
HETATM   29  O   UNK N   1      24.954  20.908   2.326  0.00  0.00    -0.361 OA
HETATM   30  H   UNK N   1      24.801  20.711   1.422  0.00  0.00     0.217 HD
ENDBRANCH  26  29
ENDBRANCH  21  23
ENDBRANCH   5  21
TORSDOF 7
ENDMDL
MODEL 3
REMARK VINA RESULT:      -6.6      3.602      7.307
REMARK  7 active torsions:
REMARK  status: ('A' for Active; 'I' for Inactive)
REMARK    1  A    between atoms: N_21  and  C_13 
REMARK    2  A    between atoms: O_23  and  C_14 
REMARK    3  A    between atoms: O_26  and  C_15 
REMARK    4  A    between atoms: S_27  and  C_16 
REMARK    5  A    between atoms: N_22  and  C_17 
REMARK    6  A    between atoms: N_21  and  C_18 
REMARK    7  A    between atoms: S_27  and  N_22 
ROOT
HETATM    1  C   UNK N   1      29.730  14.091   2.574  0.00  0.00     0.019 A 
HETATM    2  C   UNK N   1      28.989  15.270   2.642  0.00  0.00     0.035 A 
HETATM    3  C   UNK N   1      30.955  14.017   3.238  0.00  0.00     0.090 A 
HETATM    4  C   UNK N   1      29.463  16.349   3.387  0.00  0.00     0.086 A 
HETATM    5  C   UNK N   1      30.707  16.248   4.028  0.00  0.00     0.133 A 
HETATM    6  N   UNK N   1      31.421  15.089   3.933  0.00  0.00    -0.350 N 
ATOM      7  HN  UNK N   1      32.328  15.025   4.397  1.00  0.00     0.166 HD
ENDROOT
BRANCH   4   8
HETATM    8  N   UNK N   1      28.714  17.549   3.408  0.00  0.00    -0.277 N 
HETATM    9  H   UNK N   1      28.803  18.171   2.651  0.00  0.00     0.179 HD
BRANCH   8  10
HETATM   10  S   UNK N   1      27.633  17.981   4.723  0.00  0.00     0.263 S 
HETATM   11  O   UNK N   1      28.511  18.734   5.734  0.00  0.00    -0.200 OA
HETATM   12  O   UNK N   1      27.271  16.671   5.440  0.00  0.00    -0.200 OA
BRANCH  10  13
HETATM   13  C   UNK N   1      26.224  18.889   4.126  0.00  0.00     0.080 A 
HETATM   14  C   UNK N   1      24.920  18.456   4.382  0.00  0.00     0.028 A 
HETATM   15  C   UNK N   1      23.835  19.193   3.893  0.00  0.00     0.038 A 
HETATM   16  C   UNK N   1      24.050  20.360   3.147  0.00  0.00     0.068 A 
HETATM   17  C   UNK N   1      25.365  20.786   2.897  0.00  0.00     0.038 A 
HETATM   18  C   UNK N   1      26.443  20.052   3.385  0.00  0.00     0.028 A 
BRANCH  16  19
HETATM   19  O   UNK N   1      22.984  21.053   2.682  0.00  0.00    -0.356 OA
HETATM   20  C   UNK N   1      21.705  20.543   2.670  0.00  0.00     0.210 C 
ENDBRANCH  16  19
ENDBRANCH  10  13
ENDBRANCH   8  10
ENDBRANCH   4   8
BRANCH   5  21
HETATM   21  N   UNK N   1      31.238  17.367   4.718  0.00  0.00    -0.341 N 
HETATM   22  H   UNK N   1      31.096  18.260   4.330  0.00  0.00     0.167 HD
BRANCH  21  23
HETATM   23  C   UNK N   1      31.962  17.275   5.933  0.00  0.00     0.033 A 
HETATM   24  C   UNK N   1      31.265  17.065   7.126  0.00  0.00     0.032 A 
HETATM   25  C   UNK N   1      31.941  17.087   8.350  0.00  0.00     0.039 A 
HETATM   26  C   UNK N   1      33.316  17.336   8.384  0.00  0.00     0.065 A 
HETATM   27  C   UNK N   1      34.019  17.545   7.196  0.00  0.00     0.039 A 
HETATM   28  C   UNK N   1      33.345  17.521   5.975  0.00  0.00     0.032 A 
BRANCH  26  29
HETATM   29  O   UNK N   1      33.962  17.380   9.561  0.00  0.00    -0.361 OA
HETATM   30  H   UNK N   1      33.497  17.315  10.373  0.00  0.00     0.217 HD
ENDBRANCH  26  29
ENDBRANCH  21  23
ENDBRANCH   5  21
TORSDOF 7
ENDMDL
MODEL 4
REMARK VINA RESULT:      -6.4      7.118     10.383
REMARK  7 active torsions:
REMARK  status: ('A' for Active; 'I' for Inactive)
REMARK    1  A    between atoms: N_21  and  C_13 
REMARK    2  A    between atoms: O_23  and  C_14 
REMARK    3  A    between atoms: O_26  and  C_15 
REMARK    4  A    between atoms: S_27  and  C_16 
REMARK    5  A    between atoms: N_22  and  C_17 
REMARK    6  A    between atoms: N_21  and  C_18 
REMARK    7  A    between atoms: S_27  and  N_22 
ROOT
HETATM    1  C   UNK N   1      36.829  10.899  10.847  0.00  0.00     0.019 A 
HETATM    2  C   UNK N   1      35.884  11.908  10.664  0.00  0.00     0.035 A 
HETATM    3  C   UNK N   1      37.730  10.996  11.908  0.00  0.00     0.090 A 
HETATM    4  C   UNK N   1      35.832  12.985  11.548  0.00  0.00     0.086 A 
HETATM    5  C   UNK N   1      36.765  13.061  12.593  0.00  0.00     0.133 A 
HETATM    6  N   UNK N   1      37.691  12.069  12.743  0.00  0.00    -0.350 N 
ATOM      7  HN  UNK N   1      38.370  12.134  13.501  1.00  0.00     0.166 HD
ENDROOT
BRANCH   4   8
HETATM    8  N   UNK N   1      34.892  14.017  11.317  0.00  0.00    -0.277 N 
HETATM    9  H   UNK N   1      33.961  13.875  11.602  0.00  0.00     0.179 HD
BRANCH   8  10
HETATM   10  S   UNK N   1      35.310  15.538  10.546  0.00  0.00     0.263 S 
HETATM   11  O   UNK N   1      36.670  15.290   9.877  0.00  0.00    -0.200 OA
HETATM   12  O   UNK N   1      35.621  16.531  11.677  0.00  0.00    -0.200 OA
BRANCH  10  13
HETATM   13  C   UNK N   1      34.017  16.078   9.448  0.00  0.00     0.080 A 
HETATM   14  C   UNK N   1      32.870  15.307   9.243  0.00  0.00     0.028 A 
HETATM   15  C   UNK N   1      31.876  15.761   8.368  0.00  0.00     0.038 A 
HETATM   16  C   UNK N   1      32.026  16.983   7.698  0.00  0.00     0.068 A 
HETATM   17  C   UNK N   1      33.184  17.750   7.913  0.00  0.00     0.038 A 
HETATM   18  C   UNK N   1      34.171  17.297   8.784  0.00  0.00     0.028 A 
BRANCH  16  19
HETATM   19  O   UNK N   1      31.052  17.398   6.854  0.00  0.00    -0.356 OA
HETATM   20  C   UNK N   1      29.960  16.624   6.530  0.00  0.00     0.210 C 
ENDBRANCH  16  19
ENDBRANCH  10  13
ENDBRANCH   8  10
ENDBRANCH   4   8
BRANCH   5  21
HETATM   21  N   UNK N   1      36.778  14.192  13.447  0.00  0.00    -0.341 N 
HETATM   22  H   UNK N   1      36.992  15.068  13.052  0.00  0.00     0.167 HD
BRANCH  21  23
HETATM   23  C   UNK N   1      36.501  14.137  14.836  0.00  0.00     0.033 A 
HETATM   24  C   UNK N   1      35.488  13.290  15.294  0.00  0.00     0.032 A 
HETATM   25  C   UNK N   1      35.116  13.303  16.642  0.00  0.00     0.039 A 
HETATM   26  C   UNK N   1      35.747  14.176  17.533  0.00  0.00     0.065 A 
HETATM   27  C   UNK N   1      36.761  15.023  17.082  0.00  0.00     0.039 A 
HETATM   28  C   UNK N   1      37.134  15.009  15.738  0.00  0.00     0.032 A 
BRANCH  26  29
HETATM   29  O   UNK N   1      35.374  14.204  18.823  0.00  0.00    -0.361 OA
HETATM   30  H   UNK N   1      34.661  13.681  19.135  0.00  0.00     0.217 HD
ENDBRANCH  26  29
ENDBRANCH  21  23
ENDBRANCH   5  21
TORSDOF 7
ENDMDL
MODEL 5
REMARK VINA RESULT:      -6.4      8.579     11.626
REMARK  7 active torsions:
REMARK  status: ('A' for Active; 'I' for Inactive)
REMARK    1  A    between atoms: N_21  and  C_13 
REMARK    2  A    between atoms: O_23  and  C_14 
REMARK    3  A    between atoms: O_26  and  C_15 
REMARK    4  A    between atoms: S_27  and  C_16 
REMARK    5  A    between atoms: N_22  and  C_17 
REMARK    6  A    between atoms: N_21  and  C_18 
REMARK    7  A    between atoms: S_27  and  N_22 
ROOT
HETATM    1  C   UNK N   1      34.598   9.100  12.491  0.00  0.00     0.019 A 
HETATM    2  C   UNK N   1      34.328  10.461  12.366  0.00  0.00     0.035 A 
HETATM    3  C   UNK N   1      35.432   8.663  13.522  0.00  0.00     0.090 A 
HETATM    4  C   UNK N   1      34.868  11.367  13.278  0.00  0.00     0.086 A 
HETATM    5  C   UNK N   1      35.717  10.897  14.291  0.00  0.00     0.133 A 
HETATM    6  N   UNK N   1      35.980   9.560  14.384  0.00  0.00    -0.350 N 
ATOM      7  HN  UNK N   1      36.603   9.227  15.120  1.00  0.00     0.166 HD
ENDROOT
BRANCH   4   8
HETATM    8  N   UNK N   1      34.613  12.748  13.106  0.00  0.00    -0.277 N 
HETATM    9  H   UNK N   1      33.725  13.094  13.349  0.00  0.00     0.179 HD
BRANCH   8  10
HETATM   10  S   UNK N   1      35.808  13.871  12.478  0.00  0.00     0.263 S 
HETATM   11  O   UNK N   1      37.019  13.004  12.105  0.00  0.00    -0.200 OA
HETATM   12  O   UNK N   1      36.294  14.707  13.673  0.00  0.00    -0.200 OA
BRANCH  10  13
HETATM   13  C   UNK N   1      35.138  14.843  11.144  0.00  0.00     0.080 A 
HETATM   14  C   UNK N   1      34.248  14.289  10.220  0.00  0.00     0.028 A 
HETATM   15  C   UNK N   1      33.745  15.082   9.182  0.00  0.00     0.038 A 
HETATM   16  C   UNK N   1      34.130  16.424   9.064  0.00  0.00     0.068 A 
HETATM   17  C   UNK N   1      35.025  16.969  10.000  0.00  0.00     0.038 A 
HETATM   18  C   UNK N   1      35.524  16.180  11.033  0.00  0.00     0.028 A 
BRANCH  16  19
HETATM   19  O   UNK N   1      33.632  17.169   8.049  0.00  0.00    -0.356 OA
HETATM   20  C   UNK N   1      32.519  17.969   8.181  0.00  0.00     0.210 C 
ENDBRANCH  16  19
ENDBRANCH  10  13
ENDBRANCH   8  10
ENDBRANCH   4   8
BRANCH   5  21
HETATM   21  N   UNK N   1      36.340  11.816  15.173  0.00  0.00    -0.341 N 
HETATM   22  H   UNK N   1      37.157  12.271  14.865  0.00  0.00     0.167 HD
BRANCH  21  23
HETATM   23  C   UNK N   1      35.858  12.117  16.471  0.00  0.00     0.033 A 
HETATM   24  C   UNK N   1      35.551  13.443  16.791  0.00  0.00     0.032 A 
HETATM   25  C   UNK N   1      35.185  13.785  18.097  0.00  0.00     0.039 A 
HETATM   26  C   UNK N   1      35.142  12.803  19.091  0.00  0.00     0.065 A 
HETATM   27  C   UNK N   1      35.446  11.477  18.777  0.00  0.00     0.039 A 
HETATM   28  C   UNK N   1      35.809  11.135  17.474  0.00  0.00     0.032 A 
BRANCH  26  29
HETATM   29  O   UNK N   1      34.813  13.135  20.350  0.00  0.00    -0.361 OA
HETATM   30  H   UNK N   1      35.397  12.970  21.064  0.00  0.00     0.217 HD
ENDBRANCH  26  29
ENDBRANCH  21  23
ENDBRANCH   5  21
TORSDOF 7
ENDMDL
MODEL 6
REMARK VINA RESULT:      -6.4      3.342      6.652
REMARK  7 active torsions:
REMARK  status: ('A' for Active; 'I' for Inactive)
REMARK    1  A    between atoms: N_21  and  C_13 
REMARK    2  A    between atoms: O_23  and  C_14 
REMARK    3  A    between atoms: O_26  and  C_15 
REMARK    4  A    between atoms: S_27  and  C_16 
REMARK    5  A    between atoms: N_22  and  C_17 
REMARK    6  A    between atoms: N_21  and  C_18 
REMARK    7  A    between atoms: S_27  and  N_22 
ROOT
HETATM    1  C   UNK N   1      28.177  18.302   9.077  0.00  0.00     0.019 A 
HETATM    2  C   UNK N   1      28.157  17.622   7.860  0.00  0.00     0.035 A 
HETATM    3  C   UNK N   1      29.359  18.338   9.818  0.00  0.00     0.090 A 
HETATM    4  C   UNK N   1      29.315  17.007   7.385  0.00  0.00     0.086 A 
HETATM    5  C   UNK N   1      30.482  17.047   8.164  0.00  0.00     0.133 A 
HETATM    6  N   UNK N   1      30.472  17.705   9.360  0.00  0.00    -0.350 N 
ATOM      7  HN  UNK N   1      31.322  17.725   9.923  1.00  0.00     0.166 HD
ENDROOT
BRANCH   4   8
HETATM    8  N   UNK N   1      29.260  16.288   6.169  0.00  0.00    -0.277 N 
HETATM    9  H   UNK N   1      29.178  15.308   6.207  0.00  0.00     0.179 HD
BRANCH   8  10
HETATM   10  S   UNK N   1      29.333  17.061   4.594  0.00  0.00     0.263 S 
HETATM   11  O   UNK N   1      29.456  15.910   3.585  0.00  0.00    -0.200 OA
HETATM   12  O   UNK N   1      30.692  17.775   4.520  0.00  0.00    -0.200 OA
BRANCH  10  13
HETATM   13  C   UNK N   1      27.939  18.139   4.342  0.00  0.00     0.080 A 
HETATM   14  C   UNK N   1      26.717  17.646   3.874  0.00  0.00     0.028 A 
HETATM   15  C   UNK N   1      25.643  18.524   3.683  0.00  0.00     0.038 A 
HETATM   16  C   UNK N   1      25.788  19.891   3.956  0.00  0.00     0.068 A 
HETATM   17  C   UNK N   1      27.020  20.373   4.427  0.00  0.00     0.038 A 
HETATM   18  C   UNK N   1      28.087  19.499   4.617  0.00  0.00     0.028 A 
BRANCH  16  19
HETATM   19  O   UNK N   1      24.735  20.719   3.760  0.00  0.00    -0.356 OA
HETATM   20  C   UNK N   1      23.744  20.467   2.837  0.00  0.00     0.210 C 
ENDBRANCH  16  19
ENDBRANCH  10  13
ENDBRANCH   8  10
ENDBRANCH   4   8
BRANCH   5  21
HETATM   21  N   UNK N   1      31.641  16.354   7.733  0.00  0.00    -0.341 N 
HETATM   22  H   UNK N   1      31.584  15.826   6.904  0.00  0.00     0.167 HD
BRANCH  21  23
HETATM   23  C   UNK N   1      32.878  16.376   8.425  0.00  0.00     0.033 A 
HETATM   24  C   UNK N   1      33.179  15.339   9.313  0.00  0.00     0.032 A 
HETATM   25  C   UNK N   1      34.337  15.395  10.094  0.00  0.00     0.039 A 
HETATM   26  C   UNK N   1      35.191  16.497  10.000  0.00  0.00     0.065 A 
HETATM   27  C   UNK N   1      34.897  17.535   9.113  0.00  0.00     0.039 A 
HETATM   28  C   UNK N   1      33.743  17.479   8.333  0.00  0.00     0.032 A 
BRANCH  26  29
HETATM   29  O   UNK N   1      36.292  16.561  10.766  0.00  0.00    -0.361 OA
HETATM   30  H   UNK N   1      36.248  16.851  11.657  0.00  0.00     0.217 HD
ENDBRANCH  26  29
ENDBRANCH  21  23
ENDBRANCH   5  21
TORSDOF 7
ENDMDL
MODEL 7
REMARK VINA RESULT:      -6.2      9.680     10.752
REMARK  7 active torsions:
REMARK  status: ('A' for Active; 'I' for Inactive)
REMARK    1  A    between atoms: N_21  and  C_13 
REMARK    2  A    between atoms: O_23  and  C_14 
REMARK    3  A    between atoms: O_26  and  C_15 
REMARK    4  A    between atoms: S_27  and  C_16 
REMARK    5  A    between atoms: N_22  and  C_17 
REMARK    6  A    between atoms: N_21  and  C_18 
REMARK    7  A    between atoms: S_27  and  N_22 
ROOT
HETATM    1  C   UNK N   1      21.171  20.266   2.812  0.00  0.00     0.019 A 
HETATM    2  C   UNK N   1      21.014  19.443   3.926  0.00  0.00     0.035 A 
HETATM    3  C   UNK N   1      20.773  19.799   1.559  0.00  0.00     0.090 A 
HETATM    4  C   UNK N   1      20.443  18.179   3.785  0.00  0.00     0.086 A 
HETATM    5  C   UNK N   1      20.070  17.733   2.508  0.00  0.00     0.133 A 
HETATM    6  N   UNK N   1      20.248  18.551   1.429  0.00  0.00    -0.350 N 
ATOM      7  HN  UNK N   1      19.980  18.218   0.503  1.00  0.00     0.166 HD
ENDROOT
BRANCH   4   8
HETATM    8  N   UNK N   1      20.332  17.345   4.923  0.00  0.00    -0.277 N 
HETATM    9  H   UNK N   1      19.627  16.660   4.934  0.00  0.00     0.179 HD
BRANCH   8  10
HETATM   10  S   UNK N   1      21.392  17.480   6.315  0.00  0.00     0.263 S 
HETATM   11  O   UNK N   1      21.057  18.840   6.947  0.00  0.00    -0.200 OA
HETATM   12  O   UNK N   1      22.816  17.659   5.766  0.00  0.00    -0.200 OA
BRANCH  10  13
HETATM   13  C   UNK N   1      21.209  16.081   7.401  0.00  0.00     0.080 A 
HETATM   14  C   UNK N   1      22.035  14.959   7.283  0.00  0.00     0.028 A 
HETATM   15  C   UNK N   1      21.860  13.875   8.151  0.00  0.00     0.038 A 
HETATM   16  C   UNK N   1      20.861  13.908   9.134  0.00  0.00     0.068 A 
HETATM   17  C   UNK N   1      20.038  15.042   9.243  0.00  0.00     0.038 A 
HETATM   18  C   UNK N   1      20.214  16.120   8.379  0.00  0.00     0.028 A 
BRANCH  16  19
HETATM   19  O   UNK N   1      20.709  12.845   9.959  0.00  0.00    -0.356 OA
HETATM   20  C   UNK N   1      21.761  12.256  10.625  0.00  0.00     0.210 C 
ENDBRANCH  16  19
ENDBRANCH  10  13
ENDBRANCH   8  10
ENDBRANCH   4   8
BRANCH   5  21
HETATM   21  N   UNK N   1      19.567  16.418   2.339  0.00  0.00    -0.341 N 
HETATM   22  H   UNK N   1      18.631  16.245   2.589  0.00  0.00     0.167 HD
BRANCH  21  23
HETATM   23  C   UNK N   1      20.331  15.338   1.832  0.00  0.00     0.033 A 
HETATM   24  C   UNK N   1      21.727  15.428   1.844  0.00  0.00     0.032 A 
HETATM   25  C   UNK N   1      22.501  14.429   1.245  0.00  0.00     0.039 A 
HETATM   26  C   UNK N   1      21.881  13.345   0.618  0.00  0.00     0.065 A 
HETATM   27  C   UNK N   1      20.488  13.249   0.603  0.00  0.00     0.039 A 
HETATM   28  C   UNK N   1      19.715  14.244   1.202  0.00  0.00     0.032 A 
BRANCH  26  29
HETATM   29  O   UNK N   1      22.625  12.398   0.023  0.00  0.00    -0.361 OA
HETATM   30  H   UNK N   1      22.238  11.767  -0.553  0.00  0.00     0.217 HD
ENDBRANCH  26  29
ENDBRANCH  21  23
ENDBRANCH   5  21
TORSDOF 7
ENDMDL
MODEL 8
REMARK VINA RESULT:      -6.2      3.383      5.807
REMARK  7 active torsions:
REMARK  status: ('A' for Active; 'I' for Inactive)
REMARK    1  A    between atoms: N_21  and  C_13 
REMARK    2  A    between atoms: O_23  and  C_14 
REMARK    3  A    between atoms: O_26  and  C_15 
REMARK    4  A    between atoms: S_27  and  C_16 
REMARK    5  A    between atoms: N_22  and  C_17 
REMARK    6  A    between atoms: N_21  and  C_18 
REMARK    7  A    between atoms: S_27  and  N_22 
ROOT
HETATM    1  C   UNK N   1      32.306  13.636   3.628  0.00  0.00     0.019 A 
HETATM    2  C   UNK N   1      32.834  13.840   4.902  0.00  0.00     0.035 A 
HETATM    3  C   UNK N   1      31.524  14.636   3.047  0.00  0.00     0.090 A 
HETATM    4  C   UNK N   1      32.599  15.040   5.571  0.00  0.00     0.086 A 
HETATM    5  C   UNK N   1      31.794  16.017   4.967  0.00  0.00     0.133 A 
HETATM    6  N   UNK N   1      31.274  15.788   3.725  0.00  0.00    -0.350 N 
ATOM      7  HN  UNK N   1      30.684  16.500   3.294  1.00  0.00     0.166 HD
ENDROOT
BRANCH   4   8
HETATM    8  N   UNK N   1      33.111  15.208   6.879  0.00  0.00    -0.277 N 
HETATM    9  H   UNK N   1      32.583  14.867   7.636  0.00  0.00     0.179 HD
BRANCH   8  10
HETATM   10  S   UNK N   1      34.644  15.996   7.214  0.00  0.00     0.263 S 
HETATM   11  O   UNK N   1      34.443  17.460   6.793  0.00  0.00    -0.200 OA
HETATM   12  O   UNK N   1      35.652  15.444   6.195  0.00  0.00    -0.200 OA
BRANCH  10  13
HETATM   13  C   UNK N   1      35.131  15.761   8.910  0.00  0.00     0.080 A 
HETATM   14  C   UNK N   1      34.996  16.784   9.852  0.00  0.00     0.028 A 
HETATM   15  C   UNK N   1      35.395  16.564  11.176  0.00  0.00     0.038 A 
HETATM   16  C   UNK N   1      35.928  15.326  11.560  0.00  0.00     0.068 A 
HETATM   17  C   UNK N   1      36.057  14.305  10.604  0.00  0.00     0.038 A 
HETATM   18  C   UNK N   1      35.660  14.525   9.288  0.00  0.00     0.028 A 
BRANCH  16  19
HETATM   19  O   UNK N   1      36.309  15.140  12.846  0.00  0.00    -0.356 OA
HETATM   20  C   UNK N   1      36.012  14.000  13.559  0.00  0.00     0.210 C 
ENDBRANCH  16  19
ENDBRANCH  10  13
ENDBRANCH   8  10
ENDBRANCH   4   8
BRANCH   5  21
HETATM   21  N   UNK N   1      31.477  17.206   5.671  0.00  0.00    -0.341 N 
HETATM   22  H   UNK N   1      31.997  18.016   5.468  0.00  0.00     0.167 HD
BRANCH  21  23
HETATM   23  C   UNK N   1      30.458  17.296   6.652  0.00  0.00     0.033 A 
HETATM   24  C   UNK N   1      29.121  17.224   6.251  0.00  0.00     0.032 A 
HETATM   25  C   UNK N   1      28.096  17.427   7.180  0.00  0.00     0.039 A 
HETATM   26  C   UNK N   1      28.406  17.719   8.511  0.00  0.00     0.065 A 
HETATM   27  C   UNK N   1      29.740  17.791   8.918  0.00  0.00     0.039 A 
HETATM   28  C   UNK N   1      30.763  17.586   7.992  0.00  0.00     0.032 A 
BRANCH  26  29
HETATM   29  O   UNK N   1      27.422  17.936   9.399  0.00  0.00    -0.361 OA
HETATM   30  H   UNK N   1      27.202  18.803   9.678  0.00  0.00     0.217 HD
ENDBRANCH  26  29
ENDBRANCH  21  23
ENDBRANCH   5  21
TORSDOF 7
ENDMDL
MODEL 9
REMARK VINA RESULT:      -6.1      9.412     11.803
REMARK  7 active torsions:
REMARK  status: ('A' for Active; 'I' for Inactive)
REMARK    1  A    between atoms: N_21  and  C_13 
REMARK    2  A    between atoms: O_23  and  C_14 
REMARK    3  A    between atoms: O_26  and  C_15 
REMARK    4  A    between atoms: S_27  and  C_16 
REMARK    5  A    between atoms: N_22  and  C_17 
REMARK    6  A    between atoms: N_21  and  C_18 
REMARK    7  A    between atoms: S_27  and  N_22 
ROOT
HETATM    1  C   UNK N   1      34.686  15.599  10.520  0.00  0.00     0.019 A 
HETATM    2  C   UNK N   1      34.308  14.334  10.970  0.00  0.00     0.035 A 
HETATM    3  C   UNK N   1      35.805  16.215  11.082  0.00  0.00     0.090 A 
HETATM    4  C   UNK N   1      35.059  13.691  11.954  0.00  0.00     0.086 A 
HETATM    5  C   UNK N   1      36.168  14.347  12.510  0.00  0.00     0.133 A 
HETATM    6  N   UNK N   1      36.509  15.591  12.064  0.00  0.00    -0.350 N 
ATOM      7  HN  UNK N   1      37.312  16.064  12.477  1.00  0.00     0.166 HD
ENDROOT
BRANCH   4   8
HETATM    8  N   UNK N   1      34.633  12.426  12.424  0.00  0.00    -0.277 N 
HETATM    9  H   UNK N   1      33.833  12.384  12.995  0.00  0.00     0.179 HD
BRANCH   8  10
HETATM   10  S   UNK N   1      35.467  10.930  12.039  0.00  0.00     0.263 S 
HETATM   11  O   UNK N   1      36.508  11.312  10.975  0.00  0.00    -0.200 OA
HETATM   12  O   UNK N   1      34.460  10.050  11.283  0.00  0.00    -0.200 OA
BRANCH  10  13
HETATM   13  C   UNK N   1      36.133  10.169  13.504  0.00  0.00     0.080 A 
HETATM   14  C   UNK N   1      37.503  10.193  13.775  0.00  0.00     0.028 A 
HETATM   15  C   UNK N   1      37.992   9.580  14.935  0.00  0.00     0.038 A 
HETATM   16  C   UNK N   1      37.115   8.942  15.822  0.00  0.00     0.068 A 
HETATM   17  C   UNK N   1      35.739   8.925  15.539  0.00  0.00     0.038 A 
HETATM   18  C   UNK N   1      35.255   9.536  14.385  0.00  0.00     0.028 A 
BRANCH  16  19
HETATM   19  O   UNK N   1      37.612   8.352  16.935  0.00  0.00    -0.356 OA
HETATM   20  C   UNK N   1      37.052   8.512  18.183  0.00  0.00     0.210 C 
ENDBRANCH  16  19
ENDBRANCH  10  13
ENDBRANCH   8  10
ENDBRANCH   4   8
BRANCH   5  21
HETATM   21  N   UNK N   1      36.889  13.740  13.569  0.00  0.00    -0.341 N 
HETATM   22  H   UNK N   1      37.643  13.150  13.337  0.00  0.00     0.167 HD
BRANCH  21  23
HETATM   23  C   UNK N   1      36.589  13.929  14.941  0.00  0.00     0.033 A 
HETATM   24  C   UNK N   1      35.628  13.113  15.546  0.00  0.00     0.032 A 
HETATM   25  C   UNK N   1      35.230  13.354  16.864  0.00  0.00     0.039 A 
HETATM   26  C   UNK N   1      35.780  14.424  17.577  0.00  0.00     0.065 A 
HETATM   27  C   UNK N   1      36.741  15.241  16.978  0.00  0.00     0.039 A 
HETATM   28  C   UNK N   1      37.140  15.000  15.664  0.00  0.00     0.032 A 
BRANCH  26  29
HETATM   29  O   UNK N   1      35.380  14.669  18.835  0.00  0.00    -0.361 OA
HETATM   30  H   UNK N   1      35.532  14.050  19.523  0.00  0.00     0.217 HD
ENDBRANCH  26  29
ENDBRANCH  21  23
ENDBRANCH   5  21
TORSDOF 7
ENDMDL
