MODEL 1
REMARK VINA RESULT:      -7.7      0.000      0.000
REMARK  3 active torsions:
REMARK  status: ('A' for Active; 'I' for Inactive)
REMARK    1  A    between atoms: C_2  and  C_3 
REMARK    2  A    between atoms: C_2  and  N_13 
REMARK    3  A    between atoms: C_19  and  C_22 
ROOT
HETATM    1  N   UNK N   1      34.382  16.642   7.202  0.00  0.00    -0.248 N 
HETATM    2  C   UNK N   1      34.714  16.316   8.433  0.00  0.00     0.168 A 
HETATM    3  C   UNK N   1      34.903  17.421   9.156  0.00  0.00     0.164 A 
HETATM    4  N   UNK N   1      35.172  17.371  10.484  0.00  0.00    -0.346 N 
ATOM      5  HN  UNK N   1      35.353  18.219  11.022  1.00  0.00     0.167 HD
HETATM    6  C   UNK N   1      35.191  16.124  11.080  0.00  0.00     0.120 A 
HETATM    7  C   UNK N   1      34.970  14.959  10.276  0.00  0.00     0.062 A 
HETATM    8  N   UNK N   1      34.759  15.096   8.951  0.00  0.00    -0.336 N 
ATOM      9  HN  UNK N   1      34.635  14.276   8.357  1.00  0.00     0.168 HD
HETATM   10  N   UNK N   1      34.686  18.485   8.359  0.00  0.00    -0.266 N 
ATOM     11  HN  UNK N   1      34.762  19.470   8.614  1.00  0.00     0.186 HD
HETATM   12  N   UNK N   1      34.351  17.981   7.167  0.00  0.00    -0.016 NA
ENDROOT
BRANCH   1  13
HETATM   13  C   UNK N   1      33.973  15.709   6.135  0.00  0.00     0.138 C 
HETATM   14  C   UNK N   1      35.103  15.001   5.393  0.00  0.00     0.039 C 
BRANCH  13  15
HETATM   15  C   UNK N   1      32.931  16.269   5.252  0.00  0.00    -0.018 A 
HETATM   16  C   UNK N   1      33.270  16.676   3.947  0.00  0.00     0.014 A 
HETATM   17  C   UNK N   1      32.257  16.919   3.008  0.00  0.00     0.050 A 
HETATM   18  C   UNK N   1      30.943  16.695   3.415  0.00  0.00     0.111 A 
HETATM   19  N   UNK N   1      29.847  16.772   2.648  0.00  0.00    -0.351 N 
HETATM   20  N   UNK N   1      30.655  16.330   4.665  0.00  0.00    -0.317 N 
HETATM   21  C   UNK N   1      28.824  16.428   3.473  0.00  0.00     0.107 A 
ATOM     22  HN  UNK N   1      29.794  17.031   1.662  1.00  0.00     0.166 HD
HETATM   23  C   UNK N   1      29.334  16.154   4.737  0.00  0.00     0.115 A 
HETATM   24  C   UNK N   1      31.587  16.117   5.607  0.00  0.00     0.107 A 
ENDBRANCH  13  15
ENDBRANCH   1  13
BRANCH   7  25
HETATM   25  C   UNK N   1      34.706  13.626  10.790  0.00  0.00     0.026 A 
HETATM   26  C   UNK N   1      34.429  12.449  10.129  0.00  0.00     0.122 A 
HETATM   27  N   UNK N   1      34.512  11.449  11.037  0.00  0.00    -0.310 N 
HETATM   28  N   UNK N   1      34.831  11.974  12.210  0.00  0.00    -0.307 N 
ATOM     29  HN  UNK N   1      34.355  10.459  10.849  1.00  0.00     0.186 HD
HETATM   30  C   UNK N   1      34.963  13.293  12.103  0.00  0.00     0.124 A 
HETATM   31  C   UNK N   1      35.076  11.219  13.423  0.00  0.00     0.177 C 
ENDBRANCH   7  25
TORSDOF 3
ENDMDL
MODEL 2
REMARK VINA RESULT:      -7.5      2.478      3.134
REMARK  3 active torsions:
REMARK  status: ('A' for Active; 'I' for Inactive)
REMARK    1  A    between atoms: C_2  and  C_3 
REMARK    2  A    between atoms: C_2  and  N_13 
REMARK    3  A    between atoms: C_19  and  C_22 
ROOT
HETATM    1  N   UNK N   1      32.889  16.927   8.044  0.00  0.00    -0.248 N 
HETATM    2  C   UNK N   1      33.817  16.512   8.879  0.00  0.00     0.168 A 
HETATM    3  C   UNK N   1      34.622  17.527   9.198  0.00  0.00     0.164 A 
HETATM    4  N   UNK N   1      35.616  17.393  10.111  0.00  0.00    -0.346 N 
ATOM      5  HN  UNK N   1      36.251  18.163  10.321  1.00  0.00     0.167 HD
HETATM    6  C   UNK N   1      35.733  16.171  10.745  0.00  0.00     0.120 A 
HETATM    7  C   UNK N   1      34.843  15.107  10.388  0.00  0.00     0.062 A 
HETATM    8  N   UNK N   1      33.913  15.310   9.432  0.00  0.00    -0.336 N 
ATOM      9  HN  UNK N   1      33.294  14.554   9.140  1.00  0.00     0.168 HD
HETATM   10  N   UNK N   1      34.193  18.623   8.544  0.00  0.00    -0.266 N 
ATOM     11  HN  UNK N   1      34.605  19.556   8.571  1.00  0.00     0.186 HD
HETATM   12  N   UNK N   1      33.116  18.234   7.853  0.00  0.00    -0.016 NA
ENDROOT
BRANCH   1  13
HETATM   13  C   UNK N   1      31.742  16.137   7.555  0.00  0.00     0.138 C 
HETATM   14  C   UNK N   1      31.906  15.496   6.180  0.00  0.00     0.039 C 
BRANCH  13  15
HETATM   15  C   UNK N   1      30.450  16.824   7.749  0.00  0.00    -0.018 A 
HETATM   16  C   UNK N   1      30.056  17.215   9.043  0.00  0.00     0.014 A 
HETATM   17  C   UNK N   1      28.999  18.121   9.207  0.00  0.00     0.050 A 
HETATM   18  C   UNK N   1      28.412  18.631   8.050  0.00  0.00     0.111 A 
HETATM   19  N   UNK N   1      27.463  19.575   7.987  0.00  0.00    -0.351 N 
HETATM   20  N   UNK N   1      28.795  18.224   6.838  0.00  0.00    -0.317 N 
HETATM   21  C   UNK N   1      27.253  19.764   6.657  0.00  0.00     0.107 A 
ATOM     22  HN  UNK N   1      27.001  20.047   8.764  1.00  0.00     0.166 HD
HETATM   23  C   UNK N   1      28.087  18.914   5.941  0.00  0.00     0.115 A 
HETATM   24  C   UNK N   1      29.778  17.335   6.633  0.00  0.00     0.107 A 
ENDBRANCH  13  15
ENDBRANCH   1  13
BRANCH   7  25
HETATM   25  C   UNK N   1      34.675  13.870  11.134  0.00  0.00     0.026 A 
HETATM   26  C   UNK N   1      34.477  12.579  10.695  0.00  0.00     0.122 A 
HETATM   27  N   UNK N   1      34.634  11.764  11.763  0.00  0.00    -0.310 N 
HETATM   28  N   UNK N   1      34.922  12.508  12.819  0.00  0.00    -0.307 N 
ATOM     29  HN  UNK N   1      34.545  10.748  11.756  1.00  0.00     0.186 HD
HETATM   30  C   UNK N   1      34.962  13.794  12.480  0.00  0.00     0.124 A 
HETATM   31  C   UNK N   1      35.225  11.998  14.143  0.00  0.00     0.177 C 
ENDBRANCH   7  25
TORSDOF 3
ENDMDL
MODEL 3
REMARK VINA RESULT:      -7.3      2.737      3.933
REMARK  3 active torsions:
REMARK  status: ('A' for Active; 'I' for Inactive)
REMARK    1  A    between atoms: C_2  and  C_3 
REMARK    2  A    between atoms: C_2  and  N_13 
REMARK    3  A    between atoms: C_19  and  C_22 
ROOT
HETATM    1  N   UNK N   1      33.941  16.143   8.894  0.00  0.00    -0.248 N 
HETATM    2  C   UNK N   1      34.641  15.275   9.593  0.00  0.00     0.168 A 
HETATM    3  C   UNK N   1      33.834  14.606  10.418  0.00  0.00     0.164 A 
HETATM    4  N   UNK N   1      34.286  13.591  11.196  0.00  0.00    -0.346 N 
ATOM      5  HN  UNK N   1      33.670  13.110  11.852  1.00  0.00     0.167 HD
HETATM    6  C   UNK N   1      35.614  13.233  11.061  0.00  0.00     0.120 A 
HETATM    7  C   UNK N   1      36.449  13.964  10.156  0.00  0.00     0.062 A 
HETATM    8  N   UNK N   1      35.930  14.995   9.457  0.00  0.00    -0.336 N 
ATOM      9  HN  UNK N   1      36.518  15.548   8.834  1.00  0.00     0.168 HD
HETATM   10  N   UNK N   1      32.580  15.064  10.240  0.00  0.00    -0.266 N 
ATOM     11  HN  UNK N   1      31.739  14.761  10.731  1.00  0.00     0.186 HD
HETATM   12  N   UNK N   1      32.668  15.997   9.287  0.00  0.00    -0.016 NA
ENDROOT
BRANCH   1  13
HETATM   13  C   UNK N   1      34.448  16.982   7.792  0.00  0.00     0.138 C 
HETATM   14  C   UNK N   1      34.463  18.487   8.047  0.00  0.00     0.039 C 
BRANCH  13  15
HETATM   15  C   UNK N   1      33.893  16.600   6.479  0.00  0.00    -0.018 A 
HETATM   16  C   UNK N   1      33.189  17.553   5.717  0.00  0.00     0.014 A 
HETATM   17  C   UNK N   1      32.926  17.305   4.362  0.00  0.00     0.050 A 
HETATM   18  C   UNK N   1      33.426  16.122   3.821  0.00  0.00     0.111 A 
HETATM   19  N   UNK N   1      33.371  15.746   2.536  0.00  0.00    -0.351 N 
HETATM   20  N   UNK N   1      34.072  15.231   4.576  0.00  0.00    -0.317 N 
HETATM   21  C   UNK N   1      34.026  14.556   2.496  0.00  0.00     0.107 A 
ATOM     22  HN  UNK N   1      32.935  16.244   1.760  1.00  0.00     0.166 HD
HETATM   23  C   UNK N   1      34.461  14.235   3.776  0.00  0.00     0.115 A 
HETATM   24  C   UNK N   1      34.318  15.408   5.883  0.00  0.00     0.107 A 
ENDBRANCH  13  15
ENDBRANCH   1  13
BRANCH   7  25
HETATM   25  C   UNK N   1      37.773  13.551   9.720  0.00  0.00     0.026 A 
HETATM   26  C   UNK N   1      38.696  12.722  10.320  0.00  0.00     0.122 A 
HETATM   27  N   UNK N   1      39.655  12.460   9.403  0.00  0.00    -0.310 N 
HETATM   28  N   UNK N   1      39.346  13.090   8.281  0.00  0.00    -0.307 N 
ATOM     29  HN  UNK N   1      40.477  11.875   9.552  1.00  0.00     0.186 HD
HETATM   30  C   UNK N   1      38.207  13.761   8.428  0.00  0.00     0.124 A 
HETATM   31  C   UNK N   1      40.095  13.005   7.042  0.00  0.00     0.177 C 
ENDBRANCH   7  25
TORSDOF 3
ENDMDL
MODEL 4
REMARK VINA RESULT:      -7.2      2.926      6.005
REMARK  3 active torsions:
REMARK  status: ('A' for Active; 'I' for Inactive)
REMARK    1  A    between atoms: C_2  and  C_3 
REMARK    2  A    between atoms: C_2  and  N_13 
REMARK    3  A    between atoms: C_19  and  C_22 
ROOT
HETATM    1  N   UNK N   1      29.581  16.234   4.490  0.00  0.00    -0.248 N 
HETATM    2  C   UNK N   1      30.867  16.459   4.657  0.00  0.00     0.168 A 
HETATM    3  C   UNK N   1      31.420  16.794   3.490  0.00  0.00     0.164 A 
HETATM    4  N   UNK N   1      32.723  17.160   3.394  0.00  0.00    -0.346 N 
ATOM      5  HN  UNK N   1      33.148  17.378   2.492  1.00  0.00     0.167 HD
HETATM    6  C   UNK N   1      33.450  17.226   4.567  0.00  0.00     0.120 A 
HETATM    7  C   UNK N   1      32.821  16.873   5.804  0.00  0.00     0.062 A 
HETATM    8  N   UNK N   1      31.533  16.470   5.804  0.00  0.00    -0.336 N 
ATOM      9  HN  UNK N   1      31.079  16.181   6.670  1.00  0.00     0.168 HD
HETATM   10  N   UNK N   1      30.456  16.781   2.550  0.00  0.00    -0.266 N 
ATOM     11  HN  UNK N   1      30.563  16.983   1.556  1.00  0.00     0.186 HD
HETATM   12  N   UNK N   1      29.331  16.450   3.192  0.00  0.00    -0.016 NA
ENDROOT
BRANCH   1  13
HETATM   13  C   UNK N   1      28.600  15.960   5.558  0.00  0.00     0.138 C 
HETATM   14  C   UNK N   1      27.567  14.878   5.259  0.00  0.00     0.039 C 
BRANCH  13  15
HETATM   15  C   UNK N   1      28.031  17.190   6.142  0.00  0.00    -0.018 A 
HETATM   16  C   UNK N   1      28.542  17.684   7.358  0.00  0.00     0.014 A 
HETATM   17  C   UNK N   1      28.232  18.990   7.765  0.00  0.00     0.050 A 
HETATM   18  C   UNK N   1      27.454  19.759   6.902  0.00  0.00     0.111 A 
HETATM   19  N   UNK N   1      27.132  21.051   7.056  0.00  0.00    -0.351 N 
HETATM   20  N   UNK N   1      26.969  19.254   5.766  0.00  0.00    -0.317 N 
HETATM   21  C   UNK N   1      26.409  21.360   5.947  0.00  0.00     0.107 A 
ATOM     22  HN  UNK N   1      27.375  21.665   7.833  1.00  0.00     0.166 HD
HETATM   23  C   UNK N   1      26.307  20.231   5.143  0.00  0.00     0.115 A 
HETATM   24  C   UNK N   1      27.210  18.001   5.352  0.00  0.00     0.107 A 
ENDBRANCH  13  15
ENDBRANCH   1  13
BRANCH   7  25
HETATM   25  C   UNK N   1      33.366  17.136   7.125  0.00  0.00     0.026 A 
HETATM   26  C   UNK N   1      32.919  17.968   8.129  0.00  0.00     0.122 A 
HETATM   27  N   UNK N   1      33.627  17.668   9.243  0.00  0.00    -0.310 N 
HETATM   28  N   UNK N   1      34.471  16.691   8.952  0.00  0.00    -0.307 N 
ATOM     29  HN  UNK N   1      33.525  18.118  10.153  1.00  0.00     0.186 HD
HETATM   30  C   UNK N   1      34.342  16.334   7.678  0.00  0.00     0.124 A 
HETATM   31  C   UNK N   1      35.359  16.045   9.900  0.00  0.00     0.177 C 
ENDBRANCH   7  25
TORSDOF 3
ENDMDL
MODEL 5
REMARK VINA RESULT:      -7.1     10.320     13.689
REMARK  3 active torsions:
REMARK  status: ('A' for Active; 'I' for Inactive)
REMARK    1  A    between atoms: C_2  and  C_3 
REMARK    2  A    between atoms: C_2  and  N_13 
REMARK    3  A    between atoms: C_19  and  C_22 
ROOT
HETATM    1  N   UNK N   1      22.477  14.484   6.034  0.00  0.00    -0.248 N 
HETATM    2  C   UNK N   1      22.063  15.694   6.340  0.00  0.00     0.168 A 
HETATM    3  C   UNK N   1      22.567  16.575   5.475  0.00  0.00     0.164 A 
HETATM    4  N   UNK N   1      22.231  17.889   5.512  0.00  0.00    -0.346 N 
ATOM      5  HN  UNK N   1      22.651  18.563   4.871  1.00  0.00     0.167 HD
HETATM    6  C   UNK N   1      21.295  18.277   6.453  0.00  0.00     0.120 A 
HETATM    7  C   UNK N   1      20.763  17.302   7.357  0.00  0.00     0.062 A 
HETATM    8  N   UNK N   1      21.191  16.024   7.284  0.00  0.00    -0.336 N 
ATOM      9  HN  UNK N   1      20.850  15.324   7.942  1.00  0.00     0.168 HD
HETATM   10  N   UNK N   1      23.329  15.905   4.591  0.00  0.00    -0.266 N 
ATOM     11  HN  UNK N   1      23.859  16.298   3.813  1.00  0.00     0.186 HD
HETATM   12  N   UNK N   1      23.245  14.618   4.944  0.00  0.00    -0.016 NA
ENDROOT
BRANCH   1  13
HETATM   13  C   UNK N   1      22.043  13.227   6.674  0.00  0.00     0.138 C 
HETATM   14  C   UNK N   1      20.680  12.691   6.245  0.00  0.00     0.039 C 
BRANCH  13  15
HETATM   15  C   UNK N   1      22.258  13.224   8.134  0.00  0.00    -0.018 A 
HETATM   16  C   UNK N   1      21.151  13.132   9.001  0.00  0.00     0.014 A 
HETATM   17  C   UNK N   1      21.350  12.824  10.355  0.00  0.00     0.050 A 
HETATM   18  C   UNK N   1      22.657  12.576  10.767  0.00  0.00     0.111 A 
HETATM   19  N   UNK N   1      23.047  12.172  11.984  0.00  0.00    -0.351 N 
HETATM   20  N   UNK N   1      23.686  12.692   9.925  0.00  0.00    -0.317 N 
HETATM   21  C   UNK N   1      24.394  12.026  11.884  0.00  0.00     0.107 A 
ATOM     22  HN  UNK N   1      22.461  12.010  12.803  1.00  0.00     0.166 HD
HETATM   23  C   UNK N   1      24.791  12.355  10.594  0.00  0.00     0.115 A 
HETATM   24  C   UNK N   1      23.549  13.016   8.631  0.00  0.00     0.107 A 
ENDBRANCH  13  15
ENDBRANCH   1  13
BRANCH   7  25
HETATM   25  C   UNK N   1      19.605  17.498   8.212  0.00  0.00     0.026 A 
HETATM   26  C   UNK N   1      18.487  16.714   8.400  0.00  0.00     0.122 A 
HETATM   27  N   UNK N   1      17.829  17.204   9.476  0.00  0.00    -0.310 N 
HETATM   28  N   UNK N   1      18.506  18.242   9.943  0.00  0.00    -0.307 N 
ATOM     29  HN  UNK N   1      16.960  16.836   9.862  1.00  0.00     0.186 HD
HETATM   30  C   UNK N   1      19.594  18.451   9.208  0.00  0.00     0.124 A 
HETATM   31  C   UNK N   1      18.158  18.999  11.130  0.00  0.00     0.177 C 
ENDBRANCH   7  25
TORSDOF 3
ENDMDL
MODEL 6
REMARK VINA RESULT:      -7.1      5.514      8.768
REMARK  3 active torsions:
REMARK  status: ('A' for Active; 'I' for Inactive)
REMARK    1  A    between atoms: C_2  and  C_3 
REMARK    2  A    between atoms: C_2  and  N_13 
REMARK    3  A    between atoms: C_19  and  C_22 
ROOT
HETATM    1  N   UNK N   1      26.444  20.166   5.284  0.00  0.00    -0.248 N 
HETATM    2  C   UNK N   1      27.265  19.475   6.044  0.00  0.00     0.168 A 
HETATM    3  C   UNK N   1      27.204  19.924   7.298  0.00  0.00     0.164 A 
HETATM    4  N   UNK N   1      27.890  19.330   8.306  0.00  0.00    -0.346 N 
ATOM      5  HN  UNK N   1      27.868  19.703   9.256  1.00  0.00     0.167 HD
HETATM    6  C   UNK N   1      28.621  18.199   7.995  0.00  0.00     0.120 A 
HETATM    7  C   UNK N   1      28.654  17.737   6.640  0.00  0.00     0.062 A 
HETATM    8  N   UNK N   1      27.982  18.417   5.688  0.00  0.00    -0.336 N 
ATOM      9  HN  UNK N   1      28.022  18.123   4.713  1.00  0.00     0.168 HD
HETATM   10  N   UNK N   1      26.316  20.935   7.338  0.00  0.00    -0.266 N 
ATOM     11  HN  UNK N   1      26.054  21.492   8.152  1.00  0.00     0.186 HD
HETATM   12  N   UNK N   1      25.849  21.055   6.091  0.00  0.00    -0.016 NA
ENDROOT
BRANCH   1  13
HETATM   13  C   UNK N   1      26.134  19.896   3.867  0.00  0.00     0.138 C 
HETATM   14  C   UNK N   1      26.623  20.936   2.863  0.00  0.00     0.039 C 
BRANCH  13  15
HETATM   15  C   UNK N   1      24.737  19.468   3.657  0.00  0.00    -0.018 A 
HETATM   16  C   UNK N   1      24.232  18.365   4.373  0.00  0.00     0.014 A 
HETATM   17  C   UNK N   1      22.849  18.137   4.418  0.00  0.00     0.050 A 
HETATM   18  C   UNK N   1      22.029  19.061   3.773  0.00  0.00     0.111 A 
HETATM   19  N   UNK N   1      20.689  19.080   3.781  0.00  0.00    -0.351 N 
HETATM   20  N   UNK N   1      22.541  20.084   3.086  0.00  0.00    -0.317 N 
HETATM   21  C   UNK N   1      20.356  20.183   3.059  0.00  0.00     0.107 A 
ATOM     22  HN  UNK N   1      20.060  18.414   4.229  1.00  0.00     0.166 HD
HETATM   23  C   UNK N   1      21.519  20.807   2.624  0.00  0.00     0.115 A 
HETATM   24  C   UNK N   1      23.857  20.324   2.987  0.00  0.00     0.107 A 
ENDBRANCH  13  15
ENDBRANCH   1  13
BRANCH   7  25
HETATM   25  C   UNK N   1      29.154  16.442   6.210  0.00  0.00     0.026 A 
HETATM   26  C   UNK N   1      28.611  15.512   5.350  0.00  0.00     0.122 A 
HETATM   27  N   UNK N   1      29.573  14.597   5.088  0.00  0.00    -0.310 N 
HETATM   28  N   UNK N   1      30.668  14.941   5.747  0.00  0.00    -0.307 N 
ATOM     29  HN  UNK N   1      29.472  13.782   4.483  1.00  0.00     0.186 HD
HETATM   30  C   UNK N   1      30.459  16.058   6.437  0.00  0.00     0.124 A 
HETATM   31  C   UNK N   1      31.940  14.247   5.673  0.00  0.00     0.177 C 
ENDBRANCH   7  25
TORSDOF 3
ENDMDL
MODEL 7
REMARK VINA RESULT:      -7.1      9.309     13.244
REMARK  3 active torsions:
REMARK  status: ('A' for Active; 'I' for Inactive)
REMARK    1  A    between atoms: C_2  and  C_3 
REMARK    2  A    between atoms: C_2  and  N_13 
REMARK    3  A    between atoms: C_19  and  C_22 
ROOT
HETATM    1  N   UNK N   1      20.479  18.026   3.127  0.00  0.00    -0.248 N 
HETATM    2  C   UNK N   1      20.086  16.957   3.785  0.00  0.00     0.168 A 
HETATM    3  C   UNK N   1      19.668  16.027   2.926  0.00  0.00     0.164 A 
HETATM    4  N   UNK N   1      19.287  14.792   3.335  0.00  0.00    -0.346 N 
ATOM      5  HN  UNK N   1      18.932  14.099   2.675  1.00  0.00     0.167 HD
HETATM    6  C   UNK N   1      19.398  14.510   4.683  0.00  0.00     0.120 A 
HETATM    7  C   UNK N   1      19.863  15.527   5.578  0.00  0.00     0.062 A 
HETATM    8  N   UNK N   1      20.175  16.747   5.092  0.00  0.00    -0.336 N 
ATOM      9  HN  UNK N   1      20.474  17.494   5.718  1.00  0.00     0.168 HD
HETATM   10  N   UNK N   1      19.798  16.520   1.680  0.00  0.00    -0.266 N 
ATOM     11  HN  UNK N   1      19.554  16.055   0.805  1.00  0.00     0.186 HD
HETATM   12  N   UNK N   1      20.314  17.745   1.828  0.00  0.00    -0.016 NA
ENDROOT
BRANCH   1  13
HETATM   13  C   UNK N   1      21.120  19.220   3.711  0.00  0.00     0.138 C 
HETATM   14  C   UNK N   1      20.411  20.549   3.467  0.00  0.00     0.039 C 
BRANCH  13  15
HETATM   15  C   UNK N   1      22.576  19.263   3.473  0.00  0.00    -0.018 A 
HETATM   16  C   UNK N   1      23.141  20.367   2.805  0.00  0.00     0.014 A 
HETATM   17  C   UNK N   1      24.528  20.569   2.840  0.00  0.00     0.050 A 
HETATM   18  C   UNK N   1      25.284  19.669   3.589  0.00  0.00     0.111 A 
HETATM   19  N   UNK N   1      26.600  19.741   3.830  0.00  0.00    -0.351 N 
HETATM   20  N   UNK N   1      24.721  18.621   4.192  0.00  0.00    -0.317 N 
HETATM   21  C   UNK N   1      26.862  18.677   4.634  0.00  0.00     0.107 A 
ATOM     22  HN  UNK N   1      27.259  20.440   3.486  1.00  0.00     0.166 HD
HETATM   23  C   UNK N   1      25.683  17.976   4.857  0.00  0.00     0.115 A 
HETATM   24  C   UNK N   1      23.404  18.368   4.160  0.00  0.00     0.107 A 
ENDBRANCH  13  15
ENDBRANCH   1  13
BRANCH   7  25
HETATM   25  C   UNK N   1      20.273  15.308   6.955  0.00  0.00     0.026 A 
HETATM   26  C   UNK N   1      20.049  16.061   8.087  0.00  0.00     0.122 A 
HETATM   27  N   UNK N   1      20.416  15.307   9.149  0.00  0.00    -0.310 N 
HETATM   28  N   UNK N   1      20.845  14.136   8.703  0.00  0.00    -0.307 N 
ATOM     29  HN  UNK N   1      20.370  15.592  10.127  1.00  0.00     0.186 HD
HETATM   30  C   UNK N   1      20.770  14.093   7.376  0.00  0.00     0.124 A 
HETATM   31  C   UNK N   1      21.266  13.028   9.539  0.00  0.00     0.177 C 
ENDBRANCH   7  25
TORSDOF 3
ENDMDL
MODEL 8
REMARK VINA RESULT:      -7.1      8.935     13.672
REMARK  3 active torsions:
REMARK  status: ('A' for Active; 'I' for Inactive)
REMARK    1  A    between atoms: C_2  and  C_3 
REMARK    2  A    between atoms: C_2  and  N_13 
REMARK    3  A    between atoms: C_19  and  C_22 
ROOT
HETATM    1  N   UNK N   1      21.008  18.119   3.561  0.00  0.00    -0.248 N 
HETATM    2  C   UNK N   1      20.640  17.292   2.606  0.00  0.00     0.168 A 
HETATM    3  C   UNK N   1      19.698  17.863   1.854  0.00  0.00     0.164 A 
HETATM    4  N   UNK N   1      19.201  17.259   0.746  0.00  0.00    -0.346 N 
ATOM      5  HN  UNK N   1      18.454  17.686   0.198  1.00  0.00     0.167 HD
HETATM    6  C   UNK N   1      19.750  16.042   0.389  0.00  0.00     0.120 A 
HETATM    7  C   UNK N   1      20.770  15.463   1.212  0.00  0.00     0.062 A 
HETATM    8  N   UNK N   1      21.171  16.109   2.326  0.00  0.00    -0.336 N 
ATOM      9  HN  UNK N   1      21.870  15.696   2.942  1.00  0.00     0.168 HD
HETATM   10  N   UNK N   1      19.457  19.093   2.347  0.00  0.00    -0.266 N 
ATOM     11  HN  UNK N   1      18.782  19.774   1.999  1.00  0.00     0.186 HD
HETATM   12  N   UNK N   1      20.286  19.234   3.387  0.00  0.00    -0.016 NA
ENDROOT
BRANCH   1  13
HETATM   13  C   UNK N   1      22.109  17.906   4.520  0.00  0.00     0.138 C 
HETATM   14  C   UNK N   1      21.804  18.243   5.977  0.00  0.00     0.039 C 
BRANCH  13  15
HETATM   15  C   UNK N   1      23.400  18.434   4.038  0.00  0.00    -0.018 A 
HETATM   16  C   UNK N   1      23.457  19.724   3.476  0.00  0.00     0.014 A 
HETATM   17  C   UNK N   1      24.699  20.351   3.297  0.00  0.00     0.050 A 
HETATM   18  C   UNK N   1      25.829  19.665   3.737  0.00  0.00     0.111 A 
HETATM   19  N   UNK N   1      27.087  20.126   3.749  0.00  0.00    -0.351 N 
HETATM   20  N   UNK N   1      25.741  18.435   4.247  0.00  0.00    -0.317 N 
HETATM   21  C   UNK N   1      27.817  19.123   4.303  0.00  0.00     0.107 A 
ATOM     22  HN  UNK N   1      27.423  21.031   3.416  1.00  0.00     0.166 HD
HETATM   23  C   UNK N   1      26.971  18.064   4.611  0.00  0.00     0.115 A 
HETATM   24  C   UNK N   1      24.581  17.782   4.406  0.00  0.00     0.107 A 
ENDBRANCH  13  15
ENDBRANCH   1  13
BRANCH   7  25
HETATM   25  C   UNK N   1      21.610  14.338   0.836  0.00  0.00     0.026 A 
HETATM   26  C   UNK N   1      22.982  14.223   0.782  0.00  0.00     0.122 A 
HETATM   27  N   UNK N   1      23.269  12.911   0.620  0.00  0.00    -0.310 N 
HETATM   28  N   UNK N   1      22.131  12.236   0.579  0.00  0.00    -0.307 N 
ATOM     29  HN  UNK N   1      24.203  12.511   0.542  1.00  0.00     0.186 HD
HETATM   30  C   UNK N   1      21.099  13.064   0.712  0.00  0.00     0.124 A 
HETATM   31  C   UNK N   1      22.019  10.793   0.480  0.00  0.00     0.177 C 
ENDBRANCH   7  25
TORSDOF 3
ENDMDL
MODEL 9
REMARK VINA RESULT:      -7.1     11.410     14.104
REMARK  3 active torsions:
REMARK  status: ('A' for Active; 'I' for Inactive)
REMARK    1  A    between atoms: C_2  and  C_3 
REMARK    2  A    between atoms: C_2  and  N_13 
REMARK    3  A    between atoms: C_19  and  C_22 
ROOT
HETATM    1  N   UNK N   1      21.586  18.577   4.151  0.00  0.00    -0.248 N 
HETATM    2  C   UNK N   1      21.013  17.869   3.202  0.00  0.00     0.168 A 
HETATM    3  C   UNK N   1      20.210  18.650   2.479  0.00  0.00     0.164 A 
HETATM    4  N   UNK N   1      19.559  18.189   1.382  0.00  0.00    -0.346 N 
ATOM      5  HN  UNK N   1      18.917  18.783   0.856  1.00  0.00     0.167 HD
HETATM    6  C   UNK N   1      19.802  16.882   1.004  0.00  0.00     0.120 A 
HETATM    7  C   UNK N   1      20.681  16.075   1.796  0.00  0.00     0.062 A 
HETATM    8  N   UNK N   1      21.248  16.598   2.902  0.00  0.00    -0.336 N 
ATOM      9  HN  UNK N   1      21.849  16.028   3.497  1.00  0.00     0.168 HD
HETATM   10  N   UNK N   1      20.272  19.896   2.984  0.00  0.00    -0.266 N 
ATOM     11  HN  UNK N   1      19.765  20.719   2.657  1.00  0.00     0.186 HD
HETATM   12  N   UNK N   1      21.137  19.831   4.001  0.00  0.00    -0.016 NA
ENDROOT
BRANCH   1  13
HETATM   13  C   UNK N   1      22.631  18.105   5.079  0.00  0.00     0.138 C 
HETATM   14  C   UNK N   1      24.047  18.033   4.515  0.00  0.00     0.039 C 
BRANCH  13  15
HETATM   15  C   UNK N   1      22.224  16.907   5.838  0.00  0.00    -0.018 A 
HETATM   16  C   UNK N   1      23.078  15.788   5.882  0.00  0.00     0.014 A 
HETATM   17  C   UNK N   1      22.855  14.777   6.830  0.00  0.00     0.050 A 
HETATM   18  C   UNK N   1      21.803  14.964   7.724  0.00  0.00     0.111 A 
HETATM   19  N   UNK N   1      21.487  14.172   8.759  0.00  0.00    -0.351 N 
HETATM   20  N   UNK N   1      21.000  16.025   7.642  0.00  0.00    -0.317 N 
HETATM   21  C   UNK N   1      20.429  14.787   9.351  0.00  0.00     0.107 A 
ATOM     22  HN  UNK N   1      21.940  13.303   9.039  1.00  0.00     0.166 HD
HETATM   23  C   UNK N   1      20.125  15.946   8.647  0.00  0.00     0.115 A 
HETATM   24  C   UNK N   1      21.153  17.000   6.733  0.00  0.00     0.107 A 
ENDBRANCH  13  15
ENDBRANCH   1  13
BRANCH   7  25
HETATM   25  C   UNK N   1      21.228  14.790   1.392  0.00  0.00     0.026 A 
HETATM   26  C   UNK N   1      20.604  13.668   0.892  0.00  0.00     0.122 A 
HETATM   27  N   UNK N   1      21.574  12.838   0.441  0.00  0.00    -0.310 N 
HETATM   28  N   UNK N   1      22.747  13.416   0.644  0.00  0.00    -0.307 N 
ATOM     29  HN  UNK N   1      21.424  11.924   0.015  1.00  0.00     0.186 HD
HETATM   30  C   UNK N   1      22.583  14.605   1.215  0.00  0.00     0.124 A 
HETATM   31  C   UNK N   1      24.028  12.870   0.236  0.00  0.00     0.177 C 
ENDBRANCH   7  25
TORSDOF 3
ENDMDL
