MODEL 1
REMARK VINA RESULT:      -9.3      0.000      0.000
REMARK  12 active torsions:
REMARK  status: ('A' for Active; 'I' for Inactive)
REMARK    1  A    between atoms: N_8  and  N_7 
REMARK    2  A    between atoms: N_8  and  C_10 
REMARK    3  A    between atoms: C_10  and  C_11 
REMARK    4  A    between atoms: C_14  and  O_42 
REMARK    5  A    between atoms: C_15  and  C_17 
REMARK    6  A    between atoms: C_17  and  C_18 
REMARK    7  A    between atoms: C_17  and  C_25 
REMARK    8  A    between atoms: C_21  and  O_24 
REMARK    9  A    between atoms: C_32  and  C_27 
REMARK   10  A    between atoms: C_30  and  O_31 
REMARK   11  A    between atoms: C_32  and  N_33 
REMARK   12  A    between atoms: N_33  and  N_35 
ROOT
HETATM    1  C   UNK N   1      27.264  16.876   6.394  0.00  0.00     0.090 C 
ENDROOT
BRANCH   1   2
HETATM    2  C   UNK N   1      26.778  15.441   6.137  0.00  0.00    -0.011 A 
HETATM    3  C   UNK N   1      27.232  14.643   5.046  0.00  0.00     0.073 A 
HETATM    4  C   UNK N   1      26.764  13.333   4.891  0.00  0.00     0.038 A 
HETATM    5  C   UNK N   1      25.857  12.791   5.799  0.00  0.00     0.015 A 
HETATM    6  C   UNK N   1      25.387  13.570   6.854  0.00  0.00    -0.019 A 
HETATM    7  C   UNK N   1      25.839  14.883   7.004  0.00  0.00     0.024 A 
BRANCH   3   8
HETATM    8  O   UNK N   1      28.108  15.110   4.142  0.00  0.00    -0.360 OA
HETATM    9  H   UNK N   1      28.725  15.772   4.385  0.00  0.00     0.217 HD
ENDBRANCH   3   8
BRANCH   6  10
HETATM   10  C   UNK N   1      24.507  12.983   7.866  0.00  0.00     0.120 C 
BRANCH  10  11
HETATM   11  N   UNK N   1      24.358  13.572   8.999  0.00  0.00    -0.290 N 
ATOM     12  HN  UNK N   1      24.516  14.578   9.059  1.00  0.00     0.188 HD
BRANCH  11  13
HETATM   13  N   UNK N   1      23.988  12.878  10.139  0.00  0.00    -0.169 N 
HETATM   14  N   UNK N   1      24.808  12.308  11.003  0.00  0.00     0.016 NA
HETATM   15  N   UNK N   1      24.084  11.781  11.980  0.00  0.00    -0.006 NA
HETATM   16  N   UNK N   1      22.792  12.014  11.753  0.00  0.00    -0.272 N 
HETATM   17  C   UNK N   1      22.747  12.701  10.600  0.00  0.00     0.128 A 
ATOM     18  HN  UNK N   1      22.003  11.730  12.334  1.00  0.00     0.185 HD
HETATM   19  C   UNK N   1      21.504  13.203   9.948  0.00  0.00     0.093 C 
ENDBRANCH  11  13
ENDBRANCH  10  11
ENDBRANCH   6  10
ENDBRANCH   1   2
BRANCH   1  20
HETATM   20  C   UNK N   1      26.859  17.932   5.419  0.00  0.00    -0.045 A 
HETATM   21  C   UNK N   1      27.602  19.111   5.295  0.00  0.00     0.011 A 
HETATM   22  C   UNK N   1      27.242  20.061   4.336  0.00  0.00     0.037 A 
HETATM   23  C   UNK N   1      26.139  19.835   3.506  0.00  0.00     0.065 A 
HETATM   24  C   UNK N   1      25.386  18.667   3.643  0.00  0.00     0.037 A 
HETATM   25  C   UNK N   1      25.746  17.713   4.597  0.00  0.00     0.011 A 
BRANCH  23  26
HETATM   26  O   UNK N   1      25.805  20.741   2.575  0.00  0.00    -0.361 OA
HETATM   27  H   UNK N   1      25.129  20.562   1.951  0.00  0.00     0.217 HD
ENDBRANCH  23  26
ENDBRANCH   1  20
BRANCH   1  28
HETATM   28  C   UNK N   1      28.517  17.241   7.195  0.00  0.00    -0.011 A 
HETATM   29  C   UNK N   1      29.747  16.949   6.588  0.00  0.00     0.024 A 
HETATM   30  C   UNK N   1      30.963  17.222   7.214  0.00  0.00    -0.019 A 
HETATM   31  C   UNK N   1      30.967  17.858   8.457  0.00  0.00     0.015 A 
HETATM   32  C   UNK N   1      29.757  18.125   9.106  0.00  0.00     0.038 A 
HETATM   33  C   UNK N   1      28.533  17.810   8.499  0.00  0.00     0.073 A 
BRANCH  30  34
HETATM   34  C   UNK N   1      32.211  17.016   6.456  0.00  0.00     0.120 C 
BRANCH  34  35
HETATM   35  N   UNK N   1      33.313  16.616   7.002  0.00  0.00    -0.290 N 
ATOM     36  HN  UNK N   1      33.667  15.690   6.760  1.00  0.00     0.188 HD
BRANCH  35  37
HETATM   37  N   UNK N   1      34.042  17.391   7.904  0.00  0.00    -0.169 N 
HETATM   38  C   UNK N   1      34.497  17.035   9.114  0.00  0.00     0.128 A 
HETATM   39  N   UNK N   1      35.316  17.994   9.583  0.00  0.00    -0.272 N 
HETATM   40  C   UNK N   1      34.173  15.774   9.833  0.00  0.00     0.093 C 
HETATM   41  N   UNK N   1      35.356  18.926   8.636  0.00  0.00    -0.006 NA
ATOM     42  HN  UNK N   1      35.806  18.004  10.478  1.00  0.00     0.185 HD
HETATM   43  N   UNK N   1      34.588  18.559   7.617  0.00  0.00     0.016 NA
ENDBRANCH  35  37
ENDBRANCH  34  35
ENDBRANCH  30  34
BRANCH  33  44
HETATM   44  O   UNK N   1      27.403  18.054   9.180  0.00  0.00    -0.360 OA
HETATM   45  H   UNK N   1      27.000  18.882   9.359  0.00  0.00     0.217 HD
ENDBRANCH  33  44
ENDBRANCH   1  28
TORSDOF 12
ENDMDL
MODEL 2
REMARK VINA RESULT:      -9.2      4.392      9.329
REMARK  12 active torsions:
REMARK  status: ('A' for Active; 'I' for Inactive)
REMARK    1  A    between atoms: N_8  and  N_7 
REMARK    2  A    between atoms: N_8  and  C_10 
REMARK    3  A    between atoms: C_10  and  C_11 
REMARK    4  A    between atoms: C_14  and  O_42 
REMARK    5  A    between atoms: C_15  and  C_17 
REMARK    6  A    between atoms: C_17  and  C_18 
REMARK    7  A    between atoms: C_17  and  C_25 
REMARK    8  A    between atoms: C_21  and  O_24 
REMARK    9  A    between atoms: C_32  and  C_27 
REMARK   10  A    between atoms: C_30  and  O_31 
REMARK   11  A    between atoms: C_32  and  N_33 
REMARK   12  A    between atoms: N_33  and  N_35 
ROOT
HETATM    1  C   UNK N   1      22.649  17.126   4.200  0.00  0.00     0.090 C 
ENDROOT
BRANCH   1   2
HETATM    2  C   UNK N   1      23.698  18.204   3.891  0.00  0.00    -0.011 A 
HETATM    3  C   UNK N   1      23.367  19.552   3.563  0.00  0.00     0.073 A 
HETATM    4  C   UNK N   1      24.380  20.486   3.318  0.00  0.00     0.038 A 
HETATM    5  C   UNK N   1      25.720  20.116   3.397  0.00  0.00     0.015 A 
HETATM    6  C   UNK N   1      26.056  18.797   3.691  0.00  0.00    -0.019 A 
HETATM    7  C   UNK N   1      25.049  17.857   3.921  0.00  0.00     0.024 A 
BRANCH   3   8
HETATM    8  O   UNK N   1      22.093  19.967   3.475  0.00  0.00    -0.360 OA
HETATM    9  H   UNK N   1      21.708  20.125   2.635  0.00  0.00     0.217 HD
ENDBRANCH   3   8
BRANCH   6  10
HETATM   10  C   UNK N   1      27.460  18.417   3.868  0.00  0.00     0.120 C 
BRANCH  10  11
HETATM   11  N   UNK N   1      28.196  19.069   4.695  0.00  0.00    -0.290 N 
ATOM     12  HN  UNK N   1      28.894  19.719   4.332  1.00  0.00     0.188 HD
BRANCH  11  13
HETATM   13  N   UNK N   1      28.066  18.915   6.065  0.00  0.00    -0.169 N 
HETATM   14  N   UNK N   1      28.445  17.863   6.769  0.00  0.00     0.016 NA
HETATM   15  N   UNK N   1      28.196  18.105   8.048  0.00  0.00    -0.006 NA
HETATM   16  N   UNK N   1      27.660  19.317   8.176  0.00  0.00    -0.272 N 
HETATM   17  C   UNK N   1      27.585  19.812   6.929  0.00  0.00     0.128 A 
ATOM     18  HN  UNK N   1      27.367  19.774   9.040  1.00  0.00     0.185 HD
HETATM   19  C   UNK N   1      27.063  21.162   6.572  0.00  0.00     0.093 C 
ENDBRANCH  11  13
ENDBRANCH  10  11
ENDBRANCH   6  10
ENDBRANCH   1   2
BRANCH   1  20
HETATM   20  C   UNK N   1      21.819  16.619   3.067  0.00  0.00    -0.045 A 
HETATM   21  C   UNK N   1      22.180  15.451   2.386  0.00  0.00     0.011 A 
HETATM   22  C   UNK N   1      21.360  14.960   1.367  0.00  0.00     0.037 A 
HETATM   23  C   UNK N   1      20.185  15.637   1.026  0.00  0.00     0.065 A 
HETATM   24  C   UNK N   1      19.834  16.812   1.693  0.00  0.00     0.037 A 
HETATM   25  C   UNK N   1      20.649  17.303   2.715  0.00  0.00     0.011 A 
BRANCH  23  26
HETATM   26  O   UNK N   1      19.391  15.154   0.059  0.00  0.00    -0.361 OA
HETATM   27  H   UNK N   1      18.813  14.436   0.225  0.00  0.00     0.217 HD
ENDBRANCH  23  26
ENDBRANCH   1  20
BRANCH   1  28
HETATM   28  C   UNK N   1      21.998  16.912   5.570  0.00  0.00    -0.011 A 
HETATM   29  C   UNK N   1      22.171  15.645   6.146  0.00  0.00     0.024 A 
HETATM   30  C   UNK N   1      21.622  15.315   7.385  0.00  0.00    -0.019 A 
HETATM   31  C   UNK N   1      20.927  16.288   8.107  0.00  0.00     0.015 A 
HETATM   32  C   UNK N   1      20.703  17.547   7.542  0.00  0.00     0.038 A 
HETATM   33  C   UNK N   1      21.215  17.866   6.276  0.00  0.00     0.073 A 
BRANCH  30  34
HETATM   34  C   UNK N   1      21.964  14.014   7.987  0.00  0.00     0.120 C 
BRANCH  34  35
HETATM   35  N   UNK N   1      22.279  13.871   9.234  0.00  0.00    -0.290 N 
ATOM     36  HN  UNK N   1      23.090  14.377   9.591  1.00  0.00     0.188 HD
BRANCH  35  37
HETATM   37  N   UNK N   1      21.561  13.060  10.112  0.00  0.00    -0.169 N 
HETATM   38  C   UNK N   1      22.045  12.258  11.073  0.00  0.00     0.128 A 
HETATM   39  N   UNK N   1      21.028  11.799  11.825  0.00  0.00    -0.272 N 
HETATM   40  C   UNK N   1      23.478  11.931  11.298  0.00  0.00     0.093 C 
HETATM   41  N   UNK N   1      19.929  12.342  11.312  0.00  0.00    -0.006 NA
ATOM     42  HN  UNK N   1      21.088  11.166  12.623  1.00  0.00     0.185 HD
HETATM   43  N   UNK N   1      20.252  13.109  10.277  0.00  0.00     0.016 NA
ENDBRANCH  35  37
ENDBRANCH  34  35
ENDBRANCH  30  34
BRANCH  33  44
HETATM   44  O   UNK N   1      20.941  19.076   5.765  0.00  0.00    -0.360 OA
HETATM   45  H   UNK N   1      21.284  19.468   4.986  0.00  0.00     0.217 HD
ENDBRANCH  33  44
ENDBRANCH   1  28
TORSDOF 12
ENDMDL
MODEL 3
REMARK VINA RESULT:      -9.2      4.181      8.640
REMARK  12 active torsions:
REMARK  status: ('A' for Active; 'I' for Inactive)
REMARK    1  A    between atoms: N_8  and  N_7 
REMARK    2  A    between atoms: N_8  and  C_10 
REMARK    3  A    between atoms: C_10  and  C_11 
REMARK    4  A    between atoms: C_14  and  O_42 
REMARK    5  A    between atoms: C_15  and  C_17 
REMARK    6  A    between atoms: C_17  and  C_18 
REMARK    7  A    between atoms: C_17  and  C_25 
REMARK    8  A    between atoms: C_21  and  O_24 
REMARK    9  A    between atoms: C_32  and  C_27 
REMARK   10  A    between atoms: C_30  and  O_31 
REMARK   11  A    between atoms: C_32  and  N_33 
REMARK   12  A    between atoms: N_33  and  N_35 
ROOT
HETATM    1  C   UNK N   1      28.941  17.408   5.930  0.00  0.00     0.090 C 
ENDROOT
BRANCH   1   2
HETATM    2  C   UNK N   1      30.404  17.328   5.469  0.00  0.00    -0.011 A 
HETATM    3  C   UNK N   1      30.794  17.270   4.099  0.00  0.00     0.073 A 
HETATM    4  C   UNK N   1      32.150  17.225   3.754  0.00  0.00     0.038 A 
HETATM    5  C   UNK N   1      33.134  17.242   4.740  0.00  0.00     0.015 A 
HETATM    6  C   UNK N   1      32.765  17.272   6.083  0.00  0.00    -0.019 A 
HETATM    7  C   UNK N   1      31.413  17.301   6.432  0.00  0.00     0.024 A 
BRANCH   3   8
HETATM    8  O   UNK N   1      29.891  17.255   3.105  0.00  0.00    -0.360 OA
HETATM    9  H   UNK N   1      29.264  16.559   3.052  0.00  0.00     0.217 HD
ENDBRANCH   3   8
BRANCH   6  10
HETATM   10  C   UNK N   1      33.788  17.383   7.125  0.00  0.00     0.120 C 
BRANCH  10  11
HETATM   11  N   UNK N   1      33.468  17.188   8.354  0.00  0.00    -0.290 N 
ATOM     12  HN  UNK N   1      32.504  17.347   8.647  1.00  0.00     0.188 HD
BRANCH  11  13
HETATM   13  N   UNK N   1      34.398  16.767   9.291  0.00  0.00    -0.169 N 
HETATM   14  N   UNK N   1      35.293  17.528   9.894  0.00  0.00     0.016 NA
HETATM   15  N   UNK N   1      35.970  16.776  10.751  0.00  0.00    -0.006 NA
HETATM   16  N   UNK N   1      35.510  15.527  10.708  0.00  0.00    -0.272 N 
HETATM   17  C   UNK N   1      34.527  15.536   9.792  0.00  0.00     0.128 A 
ATOM     18  HN  UNK N   1      35.836  14.730  11.256  1.00  0.00     0.185 HD
HETATM   19  C   UNK N   1      33.699  14.357   9.410  0.00  0.00     0.093 C 
ENDBRANCH  11  13
ENDBRANCH  10  11
ENDBRANCH   6  10
ENDBRANCH   1   2
BRANCH   1  20
HETATM   20  C   UNK N   1      28.106  16.175   5.808  0.00  0.00    -0.045 A 
HETATM   21  C   UNK N   1      28.586  15.055   5.120  0.00  0.00     0.011 A 
HETATM   22  C   UNK N   1      27.815  13.891   5.068  0.00  0.00     0.037 A 
HETATM   23  C   UNK N   1      26.566  13.849   5.696  0.00  0.00     0.065 A 
HETATM   24  C   UNK N   1      26.080  14.973   6.366  0.00  0.00     0.037 A 
HETATM   25  C   UNK N   1      26.850  16.136   6.425  0.00  0.00     0.011 A 
BRANCH  23  26
HETATM   26  O   UNK N   1      25.835  12.724   5.657  0.00  0.00    -0.361 OA
HETATM   27  H   UNK N   1      25.839  12.124   6.377  0.00  0.00     0.217 HD
ENDBRANCH  23  26
ENDBRANCH   1  20
BRANCH   1  28
HETATM   28  C   UNK N   1      28.114  18.695   5.985  0.00  0.00    -0.011 A 
HETATM   29  C   UNK N   1      27.616  19.163   4.760  0.00  0.00     0.024 A 
HETATM   30  C   UNK N   1      26.856  20.330   4.669  0.00  0.00    -0.019 A 
HETATM   31  C   UNK N   1      26.528  21.027   5.833  0.00  0.00     0.015 A 
HETATM   32  C   UNK N   1      27.044  20.609   7.064  0.00  0.00     0.038 A 
HETATM   33  C   UNK N   1      27.846  19.462   7.152  0.00  0.00     0.073 A 
BRANCH  30  34
HETATM   34  C   UNK N   1      26.251  20.681   3.371  0.00  0.00     0.120 C 
BRANCH  34  35
HETATM   35  N   UNK N   1      25.437  19.903   2.735  0.00  0.00    -0.290 N 
ATOM     36  HN  UNK N   1      25.809  19.317   1.987  1.00  0.00     0.188 HD
BRANCH  35  37
HETATM   37  N   UNK N   1      24.075  19.826   3.025  0.00  0.00    -0.169 N 
HETATM   38  C   UNK N   1      23.455  18.956   3.837  0.00  0.00     0.128 A 
HETATM   39  N   UNK N   1      22.174  19.334   4.000  0.00  0.00    -0.272 N 
HETATM   40  C   UNK N   1      24.075  17.767   4.479  0.00  0.00     0.093 C 
HETATM   41  N   UNK N   1      22.034  20.446   3.286  0.00  0.00    -0.006 NA
ATOM     42  HN  UNK N   1      21.459  18.866   4.558  1.00  0.00     0.185 HD
HETATM   43  N   UNK N   1      23.186  20.746   2.698  0.00  0.00     0.016 NA
ENDBRANCH  35  37
ENDBRANCH  34  35
ENDBRANCH  30  34
BRANCH  33  44
HETATM   44  O   UNK N   1      28.344  19.124   8.351  0.00  0.00    -0.360 OA
HETATM   45  H   UNK N   1      28.913  18.409   8.564  0.00  0.00     0.217 HD
ENDBRANCH  33  44
ENDBRANCH   1  28
TORSDOF 12
ENDMDL
MODEL 4
REMARK VINA RESULT:      -9.1      4.246      9.477
REMARK  12 active torsions:
REMARK  status: ('A' for Active; 'I' for Inactive)
REMARK    1  A    between atoms: N_8  and  N_7 
REMARK    2  A    between atoms: N_8  and  C_10 
REMARK    3  A    between atoms: C_10  and  C_11 
REMARK    4  A    between atoms: C_14  and  O_42 
REMARK    5  A    between atoms: C_15  and  C_17 
REMARK    6  A    between atoms: C_17  and  C_18 
REMARK    7  A    between atoms: C_17  and  C_25 
REMARK    8  A    between atoms: C_21  and  O_24 
REMARK    9  A    between atoms: C_32  and  C_27 
REMARK   10  A    between atoms: C_30  and  O_31 
REMARK   11  A    between atoms: C_32  and  N_33 
REMARK   12  A    between atoms: N_33  and  N_35 
ROOT
HETATM    1  C   UNK N   1      28.082  17.238   5.512  0.00  0.00     0.090 C 
ENDROOT
BRANCH   1   2
HETATM    2  C   UNK N   1      29.074  17.576   6.636  0.00  0.00    -0.011 A 
HETATM    3  C   UNK N   1      28.709  18.283   7.819  0.00  0.00     0.073 A 
HETATM    4  C   UNK N   1      29.663  18.531   8.812  0.00  0.00     0.038 A 
HETATM    5  C   UNK N   1      30.976  18.088   8.663  0.00  0.00     0.015 A 
HETATM    6  C   UNK N   1      31.350  17.419   7.500  0.00  0.00    -0.019 A 
HETATM    7  C   UNK N   1      30.405  17.182   6.499  0.00  0.00     0.024 A 
BRANCH   3   8
HETATM    8  O   UNK N   1      27.460  18.732   8.020  0.00  0.00    -0.360 OA
HETATM    9  H   UNK N   1      27.165  19.509   7.585  0.00  0.00     0.217 HD
ENDBRANCH   3   8
BRANCH   6  10
HETATM   10  C   UNK N   1      32.700  16.867   7.371  0.00  0.00     0.120 C 
BRANCH  10  11
HETATM   11  N   UNK N   1      33.147  16.062   8.267  0.00  0.00    -0.290 N 
ATOM     12  HN  UNK N   1      32.773  15.114   8.313  1.00  0.00     0.188 HD
BRANCH  11  13
HETATM   13  N   UNK N   1      34.124  16.447   9.171  0.00  0.00    -0.169 N 
HETATM   14  N   UNK N   1      34.726  17.622   9.212  0.00  0.00     0.016 NA
HETATM   15  N   UNK N   1      35.564  17.625  10.239  0.00  0.00    -0.006 NA
HETATM   16  N   UNK N   1      35.503  16.453  10.869  0.00  0.00    -0.272 N 
HETATM   17  C   UNK N   1      34.598  15.727  10.191  0.00  0.00     0.128 A 
ATOM     18  HN  UNK N   1      36.032  16.167  11.692  1.00  0.00     0.185 HD
HETATM   19  C   UNK N   1      34.178  14.339  10.538  0.00  0.00     0.093 C 
ENDBRANCH  11  13
ENDBRANCH  10  11
ENDBRANCH   6  10
ENDBRANCH   1   2
BRANCH   1  20
HETATM   20  C   UNK N   1      28.351  16.020   4.691  0.00  0.00    -0.045 A 
HETATM   21  C   UNK N   1      28.101  14.743   5.207  0.00  0.00     0.011 A 
HETATM   22  C   UNK N   1      28.303  13.618   4.404  0.00  0.00     0.037 A 
HETATM   23  C   UNK N   1      28.758  13.768   3.090  0.00  0.00     0.065 A 
HETATM   24  C   UNK N   1      29.025  15.041   2.581  0.00  0.00     0.037 A 
HETATM   25  C   UNK N   1      28.820  16.168   3.380  0.00  0.00     0.011 A 
BRANCH  23  26
HETATM   26  O   UNK N   1      28.936  12.687   2.316  0.00  0.00    -0.361 OA
HETATM   27  H   UNK N   1      28.242  12.365   1.775  0.00  0.00     0.217 HD
ENDBRANCH  23  26
ENDBRANCH   1  20
BRANCH   1  28
HETATM   28  C   UNK N   1      27.187  18.259   4.804  0.00  0.00    -0.011 A 
HETATM   29  C   UNK N   1      25.844  17.892   4.634  0.00  0.00     0.024 A 
HETATM   30  C   UNK N   1      24.925  18.726   3.996  0.00  0.00    -0.019 A 
HETATM   31  C   UNK N   1      25.332  19.991   3.564  0.00  0.00     0.015 A 
HETATM   32  C   UNK N   1      26.673  20.369   3.683  0.00  0.00     0.038 A 
HETATM   33  C   UNK N   1      27.609  19.514   4.283  0.00  0.00     0.073 A 
BRANCH  30  34
HETATM   34  C   UNK N   1      23.505  18.332   3.979  0.00  0.00     0.120 C 
BRANCH  34  35
HETATM   35  N   UNK N   1      22.534  19.177   4.113  0.00  0.00    -0.290 N 
ATOM     36  HN  UNK N   1      22.252  19.447   5.056  1.00  0.00     0.188 HD
BRANCH  35  37
HETATM   37  N   UNK N   1      21.856  19.735   3.030  0.00  0.00    -0.169 N 
HETATM   38  C   UNK N   1      20.772  19.255   2.402  0.00  0.00     0.128 A 
HETATM   39  N   UNK N   1      20.310  20.180   1.540  0.00  0.00    -0.272 N 
HETATM   40  C   UNK N   1      20.155  17.920   2.622  0.00  0.00     0.093 C 
HETATM   41  N   UNK N   1      21.121  21.225   1.666  0.00  0.00    -0.006 NA
ATOM     42  HN  UNK N   1      19.503  20.096   0.921  1.00  0.00     0.185 HD
HETATM   43  N   UNK N   1      22.055  20.958   2.571  0.00  0.00     0.016 NA
ENDBRANCH  35  37
ENDBRANCH  34  35
ENDBRANCH  30  34
BRANCH  33  44
HETATM   44  O   UNK N   1      28.889  19.910   4.340  0.00  0.00    -0.360 OA
HETATM   45  H   UNK N   1      29.288  20.649   3.922  0.00  0.00     0.217 HD
ENDBRANCH  33  44
ENDBRANCH   1  28
TORSDOF 12
ENDMDL
MODEL 5
REMARK VINA RESULT:      -9.1      1.497      2.579
REMARK  12 active torsions:
REMARK  status: ('A' for Active; 'I' for Inactive)
REMARK    1  A    between atoms: N_8  and  N_7 
REMARK    2  A    between atoms: N_8  and  C_10 
REMARK    3  A    between atoms: C_10  and  C_11 
REMARK    4  A    between atoms: C_14  and  O_42 
REMARK    5  A    between atoms: C_15  and  C_17 
REMARK    6  A    between atoms: C_17  and  C_18 
REMARK    7  A    between atoms: C_17  and  C_25 
REMARK    8  A    between atoms: C_21  and  O_24 
REMARK    9  A    between atoms: C_32  and  C_27 
REMARK   10  A    between atoms: C_30  and  O_31 
REMARK   11  A    between atoms: C_32  and  N_33 
REMARK   12  A    between atoms: N_33  and  N_35 
ROOT
HETATM    1  C   UNK N   1      27.398  17.013   6.448  0.00  0.00     0.090 C 
ENDROOT
BRANCH   1   2
HETATM    2  C   UNK N   1      26.976  15.569   6.138  0.00  0.00    -0.011 A 
HETATM    3  C   UNK N   1      27.594  14.769   5.132  0.00  0.00     0.073 A 
HETATM    4  C   UNK N   1      27.172  13.451   4.925  0.00  0.00     0.038 A 
HETATM    5  C   UNK N   1      26.152  12.901   5.698  0.00  0.00     0.015 A 
HETATM    6  C   UNK N   1      25.524  13.681   6.666  0.00  0.00    -0.019 A 
HETATM    7  C   UNK N   1      25.930  15.002   6.867  0.00  0.00     0.024 A 
BRANCH   3   8
HETATM    8  O   UNK N   1      28.583  15.243   4.358  0.00  0.00    -0.360 OA
HETATM    9  H   UNK N   1      28.949  16.089   4.531  0.00  0.00     0.217 HD
ENDBRANCH   3   8
BRANCH   6  10
HETATM   10  C   UNK N   1      24.516  13.088   7.548  0.00  0.00     0.120 C 
BRANCH  10  11
HETATM   11  N   UNK N   1      24.156  13.711   8.613  0.00  0.00    -0.290 N 
ATOM     12  HN  UNK N   1      23.975  14.714   8.564  1.00  0.00     0.188 HD
BRANCH  11  13
HETATM   13  N   UNK N   1      24.007  13.057   9.825  0.00  0.00    -0.169 N 
HETATM   14  N   UNK N   1      24.982  12.553  10.561  0.00  0.00     0.016 NA
HETATM   15  N   UNK N   1      24.450  12.048  11.665  0.00  0.00    -0.006 NA
HETATM   16  N   UNK N   1      23.131  12.228  11.649  0.00  0.00    -0.272 N 
HETATM   17  C   UNK N   1      22.868  12.861  10.493  0.00  0.00     0.128 A 
ATOM     18  HN  UNK N   1      22.460  11.945  12.364  1.00  0.00     0.185 HD
HETATM   19  C   UNK N   1      21.515  13.292  10.040  0.00  0.00     0.093 C 
ENDBRANCH  11  13
ENDBRANCH  10  11
ENDBRANCH   6  10
ENDBRANCH   1   2
BRANCH   1  20
HETATM   20  C   UNK N   1      27.027  18.072   5.462  0.00  0.00    -0.045 A 
HETATM   21  C   UNK N   1      27.781  19.246   5.360  0.00  0.00     0.011 A 
HETATM   22  C   UNK N   1      27.454  20.199   4.391  0.00  0.00     0.037 A 
HETATM   23  C   UNK N   1      26.373  19.980   3.531  0.00  0.00     0.065 A 
HETATM   24  C   UNK N   1      25.609  18.817   3.646  0.00  0.00     0.037 A 
HETATM   25  C   UNK N   1      25.937  17.861   4.610  0.00  0.00     0.011 A 
BRANCH  23  26
HETATM   26  O   UNK N   1      26.071  20.889   2.591  0.00  0.00    -0.361 OA
HETATM   27  H   UNK N   1      25.323  20.778   2.038  0.00  0.00     0.217 HD
ENDBRANCH  23  26
ENDBRANCH   1  20
BRANCH   1  28
HETATM   28  C   UNK N   1      28.582  17.403   7.337  0.00  0.00    -0.011 A 
HETATM   29  C   UNK N   1      29.856  17.076   6.851  0.00  0.00     0.024 A 
HETATM   30  C   UNK N   1      31.017  17.366   7.567  0.00  0.00    -0.019 A 
HETATM   31  C   UNK N   1      30.922  18.055   8.778  0.00  0.00     0.015 A 
HETATM   32  C   UNK N   1      29.665  18.359   9.308  0.00  0.00     0.038 A 
HETATM   33  C   UNK N   1      28.494  18.028   8.612  0.00  0.00     0.073 A 
BRANCH  30  34
HETATM   34  C   UNK N   1      32.323  17.117   6.929  0.00  0.00     0.120 C 
BRANCH  34  35
HETATM   35  N   UNK N   1      32.720  15.941   6.562  0.00  0.00    -0.290 N 
ATOM     36  HN  UNK N   1      33.559  15.555   6.995  1.00  0.00     0.188 HD
BRANCH  35  37
HETATM   37  N   UNK N   1      32.052  15.177   5.605  0.00  0.00    -0.169 N 
HETATM   38  C   UNK N   1      32.181  15.235   4.271  0.00  0.00     0.128 A 
HETATM   39  N   UNK N   1      31.515  14.206   3.714  0.00  0.00    -0.272 N 
HETATM   40  C   UNK N   1      32.949  16.256   3.511  0.00  0.00     0.093 C 
HETATM   41  N   UNK N   1      30.994  13.524   4.729  0.00  0.00    -0.006 NA
ATOM     42  HN  UNK N   1      31.429  13.994   2.720  1.00  0.00     0.185 HD
HETATM   43  N   UNK N   1      31.322  14.110   5.874  0.00  0.00     0.016 NA
ENDBRANCH  35  37
ENDBRANCH  34  35
ENDBRANCH  30  34
BRANCH  33  44
HETATM   44  O   UNK N   1      27.312  18.311   9.182  0.00  0.00    -0.360 OA
HETATM   45  H   UNK N   1      26.973  18.003  10.000  0.00  0.00     0.217 HD
ENDBRANCH  33  44
ENDBRANCH   1  28
TORSDOF 12
ENDMDL
MODEL 6
REMARK VINA RESULT:      -9.0      4.251      6.121
REMARK  12 active torsions:
REMARK  status: ('A' for Active; 'I' for Inactive)
REMARK    1  A    between atoms: N_8  and  N_7 
REMARK    2  A    between atoms: N_8  and  C_10 
REMARK    3  A    between atoms: C_10  and  C_11 
REMARK    4  A    between atoms: C_14  and  O_42 
REMARK    5  A    between atoms: C_15  and  C_17 
REMARK    6  A    between atoms: C_17  and  C_18 
REMARK    7  A    between atoms: C_17  and  C_25 
REMARK    8  A    between atoms: C_21  and  O_24 
REMARK    9  A    between atoms: C_32  and  C_27 
REMARK   10  A    between atoms: C_30  and  O_31 
REMARK   11  A    between atoms: C_32  and  N_33 
REMARK   12  A    between atoms: N_33  and  N_35 
ROOT
HETATM    1  C   UNK N   1      28.200  17.276   4.782  0.00  0.00     0.090 C 
ENDROOT
BRANCH   1   2
HETATM    2  C   UNK N   1      27.136  18.315   4.395  0.00  0.00    -0.011 A 
HETATM    3  C   UNK N   1      27.443  19.670   4.073  0.00  0.00     0.073 A 
HETATM    4  C   UNK N   1      26.422  20.554   3.704  0.00  0.00     0.038 A 
HETATM    5  C   UNK N   1      25.098  20.123   3.641  0.00  0.00     0.015 A 
HETATM    6  C   UNK N   1      24.784  18.809   3.978  0.00  0.00    -0.019 A 
HETATM    7  C   UNK N   1      25.797  17.927   4.362  0.00  0.00     0.024 A 
BRANCH   3   8
HETATM    8  O   UNK N   1      28.699  20.141   4.113  0.00  0.00    -0.360 OA
HETATM    9  H   UNK N   1      28.968  20.700   4.817  0.00  0.00     0.217 HD
ENDBRANCH   3   8
BRANCH   6  10
HETATM   10  C   UNK N   1      23.412  18.319   3.827  0.00  0.00     0.120 C 
BRANCH  10  11
HETATM   11  N   UNK N   1      22.425  19.103   4.076  0.00  0.00    -0.290 N 
ATOM     12  HN  UNK N   1      22.153  19.267   5.045  1.00  0.00     0.188 HD
BRANCH  11  13
HETATM   13  N   UNK N   1      21.721  19.734   3.063  0.00  0.00    -0.169 N 
HETATM   14  N   UNK N   1      21.950  20.950   2.598  0.00  0.00     0.016 NA
HETATM   15  N   UNK N   1      21.101  21.182   1.606  0.00  0.00    -0.006 NA
HETATM   16  N   UNK N   1      20.325  20.115   1.423  0.00  0.00    -0.272 N 
HETATM   17  C   UNK N   1      20.725  19.218   2.340  0.00  0.00     0.128 A 
ATOM     18  HN  UNK N   1      19.583  20.003   0.732  1.00  0.00     0.185 HD
HETATM   19  C   UNK N   1      20.153  17.851   2.508  0.00  0.00     0.093 C 
ENDBRANCH  11  13
ENDBRANCH  10  11
ENDBRANCH   6  10
ENDBRANCH   1   2
BRANCH   1  20
HETATM   20  C   UNK N   1      28.116  15.927   4.145  0.00  0.00    -0.045 A 
HETATM   21  C   UNK N   1      27.629  14.830   4.863  0.00  0.00     0.011 A 
HETATM   22  C   UNK N   1      27.504  13.589   4.233  0.00  0.00     0.037 A 
HETATM   23  C   UNK N   1      27.869  13.445   2.891  0.00  0.00     0.065 A 
HETATM   24  C   UNK N   1      28.373  14.536   2.180  0.00  0.00     0.037 A 
HETATM   25  C   UNK N   1      28.495  15.779   2.806  0.00  0.00     0.011 A 
BRANCH  23  26
HETATM   26  O   UNK N   1      27.732  12.257   2.284  0.00  0.00    -0.361 OA
HETATM   27  H   UNK N   1      27.123  11.621   2.603  0.00  0.00     0.217 HD
ENDBRANCH  23  26
ENDBRANCH   1  20
BRANCH   1  28
HETATM   28  C   UNK N   1      28.979  17.276   6.100  0.00  0.00    -0.011 A 
HETATM   29  C   UNK N   1      30.377  17.287   5.992  0.00  0.00     0.024 A 
HETATM   30  C   UNK N   1      31.205  17.278   7.115  0.00  0.00    -0.019 A 
HETATM   31  C   UNK N   1      30.633  17.319   8.388  0.00  0.00     0.015 A 
HETATM   32  C   UNK N   1      29.243  17.268   8.529  0.00  0.00     0.038 A 
HETATM   33  C   UNK N   1      28.409  17.231   7.402  0.00  0.00     0.073 A 
BRANCH  30  34
HETATM   34  C   UNK N   1      32.659  17.431   6.924  0.00  0.00     0.120 C 
BRANCH  34  35
HETATM   35  N   UNK N   1      33.530  16.623   7.438  0.00  0.00    -0.290 N 
ATOM     36  HN  UNK N   1      33.799  15.796   6.904  1.00  0.00     0.188 HD
BRANCH  35  37
HETATM   37  N   UNK N   1      34.119  16.832   8.684  0.00  0.00    -0.169 N 
HETATM   38  C   UNK N   1      34.133  16.001   9.736  0.00  0.00     0.128 A 
HETATM   39  N   UNK N   1      34.967  16.485  10.676  0.00  0.00    -0.272 N 
HETATM   40  C   UNK N   1      33.369  14.731   9.857  0.00  0.00     0.093 C 
HETATM   41  N   UNK N   1      35.461  17.611  10.172  0.00  0.00    -0.006 NA
ATOM     42  HN  UNK N   1      35.176  16.073  11.586  1.00  0.00     0.185 HD
HETATM   43  N   UNK N   1      34.951  17.820   8.964  0.00  0.00     0.016 NA
ENDBRANCH  35  37
ENDBRANCH  34  35
ENDBRANCH  30  34
BRANCH  33  44
HETATM   44  O   UNK N   1      27.084  17.147   7.593  0.00  0.00    -0.360 OA
HETATM   45  H   UNK N   1      26.609  17.194   8.400  0.00  0.00     0.217 HD
ENDBRANCH  33  44
ENDBRANCH   1  28
TORSDOF 12
ENDMDL
MODEL 7
REMARK VINA RESULT:      -9.0      4.356      6.003
REMARK  12 active torsions:
REMARK  status: ('A' for Active; 'I' for Inactive)
REMARK    1  A    between atoms: N_8  and  N_7 
REMARK    2  A    between atoms: N_8  and  C_10 
REMARK    3  A    between atoms: C_10  and  C_11 
REMARK    4  A    between atoms: C_14  and  O_42 
REMARK    5  A    between atoms: C_15  and  C_17 
REMARK    6  A    between atoms: C_17  and  C_18 
REMARK    7  A    between atoms: C_17  and  C_25 
REMARK    8  A    between atoms: C_21  and  O_24 
REMARK    9  A    between atoms: C_32  and  C_27 
REMARK   10  A    between atoms: C_30  and  O_31 
REMARK   11  A    between atoms: C_32  and  N_33 
REMARK   12  A    between atoms: N_33  and  N_35 
ROOT
HETATM    1  C   UNK N   1      22.921  17.407   4.533  0.00  0.00     0.090 C 
ENDROOT
BRANCH   1   2
HETATM    2  C   UNK N   1      22.191  16.927   5.797  0.00  0.00    -0.011 A 
HETATM    3  C   UNK N   1      21.277  17.738   6.531  0.00  0.00     0.073 A 
HETATM    4  C   UNK N   1      20.630  17.223   7.660  0.00  0.00     0.038 A 
HETATM    5  C   UNK N   1      20.863  15.915   8.076  0.00  0.00     0.015 A 
HETATM    6  C   UNK N   1      21.773  15.121   7.382  0.00  0.00    -0.019 A 
HETATM    7  C   UNK N   1      22.433  15.636   6.264  0.00  0.00     0.024 A 
BRANCH   3   8
HETATM    8  O   UNK N   1      21.011  19.006   6.176  0.00  0.00    -0.360 OA
HETATM    9  H   UNK N   1      20.185  19.220   5.787  0.00  0.00     0.217 HD
ENDBRANCH   3   8
BRANCH   6  10
HETATM   10  C   UNK N   1      21.957  13.716   7.753  0.00  0.00     0.120 C 
BRANCH  10  11
HETATM   11  N   UNK N   1      22.480  13.422   8.889  0.00  0.00    -0.290 N 
ATOM     12  HN  UNK N   1      23.482  13.557   9.024  1.00  0.00     0.188 HD
BRANCH  11  13
HETATM   13  N   UNK N   1      21.719  12.927   9.936  0.00  0.00    -0.169 N 
HETATM   14  N   UNK N   1      20.403  12.989  10.038  0.00  0.00     0.016 NA
HETATM   15  N   UNK N   1      20.043  12.371  11.154  0.00  0.00    -0.006 NA
HETATM   16  N   UNK N   1      21.124  11.904  11.775  0.00  0.00    -0.272 N 
HETATM   17  C   UNK N   1      22.164  12.258  11.002  0.00  0.00     0.128 A 
ATOM     18  HN  UNK N   1      21.156  11.386  12.653  1.00  0.00     0.185 HD
HETATM   19  C   UNK N   1      23.592  11.935  11.285  0.00  0.00     0.093 C 
ENDBRANCH  11  13
ENDBRANCH  10  11
ENDBRANCH   6  10
ENDBRANCH   1   2
BRANCH   1  20
HETATM   20  C   UNK N   1      22.186  18.327   3.614  0.00  0.00    -0.045 A 
HETATM   21  C   UNK N   1      22.654  19.625   3.381  0.00  0.00     0.011 A 
HETATM   22  C   UNK N   1      21.986  20.451   2.473  0.00  0.00     0.037 A 
HETATM   23  C   UNK N   1      20.851  19.982   1.804  0.00  0.00     0.065 A 
HETATM   24  C   UNK N   1      20.374  18.693   2.050  0.00  0.00     0.037 A 
HETATM   25  C   UNK N   1      21.042  17.864   2.953  0.00  0.00     0.011 A 
BRANCH  23  26
HETATM   26  O   UNK N   1      20.222  20.772   0.920  0.00  0.00    -0.361 OA
HETATM   27  H   UNK N   1      20.428  20.731   0.007  0.00  0.00     0.217 HD
ENDBRANCH  23  26
ENDBRANCH   1  20
BRANCH   1  28
HETATM   28  C   UNK N   1      24.064  16.652   3.847  0.00  0.00    -0.011 A 
HETATM   29  C   UNK N   1      25.343  17.209   3.985  0.00  0.00     0.024 A 
HETATM   30  C   UNK N   1      26.469  16.627   3.402  0.00  0.00    -0.019 A 
HETATM   31  C   UNK N   1      26.337  15.423   2.707  0.00  0.00     0.015 A 
HETATM   32  C   UNK N   1      25.068  14.865   2.518  0.00  0.00     0.038 A 
HETATM   33  C   UNK N   1      23.929  15.472   3.065  0.00  0.00     0.073 A 
BRANCH  30  34
HETATM   34  C   UNK N   1      27.796  17.192   3.707  0.00  0.00     0.120 C 
BRANCH  34  35
HETATM   35  N   UNK N   1      27.981  18.429   4.037  0.00  0.00    -0.290 N 
ATOM     36  HN  UNK N   1      28.130  19.113   3.295  1.00  0.00     0.188 HD
BRANCH  35  37
HETATM   37  N   UNK N   1      27.983  18.872   5.360  0.00  0.00    -0.169 N 
HETATM   38  C   UNK N   1      27.169  19.776   5.925  0.00  0.00     0.128 A 
HETATM   39  N   UNK N   1      27.365  19.780   7.257  0.00  0.00    -0.272 N 
HETATM   40  C   UNK N   1      26.186  20.634   5.212  0.00  0.00     0.093 C 
HETATM   41  N   UNK N   1      28.298  18.862   7.486  0.00  0.00    -0.006 NA
ATOM     42  HN  UNK N   1      26.895  20.366   7.947  1.00  0.00     0.185 HD
HETATM   43  N   UNK N   1      28.670  18.309   6.337  0.00  0.00     0.016 NA
ENDBRANCH  35  37
ENDBRANCH  34  35
ENDBRANCH  30  34
BRANCH  33  44
HETATM   44  O   UNK N   1      22.732  14.915   2.823  0.00  0.00    -0.360 OA
HETATM   45  H   UNK N   1      22.528  14.205   2.246  0.00  0.00     0.217 HD
ENDBRANCH  33  44
ENDBRANCH   1  28
TORSDOF 12
ENDMDL
MODEL 8
REMARK VINA RESULT:      -8.9      4.389      9.624
REMARK  12 active torsions:
REMARK  status: ('A' for Active; 'I' for Inactive)
REMARK    1  A    between atoms: N_8  and  N_7 
REMARK    2  A    between atoms: N_8  and  C_10 
REMARK    3  A    between atoms: C_10  and  C_11 
REMARK    4  A    between atoms: C_14  and  O_42 
REMARK    5  A    between atoms: C_15  and  C_17 
REMARK    6  A    between atoms: C_17  and  C_18 
REMARK    7  A    between atoms: C_17  and  C_25 
REMARK    8  A    between atoms: C_21  and  O_24 
REMARK    9  A    between atoms: C_32  and  C_27 
REMARK   10  A    between atoms: C_30  and  O_31 
REMARK   11  A    between atoms: C_32  and  N_33 
REMARK   12  A    between atoms: N_33  and  N_35 
ROOT
HETATM    1  C   UNK N   1      27.998  17.213   5.523  0.00  0.00     0.090 C 
ENDROOT
BRANCH   1   2
HETATM    2  C   UNK N   1      29.022  17.554   6.617  0.00  0.00    -0.011 A 
HETATM    3  C   UNK N   1      28.685  18.236   7.823  0.00  0.00     0.073 A 
HETATM    4  C   UNK N   1      29.668  18.489   8.786  0.00  0.00     0.038 A 
HETATM    5  C   UNK N   1      30.983  18.076   8.584  0.00  0.00     0.015 A 
HETATM    6  C   UNK N   1      31.329  17.432   7.399  0.00  0.00    -0.019 A 
HETATM    7  C   UNK N   1      30.355  17.191   6.428  0.00  0.00     0.024 A 
BRANCH   3   8
HETATM    8  O   UNK N   1      27.434  18.656   8.074  0.00  0.00    -0.360 OA
HETATM    9  H   UNK N   1      26.820  18.080   8.486  0.00  0.00     0.217 HD
ENDBRANCH   3   8
BRANCH   6  10
HETATM   10  C   UNK N   1      32.685  16.910   7.214  0.00  0.00     0.120 C 
BRANCH  10  11
HETATM   11  N   UNK N   1      33.356  17.237   6.168  0.00  0.00    -0.290 N 
ATOM     12  HN  UNK N   1      33.645  18.207   6.047  1.00  0.00     0.188 HD
BRANCH  11  13
HETATM   13  N   UNK N   1      33.697  16.306   5.200  0.00  0.00    -0.169 N 
HETATM   14  N   UNK N   1      34.511  15.278   5.364  0.00  0.00     0.016 NA
HETATM   15  N   UNK N   1      34.553  14.596   4.228  0.00  0.00    -0.006 NA
HETATM   16  N   UNK N   1      33.763  15.178   3.328  0.00  0.00    -0.272 N 
HETATM   17  C   UNK N   1      33.233  16.245   3.950  0.00  0.00     0.128 A 
ATOM     18  HN  UNK N   1      33.594  14.876   2.368  1.00  0.00     0.185 HD
HETATM   19  C   UNK N   1      32.264  17.199   3.340  0.00  0.00     0.093 C 
ENDBRANCH  11  13
ENDBRANCH  10  11
ENDBRANCH   6  10
ENDBRANCH   1   2
BRANCH   1  20
HETATM   20  C   UNK N   1      28.223  15.972   4.724  0.00  0.00    -0.045 A 
HETATM   21  C   UNK N   1      27.946  14.713   5.268  0.00  0.00     0.011 A 
HETATM   22  C   UNK N   1      28.107  13.568   4.485  0.00  0.00     0.037 A 
HETATM   23  C   UNK N   1      28.550  13.680   3.163  0.00  0.00     0.065 A 
HETATM   24  C   UNK N   1      28.845  14.935   2.626  0.00  0.00     0.037 A 
HETATM   25  C   UNK N   1      28.680  16.082   3.405  0.00  0.00     0.011 A 
BRANCH  23  26
HETATM   26  O   UNK N   1      28.688  12.579   2.408  0.00  0.00    -0.361 OA
HETATM   27  H   UNK N   1      28.384  11.747   2.711  0.00  0.00     0.217 HD
ENDBRANCH  23  26
ENDBRANCH   1  20
BRANCH   1  28
HETATM   28  C   UNK N   1      27.108  18.237   4.814  0.00  0.00    -0.011 A 
HETATM   29  C   UNK N   1      25.759  17.885   4.661  0.00  0.00     0.024 A 
HETATM   30  C   UNK N   1      24.843  18.722   4.024  0.00  0.00    -0.019 A 
HETATM   31  C   UNK N   1      25.261  19.977   3.573  0.00  0.00     0.015 A 
HETATM   32  C   UNK N   1      26.607  20.340   3.674  0.00  0.00     0.038 A 
HETATM   33  C   UNK N   1      27.539  19.480   4.273  0.00  0.00     0.073 A 
BRANCH  30  34
HETATM   34  C   UNK N   1      23.418  18.346   4.026  0.00  0.00     0.120 C 
BRANCH  34  35
HETATM   35  N   UNK N   1      22.458  19.206   4.132  0.00  0.00    -0.290 N 
ATOM     36  HN  UNK N   1      22.172  19.504   5.065  1.00  0.00     0.188 HD
BRANCH  35  37
HETATM   37  N   UNK N   1      21.796  19.747   3.030  0.00  0.00    -0.169 N 
HETATM   38  C   UNK N   1      20.732  19.249   2.384  0.00  0.00     0.128 A 
HETATM   39  N   UNK N   1      20.277  20.161   1.505  0.00  0.00    -0.272 N 
HETATM   40  C   UNK N   1      20.124  17.910   2.604  0.00  0.00     0.093 C 
HETATM   41  N   UNK N   1      21.074  21.216   1.637  0.00  0.00    -0.006 NA
ATOM     42  HN  UNK N   1      19.484  20.063   0.869  1.00  0.00     0.185 HD
HETATM   43  N   UNK N   1      21.992  20.968   2.563  0.00  0.00     0.016 NA
ENDBRANCH  35  37
ENDBRANCH  34  35
ENDBRANCH  30  34
BRANCH  33  44
HETATM   44  O   UNK N   1      28.825  19.862   4.313  0.00  0.00    -0.360 OA
HETATM   45  H   UNK N   1      29.577  19.401   3.997  0.00  0.00     0.217 HD
ENDBRANCH  33  44
ENDBRANCH   1  28
TORSDOF 12
ENDMDL
MODEL 9
REMARK VINA RESULT:      -8.9      0.839      8.470
REMARK  12 active torsions:
REMARK  status: ('A' for Active; 'I' for Inactive)
REMARK    1  A    between atoms: N_8  and  N_7 
REMARK    2  A    between atoms: N_8  and  C_10 
REMARK    3  A    between atoms: C_10  and  C_11 
REMARK    4  A    between atoms: C_14  and  O_42 
REMARK    5  A    between atoms: C_15  and  C_17 
REMARK    6  A    between atoms: C_17  and  C_18 
REMARK    7  A    between atoms: C_17  and  C_25 
REMARK    8  A    between atoms: C_21  and  O_24 
REMARK    9  A    between atoms: C_32  and  C_27 
REMARK   10  A    between atoms: C_30  and  O_31 
REMARK   11  A    between atoms: C_32  and  N_33 
REMARK   12  A    between atoms: N_33  and  N_35 
ROOT
HETATM    1  C   UNK N   1      28.134  16.731   5.714  0.00  0.00     0.090 C 
ENDROOT
BRANCH   1   2
HETATM    2  C   UNK N   1      29.132  17.215   6.777  0.00  0.00    -0.011 A 
HETATM    3  C   UNK N   1      28.745  17.925   7.952  0.00  0.00     0.073 A 
HETATM    4  C   UNK N   1      29.709  18.311   8.890  0.00  0.00     0.038 A 
HETATM    5  C   UNK N   1      31.054  18.004   8.694  0.00  0.00     0.015 A 
HETATM    6  C   UNK N   1      31.447  17.334   7.538  0.00  0.00    -0.019 A 
HETATM    7  C   UNK N   1      30.491  16.960   6.591  0.00  0.00     0.024 A 
BRANCH   3   8
HETATM    8  O   UNK N   1      27.464  18.246   8.196  0.00  0.00    -0.360 OA
HETATM    9  H   UNK N   1      27.112  19.051   7.869  0.00  0.00     0.217 HD
ENDBRANCH   3   8
BRANCH   6  10
HETATM   10  C   UNK N   1      32.842  16.924   7.364  0.00  0.00     0.120 C 
BRANCH  10  11
HETATM   11  N   UNK N   1      33.363  16.077   8.178  0.00  0.00    -0.290 N 
ATOM     12  HN  UNK N   1      33.091  15.096   8.114  1.00  0.00     0.188 HD
BRANCH  11  13
HETATM   13  N   UNK N   1      34.285  16.461   9.138  0.00  0.00    -0.169 N 
HETATM   14  N   UNK N   1      34.870  17.642   9.226  0.00  0.00     0.016 NA
HETATM   15  N   UNK N   1      35.652  17.641  10.297  0.00  0.00    -0.006 NA
HETATM   16  N   UNK N   1      35.571  16.460  10.907  0.00  0.00    -0.272 N 
HETATM   17  C   UNK N   1      34.713  15.733  10.173  0.00  0.00     0.128 A 
ATOM     18  HN  UNK N   1      36.058  16.168  11.755  1.00  0.00     0.185 HD
HETATM   19  C   UNK N   1      34.291  14.336  10.479  0.00  0.00     0.093 C 
ENDBRANCH  11  13
ENDBRANCH  10  11
ENDBRANCH   6  10
ENDBRANCH   1   2
BRANCH   1  20
HETATM   20  C   UNK N   1      27.459  17.764   4.874  0.00  0.00    -0.045 A 
HETATM   21  C   UNK N   1      26.251  17.479   4.228  0.00  0.00     0.011 A 
HETATM   22  C   UNK N   1      25.604  18.477   3.495  0.00  0.00     0.037 A 
HETATM   23  C   UNK N   1      26.165  19.755   3.403  0.00  0.00     0.065 A 
HETATM   24  C   UNK N   1      27.380  20.033   4.032  0.00  0.00     0.037 A 
HETATM   25  C   UNK N   1      28.027  19.040   4.770  0.00  0.00     0.011 A 
BRANCH  23  26
HETATM   26  O   UNK N   1      25.534  20.716   2.712  0.00  0.00    -0.361 OA
HETATM   27  H   UNK N   1      25.992  21.232   2.078  0.00  0.00     0.217 HD
ENDBRANCH  23  26
ENDBRANCH   1  20
BRANCH   1  28
HETATM   28  C   UNK N   1      27.367  15.407   5.778  0.00  0.00    -0.011 A 
HETATM   29  C   UNK N   1      26.388  15.307   6.777  0.00  0.00     0.024 A 
HETATM   30  C   UNK N   1      25.624  14.152   6.950  0.00  0.00    -0.019 A 
HETATM   31  C   UNK N   1      25.793  13.081   6.071  0.00  0.00     0.015 A 
HETATM   32  C   UNK N   1      26.789  13.135   5.091  0.00  0.00     0.038 A 
HETATM   33  C   UNK N   1      27.589  14.277   4.944  0.00  0.00     0.073 A 
BRANCH  30  34
HETATM   34  C   UNK N   1      24.521  14.173   7.928  0.00  0.00     0.120 C 
BRANCH  34  35
HETATM   35  N   UNK N   1      23.983  13.100   8.412  0.00  0.00    -0.290 N 
ATOM     36  HN  UNK N   1      23.585  12.421   7.763  1.00  0.00     0.188 HD
BRANCH  35  37
HETATM   37  N   UNK N   1      23.924  12.828   9.778  0.00  0.00    -0.169 N 
HETATM   38  C   UNK N   1      22.831  12.727  10.550  0.00  0.00     0.128 A 
HETATM   39  N   UNK N   1      23.184  12.263  11.763  0.00  0.00    -0.272 N 
HETATM   40  C   UNK N   1      21.439  13.054  10.141  0.00  0.00     0.093 C 
HETATM   41  N   UNK N   1      24.499  12.078  11.708  0.00  0.00    -0.006 NA
ATOM     42  HN  UNK N   1      22.570  12.090  12.559  1.00  0.00     0.185 HD
HETATM   43  N   UNK N   1      24.947  12.416  10.505  0.00  0.00     0.016 NA
ENDBRANCH  35  37
ENDBRANCH  34  35
ENDBRANCH  30  34
BRANCH  33  44
HETATM   44  O   UNK N   1      28.554  14.263   4.011  0.00  0.00    -0.360 OA
HETATM   45  H   UNK N   1      29.182  13.590   3.835  0.00  0.00     0.217 HD
ENDBRANCH  33  44
ENDBRANCH   1  28
TORSDOF 12
ENDMDL
