REMARK  9 active torsions:
REMARK  status: ('A' for Active; 'I' for Inactive)
REMARK    1  A    between atoms: C_3  and  N_9 
REMARK       I    between atoms: N_9  and  C_10 
REMARK    2  A    between atoms: C_10  and  C_12 
REMARK    3  A    between atoms: C_21  and  C_35 
REMARK    4  A    between atoms: C_24  and  C_26 
REMARK    5  A    between atoms: C_24  and  O_30 
REMARK    6  A    between atoms: O_30  and  P_31 
REMARK    7  A    between atoms: P_31  and  O_33 
REMARK    8  A    between atoms: P_31  and  O_34 
REMARK    9  A    between atoms: C_35  and  C_36 
ROOT
HETATM    1  C   UNK N   1       5.487   0.939  -0.145  0.00  0.00     0.032 A 
HETATM    2  C   UNK N   1       4.786  -0.263  -0.099  0.00  0.00     0.017 A 
HETATM    3  C   UNK N   1       3.417  -0.315  -0.099  0.00  0.00     0.009 A 
HETATM    4  C   UNK N   1       2.669   0.847  -0.103  0.00  0.00    -0.042 A 
HETATM    5  C   UNK N   1       3.336   2.084  -0.055  0.00  0.00    -0.050 A 
HETATM    6  C   UNK N   1       4.747   2.138  -0.083  0.00  0.00     0.024 A 
HETATM    7  C   UNK N   1       2.501   3.305   0.108  0.00  0.00     0.039 C 
HETATM    8  C   UNK N   1       1.514   3.030   1.264  0.00  0.00     0.010 C 
HETATM    9  C   UNK N   1       0.693   1.702   1.136  0.00  0.00     0.002 C 
HETATM   10  C   UNK N   1       1.150   0.802  -0.067  0.00  0.00    -0.005 C 
HETATM   11  C   UNK N   1       0.543   1.435  -1.323  0.00  0.00     0.018 C 
HETATM   12  C   UNK N   1      -1.011   1.385  -1.297  0.00  0.00     0.049 C 
HETATM   13  C   UNK N   1      -1.677   1.384   0.117  0.00  0.00     0.170 C 
HETATM   14  C   UNK N   1      -0.774   2.168   1.071  0.00  0.00     0.054 C 
ENDROOT
BRANCH   1  15
HETATM   15  C   UNK N   1       6.985   0.916  -0.248  0.00  0.00     0.256 C 
HETATM   16  N   UNK N   1       7.703  -0.238  -0.444  0.00  0.00    -0.321 N 
HETATM   17  H   UNK N   1       8.682  -0.188  -0.357  0.00  0.00     0.169 HD
HETATM   18  O   UNK N   1       7.597   1.970  -0.132  0.00  0.00    -0.267 OA
BRANCH  16  19
HETATM   19  C   UNK N   1       7.126  -1.507  -0.764  0.00  0.00     0.057 A 
HETATM   20  C   UNK N   1       7.240  -2.593   0.120  0.00  0.00     0.032 A 
HETATM   21  C   UNK N   1       8.036  -2.479   1.373  0.00  0.00     0.070 C 
HETATM   22  N   UNK N   1       6.576  -3.754  -0.144  0.00  0.00    -0.368 N 
HETATM   23  C   UNK N   1       5.803  -3.902  -1.253  0.00  0.00     0.088 A 
ATOM     24  HN  UNK N   1       6.662  -4.533   0.508  1.00  0.00     0.165 HD
HETATM   25  C   UNK N   1       5.690  -2.861  -2.174  0.00  0.00     0.019 A 
HETATM   26  C   UNK N   1       6.359  -1.661  -1.931  0.00  0.00     0.033 A 
ENDBRANCH  16  19
ENDBRANCH   1  15
BRANCH  10  27
HETATM   27  C   UNK N   1       0.611  -0.660  -0.155  0.00  0.00     0.053 C 
BRANCH  27  28
HETATM   28  C   UNK N   1       0.969  -1.802   0.742  0.00  0.00    -0.057 A 
HETATM   29  C   UNK N   1       1.853  -2.782   0.266  0.00  0.00     0.007 A 
HETATM   30  C   UNK N   1       2.063  -3.959   0.985  0.00  0.00     0.001 A 
HETATM   31  C   UNK N   1       1.349  -4.188   2.162  0.00  0.00     0.000 A 
HETATM   32  C   UNK N   1       0.436  -3.232   2.623  0.00  0.00     0.001 A 
HETATM   33  C   UNK N   1       0.239  -2.044   1.909  0.00  0.00     0.007 A 
ENDBRANCH  27  28
ENDBRANCH  10  27
BRANCH  13  34
HETATM   34  C   UNK N   1      -3.018   2.146   0.051  0.00  0.00     0.419 C 
HETATM   35  F   UNK N   1      -3.643   2.112   1.286  0.00  0.00    -0.168 F 
HETATM   36  F   UNK N   1      -2.793   3.467  -0.299  0.00  0.00    -0.168 F 
HETATM   37  F   UNK N   1      -3.861   1.606  -0.901  0.00  0.00    -0.168 F 
ENDBRANCH  13  34
BRANCH  13  38
HETATM   38  O   UNK N   1      -1.817   0.099   0.717  0.00  0.00    -0.277 OA
BRANCH  38  39
HETATM   39  P   UNK N   1      -2.807  -1.053  -0.164  0.00  0.00     0.391 P 
HETATM   40  O   UNK N   1      -2.598  -2.401   0.577  0.00  0.00    -0.632 OA
BRANCH  39  41
HETATM   41  O   UNK N   1      -4.512  -0.752  -0.036  0.00  0.00    -0.307 OA
HETATM   42  H   UNK N   1      -4.842   0.157   0.036  0.00  0.00     0.222 HD
ENDBRANCH  39  41
BRANCH  39  43
HETATM   43  O   UNK N   1      -2.279  -1.350  -1.791  0.00  0.00    -0.307 OA
HETATM   44  H   UNK N   1      -2.275  -1.688  -2.700  0.00  0.00     0.222 HD
ENDBRANCH  39  43
ENDBRANCH  38  39
ENDBRANCH  13  38
TORSDOF 9
