REMARK  4 active torsions:
REMARK  status: ('A' for Active; 'I' for Inactive)
REMARK    1  A    between atoms: O_2  and  C_3 
REMARK    2  A    between atoms: C_8  and  O_9 
REMARK    3  A    between atoms: C_17  and  O_25 
REMARK    4  A    between atoms: C_18  and  O_23 
ROOT
HETATM    1  C   UNK N   1       1.577  -0.937   0.010  0.00  0.00     0.102 A 
HETATM    2  C   UNK N   1       2.127  -2.227   0.056  0.00  0.00     0.040 A 
HETATM    3  C   UNK N   1       3.504  -2.413   0.102  0.00  0.00     0.011 A 
HETATM    4  C   UNK N   1       4.358  -1.315   0.097  0.00  0.00    -0.045 A 
HETATM    5  C   UNK N   1       3.839  -0.012   0.051  0.00  0.00     0.013 A 
HETATM    6  C   UNK N   1       2.443   0.194   0.006  0.00  0.00     0.110 A 
HETATM    7  C   UNK N   1       4.768   1.184   0.038  0.00  0.00     0.315 C 
HETATM    8  N   UNK N   1       6.177   0.885   0.334  0.00  0.00     0.102 N 
HETATM    9  C   UNK N   1       6.920   2.013  -0.232  0.00  0.00     0.278 C 
HETATM   10  C   UNK N   1       8.423   1.927   0.053  0.00  0.00     0.069 C 
HETATM   11  C   UNK N   1       8.959   0.528  -0.019  0.00  0.00    -0.045 A 
HETATM   12  C   UNK N   1      10.336   0.318   0.097  0.00  0.00     0.047 A 
HETATM   13  C   UNK N   1      10.880  -0.973   0.065  0.00  0.00     0.102 A 
HETATM   14  C   UNK N   1      10.007  -2.087  -0.061  0.00  0.00     0.102 A 
HETATM   15  C   UNK N   1       8.630  -1.861  -0.195  0.00  0.00     0.049 A 
HETATM   16  C   UNK N   1       8.098  -0.567  -0.182  0.00  0.00    -0.016 A 
HETATM   17  C   UNK N   1       6.613  -0.343  -0.351  0.00  0.00     0.261 C 
HETATM   18  C   UNK N   1       5.824  -1.554   0.146  0.00  0.00     0.080 C 
ENDROOT
BRANCH   1  19
HETATM   19  O   UNK N   1       0.230  -0.773  -0.030  0.00  0.00    -0.353 OA
HETATM   20  C   UNK N   1      -0.664  -1.822  -0.016  0.00  0.00     0.210 C 
ENDBRANCH   1  19
BRANCH   6  21
HETATM   21  O   UNK N   1       1.989   1.476  -0.033  0.00  0.00    -0.352 OA
HETATM   22  C   UNK N   1       0.668   1.863  -0.041  0.00  0.00     0.210 C 
ENDBRANCH   6  21
BRANCH  14  23
HETATM   23  O   UNK N   1      10.491  -3.354  -0.046  0.00  0.00    -0.353 OA
HETATM   24  C   UNK N   1       9.688  -4.473  -0.077  0.00  0.00     0.210 C 
ENDBRANCH  14  23
BRANCH  13  25
HETATM   25  O   UNK N   1      12.231  -1.090   0.164  0.00  0.00    -0.353 OA
HETATM   26  C   UNK N   1      12.940  -2.265   0.064  0.00  0.00     0.210 C 
ENDBRANCH  13  25
TORSDOF 4
