MODEL 1
REMARK VINA RESULT:     -13.3      0.000      0.000
REMARK  2 active torsions:
REMARK  status: ('A' for Active; 'I' for Inactive)
REMARK    1  A    between atoms: C_2  and  N_18 
REMARK    2  A    between atoms: C_6  and  C_26 
ROOT
HETATM    1  C   UNK N   1      21.465  13.094  10.231  0.00  0.00     0.042 A 
HETATM    2  C   UNK N   1      20.663  13.271  10.151  0.00  0.00     0.172 A 
HETATM    3  C   UNK N   1      20.548  13.759   9.496  0.00  0.00     0.240 A 
HETATM    4  O   UNK N   1      19.825  14.056   9.233  0.00  0.00    -0.271 OA
HETATM    5  N   UNK N   1      21.284  13.897   9.149  0.00  0.00    -0.345 N 
HETATM    6  C   UNK N   1      21.853  13.495   9.591  0.00  0.00     0.186 A 
HETATM    7  C   UNK N   1      22.517  13.343   9.663  0.00  0.00     0.120 A 
HETATM    8  S   UNK N   1      22.876  12.876  10.239  0.00  0.00    -0.095 SA
HETATM    9  S   UNK N   1      23.693  12.761  10.228  0.00  0.00    -0.097 SA
HETATM   10  C   UNK N   1      24.052  12.293  10.805  0.00  0.00     0.090 A 
HETATM   11  C   UNK N   1      23.594  11.940  11.393  0.00  0.00     0.038 A 
HETATM   12  C   UNK N   1      22.777  12.054  11.405  0.00  0.00    -0.027 A 
HETATM   13  C   UNK N   1      22.319  11.701  11.993  0.00  0.00     0.002 A 
HETATM   14  C   UNK N   1      21.730  11.818  11.952  0.00  0.00     0.163 A 
HETATM   15  C   UNK N   1      21.370  12.286  11.375  0.00  0.00     0.139 A 
HETATM   16  C   UNK N   1      20.554  12.401  11.386  0.00  0.00     0.221 A 
HETATM   17  O   UNK N   1      20.096  12.047  11.975  0.00  0.00    -0.273 OA
HETATM   18  N   UNK N   1      20.194  12.869  10.809  0.00  0.00    -0.348 N 
HETATM   19  O   UNK N   1      22.671  11.706  11.912  0.00  0.00    -0.311 OA
HETATM   20  C   UNK N   1      23.130  12.059  11.324  0.00  0.00     0.262 A 
HETATM   21  O   UNK N   1      22.770  12.527  10.747  0.00  0.00    -0.265 OA
HETATM   22  C   UNK N   1      23.946  11.945  11.312  0.00  0.00     0.144 A 
HETATM   23  C   UNK N   1      24.405  12.299  10.724  0.00  0.00     0.150 A 
HETATM   24  C   UNK N   1      24.045  12.767  10.147  0.00  0.00     0.117 A 
HETATM   25  N   UNK N   1      23.228  12.881  10.158  0.00  0.00    -0.352 N 
HETATM   26  C   UNK N   1      22.869  13.349   9.582  0.00  0.00     0.241 A 
HETATM   27  O   UNK N   1      23.329  13.702   8.995  0.00  0.00    -0.271 OA
HETATM   28  C   UNK N   1      24.504  13.120   9.559  0.00  0.00     0.003 A 
HETATM   29  C   UNK N   1      24.144  13.588   8.983  0.00  0.00     0.011 A 
HETATM   30  C   UNK N   1      25.320  13.006   9.548  0.00  0.00     0.011 A 
HETATM   31  O   UNK N   1      25.222  12.184  10.713  0.00  0.00    -0.393 OA
HETATM   32  H   UNK N   1      21.454  14.446   8.350  0.00  0.00     0.163 HD
HETATM   33  H   UNK N   1      19.218  12.993  10.840  0.00  0.00     0.163 HD
HETATM   34  H   UNK N   1      22.682  12.459  10.861  0.00  0.00     0.163 HD
HETATM   35  H   UNK N   1      25.644  11.635  11.391  0.00  0.00     0.210 HD
ENDROOT
TORSDOF 2
ENDMDL
MODEL 2
REMARK VINA RESULT:     -13.1      0.906      3.055
REMARK  2 active torsions:
REMARK  status: ('A' for Active; 'I' for Inactive)
REMARK    1  A    between atoms: C_2  and  N_18 
REMARK    2  A    between atoms: C_6  and  C_26 
ROOT
HETATM    1  C   UNK N   1      23.804  12.979   9.994  0.00  0.00     0.042 A 
HETATM    2  C   UNK N   1      24.618  12.985   9.858  0.00  0.00     0.172 A 
HETATM    3  C   UNK N   1      24.786  13.440   9.190  0.00  0.00     0.240 A 
HETATM    4  O   UNK N   1      25.535  13.580   8.875  0.00  0.00    -0.271 OA
HETATM    5  N   UNK N   1      24.073  13.729   8.892  0.00  0.00    -0.345 N 
HETATM    6  C   UNK N   1      23.464  13.453   9.377  0.00  0.00     0.186 A 
HETATM    7  C   UNK N   1      22.790  13.443   9.496  0.00  0.00     0.120 A 
HETATM    8  S   UNK N   1      22.382  13.060  10.101  0.00  0.00    -0.095 SA
HETATM    9  S   UNK N   1      21.560  13.118  10.146  0.00  0.00    -0.097 SA
HETATM   10  C   UNK N   1      21.153  12.735  10.752  0.00  0.00     0.090 A 
HETATM   11  C   UNK N   1      21.566  12.293  11.312  0.00  0.00     0.038 A 
HETATM   12  C   UNK N   1      22.388  12.234  11.268  0.00  0.00    -0.027 A 
HETATM   13  C   UNK N   1      22.802  11.792  11.828  0.00  0.00     0.002 A 
HETATM   14  C   UNK N   1      23.398  11.785  11.746  0.00  0.00     0.163 A 
HETATM   15  C   UNK N   1      23.807  12.168  11.140  0.00  0.00     0.139 A 
HETATM   16  C   UNK N   1      24.628  12.110  11.095  0.00  0.00     0.221 A 
HETATM   17  O   UNK N   1      25.042  11.668  11.656  0.00  0.00    -0.273 OA
HETATM   18  N   UNK N   1      25.036  12.494  10.489  0.00  0.00    -0.348 N 
HETATM   19  O   UNK N   1      22.453  11.871  11.771  0.00  0.00    -0.311 OA
HETATM   20  C   UNK N   1      22.039  12.313  11.210  0.00  0.00     0.262 A 
HETATM   21  O   UNK N   1      22.448  12.697  10.605  0.00  0.00    -0.265 OA
HETATM   22  C   UNK N   1      21.218  12.372  11.255  0.00  0.00     0.144 A 
HETATM   23  C   UNK N   1      20.804  12.813  10.695  0.00  0.00     0.150 A 
HETATM   24  C   UNK N   1      21.213  13.197  10.089  0.00  0.00     0.117 A 
HETATM   25  N   UNK N   1      22.035  13.139  10.043  0.00  0.00    -0.352 N 
HETATM   26  C   UNK N   1      22.442  13.522   9.438  0.00  0.00     0.241 A 
HETATM   27  O   UNK N   1      22.026  13.963   8.879  0.00  0.00    -0.271 OA
HETATM   28  C   UNK N   1      20.798  13.639   9.529  0.00  0.00     0.003 A 
HETATM   29  C   UNK N   1      21.207  14.022   8.923  0.00  0.00     0.011 A 
HETATM   30  C   UNK N   1      19.977  13.697   9.573  0.00  0.00     0.011 A 
HETATM   31  O   UNK N   1      19.982  12.872  10.741  0.00  0.00    -0.393 OA
HETATM   32  H   UNK N   1      23.966  14.301   8.099  0.00  0.00     0.163 HD
HETATM   33  H   UNK N   1      26.017  12.412  10.452  0.00  0.00     0.163 HD
HETATM   34  H   UNK N   1      22.528  12.611  10.713  0.00  0.00     0.163 HD
HETATM   35  H   UNK N   1      19.503  12.421  11.452  0.00  0.00     0.210 HD
ENDROOT
TORSDOF 2
ENDMDL
MODEL 3
REMARK VINA RESULT:     -12.9      1.119      3.136
REMARK  2 active torsions:
REMARK  status: ('A' for Active; 'I' for Inactive)
REMARK    1  A    between atoms: C_2  and  N_18 
REMARK    2  A    between atoms: C_6  and  C_26 
ROOT
HETATM    1  C   UNK N   1      23.501  13.133   9.021  0.00  0.00     0.042 A 
HETATM    2  C   UNK N   1      23.901  13.409   8.354  0.00  0.00     0.172 A 
HETATM    3  C   UNK N   1      24.715  13.359   8.477  0.00  0.00     0.240 A 
HETATM    4  O   UNK N   1      25.301  13.582   7.941  0.00  0.00    -0.271 OA
HETATM    5  N   UNK N   1      24.841  13.046   9.230  0.00  0.00    -0.345 N 
HETATM    6  C   UNK N   1      24.104  12.904   9.573  0.00  0.00     0.186 A 
HETATM    7  C   UNK N   1      23.765  12.675  10.122  0.00  0.00     0.120 A 
HETATM    8  S   UNK N   1      22.951  12.627  10.238  0.00  0.00    -0.095 SA
HETATM    9  S   UNK N   1      22.651  12.332  10.948  0.00  0.00    -0.097 SA
HETATM   10  C   UNK N   1      21.835  12.284  11.062  0.00  0.00     0.090 A 
HETATM   11  C   UNK N   1      21.319  12.531  10.468  0.00  0.00     0.038 A 
HETATM   12  C   UNK N   1      21.618  12.826   9.758  0.00  0.00    -0.027 A 
HETATM   13  C   UNK N   1      21.103  13.072   9.163  0.00  0.00     0.002 A 
HETATM   14  C   UNK N   1      21.376  13.278   8.668  0.00  0.00     0.163 A 
HETATM   15  C   UNK N   1      22.191  13.327   8.552  0.00  0.00     0.139 A 
HETATM   16  C   UNK N   1      22.491  13.621   7.843  0.00  0.00     0.221 A 
HETATM   17  O   UNK N   1      21.975  13.868   7.248  0.00  0.00    -0.273 OA
HETATM   18  N   UNK N   1      23.307  13.670   7.727  0.00  0.00    -0.348 N 
HETATM   19  O   UNK N   1      21.063  12.934   9.496  0.00  0.00    -0.311 OA
HETATM   20  C   UNK N   1      21.579  12.688  10.091  0.00  0.00     0.262 A 
HETATM   21  O   UNK N   1      22.394  12.736   9.975  0.00  0.00    -0.265 OA
HETATM   22  C   UNK N   1      21.280  12.393  10.800  0.00  0.00     0.144 A 
HETATM   23  C   UNK N   1      21.796  12.146  11.395  0.00  0.00     0.150 A 
HETATM   24  C   UNK N   1      22.611  12.194  11.279  0.00  0.00     0.117 A 
HETATM   25  N   UNK N   1      22.911  12.489  10.569  0.00  0.00    -0.352 N 
HETATM   26  C   UNK N   1      23.726  12.537  10.454  0.00  0.00     0.241 A 
HETATM   27  O   UNK N   1      24.240  12.290  11.050  0.00  0.00    -0.271 OA
HETATM   28  C   UNK N   1      23.127  11.947  11.874  0.00  0.00     0.003 A 
HETATM   29  C   UNK N   1      23.943  11.996  11.758  0.00  0.00     0.011 A 
HETATM   30  C   UNK N   1      22.828  11.652  12.584  0.00  0.00     0.011 A 
HETATM   31  O   UNK N   1      21.496  11.851  12.105  0.00  0.00    -0.393 OA
HETATM   32  H   UNK N   1      25.716  12.873   9.647  0.00  0.00     0.163 HD
HETATM   33  H   UNK N   1      23.644  14.024   6.873  0.00  0.00     0.163 HD
HETATM   34  H   UNK N   1      22.294  12.784   9.860  0.00  0.00     0.163 HD
HETATM   35  H   UNK N   1      20.538  11.794  12.241  0.00  0.00     0.210 HD
ENDROOT
TORSDOF 2
ENDMDL
MODEL 4
REMARK VINA RESULT:     -12.8      1.029      2.918
REMARK  2 active torsions:
REMARK  status: ('A' for Active; 'I' for Inactive)
REMARK    1  A    between atoms: C_2  and  N_18 
REMARK    2  A    between atoms: C_6  and  C_26 
ROOT
HETATM    1  C   UNK N   1      22.807  13.392   8.936  0.00  0.00     0.042 A 
HETATM    2  C   UNK N   1      23.055  13.753   8.236  0.00  0.00     0.172 A 
HETATM    3  C   UNK N   1      22.403  14.063   7.836  0.00  0.00     0.240 A 
HETATM    4  O   UNK N   1      22.422  14.465   7.117  0.00  0.00    -0.271 OA
HETATM    5  N   UNK N   1      21.728  13.899   8.283  0.00  0.00    -0.345 N 
HETATM    6  C   UNK N   1      21.964  13.489   8.959  0.00  0.00     0.186 A 
HETATM    7  C   UNK N   1      21.766  13.188   9.540  0.00  0.00     0.120 A 
HETATM    8  S   UNK N   1      22.232  12.810  10.106  0.00  0.00    -0.095 SA
HETATM    9  S   UNK N   1      21.882  12.479  10.776  0.00  0.00    -0.097 SA
HETATM   10  C   UNK N   1      22.348  12.100  11.341  0.00  0.00     0.090 A 
HETATM   11  C   UNK N   1      23.165  12.053  11.237  0.00  0.00     0.038 A 
HETATM   12  C   UNK N   1      23.516  12.383  10.568  0.00  0.00    -0.027 A 
HETATM   13  C   UNK N   1      24.333  12.336  10.463  0.00  0.00     0.002 A 
HETATM   14  C   UNK N   1      24.534  12.594   9.957  0.00  0.00     0.163 A 
HETATM   15  C   UNK N   1      24.067  12.972   9.391  0.00  0.00     0.139 A 
HETATM   16  C   UNK N   1      24.417  13.303   8.722  0.00  0.00     0.221 A 
HETATM   17  O   UNK N   1      25.235  13.255   8.618  0.00  0.00    -0.273 OA
HETATM   18  N   UNK N   1      23.951  13.682   8.156  0.00  0.00    -0.348 N 
HETATM   19  O   UNK N   1      24.100  12.224  10.716  0.00  0.00    -0.311 OA
HETATM   20  C   UNK N   1      23.283  12.271  10.821  0.00  0.00     0.262 A 
HETATM   21  O   UNK N   1      22.817  12.650  10.255  0.00  0.00    -0.265 OA
HETATM   22  C   UNK N   1      22.933  11.941  11.490  0.00  0.00     0.144 A 
HETATM   23  C   UNK N   1      22.116  11.988  11.595  0.00  0.00     0.150 A 
HETATM   24  C   UNK N   1      21.649  12.367  11.029  0.00  0.00     0.117 A 
HETATM   25  N   UNK N   1      22.000  12.698  10.359  0.00  0.00    -0.352 N 
HETATM   26  C   UNK N   1      21.534  13.076   9.794  0.00  0.00     0.241 A 
HETATM   27  O   UNK N   1      20.717  13.122   9.900  0.00  0.00    -0.271 OA
HETATM   28  C   UNK N   1      20.832  12.414  11.133  0.00  0.00     0.003 A 
HETATM   29  C   UNK N   1      20.366  12.793  10.568  0.00  0.00     0.011 A 
HETATM   30  C   UNK N   1      20.481  12.084  11.803  0.00  0.00     0.011 A 
HETATM   31  O   UNK N   1      21.765  11.657  12.265  0.00  0.00    -0.393 OA
HETATM   32  H   UNK N   1      20.805  14.150   8.051  0.00  0.00     0.163 HD
HETATM   33  H   UNK N   1      24.388  14.070   7.364  0.00  0.00     0.163 HD
HETATM   34  H   UNK N   1      22.975  12.640  10.235  0.00  0.00     0.163 HD
HETATM   35  H   UNK N   1      22.313  11.213  12.929  0.00  0.00     0.210 HD
ENDROOT
TORSDOF 2
ENDMDL
MODEL 5
REMARK VINA RESULT:     -12.7      0.956      2.514
REMARK  2 active torsions:
REMARK  status: ('A' for Active; 'I' for Inactive)
REMARK    1  A    between atoms: C_2  and  N_18 
REMARK    2  A    between atoms: C_6  and  C_26 
ROOT
HETATM    1  C   UNK N   1      22.751  12.252  11.415  0.00  0.00     0.042 A 
HETATM    2  C   UNK N   1      22.532  11.968  12.158  0.00  0.00     0.172 A 
HETATM    3  C   UNK N   1      23.206  11.818  12.609  0.00  0.00     0.240 A 
HETATM    4  O   UNK N   1      23.218  11.529  13.381  0.00  0.00    -0.271 OA
HETATM    5  N   UNK N   1      23.867  12.007  12.152  0.00  0.00    -0.345 N 
HETATM    6  C   UNK N   1      23.600  12.274  11.418  0.00  0.00     0.186 A 
HETATM    7  C   UNK N   1      23.774  12.510  10.800  0.00  0.00     0.120 A 
HETATM    8  S   UNK N   1      23.280  12.730  10.177  0.00  0.00    -0.095 SA
HETATM    9  S   UNK N   1      23.604  13.003   9.470  0.00  0.00    -0.097 SA
HETATM   10  C   UNK N   1      23.110  13.223   8.847  0.00  0.00     0.090 A 
HETATM   11  C   UNK N   1      22.291  13.169   8.932  0.00  0.00     0.038 A 
HETATM   12  C   UNK N   1      21.966  12.896   9.639  0.00  0.00    -0.027 A 
HETATM   13  C   UNK N   1      21.147  12.841   9.725  0.00  0.00     0.002 A 
HETATM   14  C   UNK N   1      20.967  12.636  10.261  0.00  0.00     0.163 A 
HETATM   15  C   UNK N   1      21.461  12.416  10.884  0.00  0.00     0.139 A 
HETATM   16  C   UNK N   1      21.138  12.143  11.591  0.00  0.00     0.221 A 
HETATM   17  O   UNK N   1      20.318  12.089  11.676  0.00  0.00    -0.273 OA
HETATM   18  N   UNK N   1      21.632  11.923  12.214  0.00  0.00    -0.348 N 
HETATM   19  O   UNK N   1      21.371  12.947   9.460  0.00  0.00    -0.311 OA
HETATM   20  C   UNK N   1      22.190  13.001   9.375  0.00  0.00     0.262 A 
HETATM   21  O   UNK N   1      22.684  12.781   9.998  0.00  0.00    -0.265 OA
HETATM   22  C   UNK N   1      22.514  13.274   8.668  0.00  0.00     0.144 A 
HETATM   23  C   UNK N   1      23.333  13.328   8.583  0.00  0.00     0.150 A 
HETATM   24  C   UNK N   1      23.827  13.108   9.206  0.00  0.00     0.117 A 
HETATM   25  N   UNK N   1      23.503  12.835   9.914  0.00  0.00    -0.352 N 
HETATM   26  C   UNK N   1      23.998  12.615  10.535  0.00  0.00     0.241 A 
HETATM   27  O   UNK N   1      24.816  12.670  10.449  0.00  0.00    -0.271 OA
HETATM   28  C   UNK N   1      24.646  13.162   9.120  0.00  0.00     0.003 A 
HETATM   29  C   UNK N   1      25.141  12.943   9.743  0.00  0.00     0.011 A 
HETATM   30  C   UNK N   1      24.971  13.436   8.413  0.00  0.00     0.011 A 
HETATM   31  O   UNK N   1      23.657  13.602   7.875  0.00  0.00    -0.393 OA
HETATM   32  H   UNK N   1      24.807  11.927  12.432  0.00  0.00     0.163 HD
HETATM   33  H   UNK N   1      21.226  11.599  13.050  0.00  0.00     0.163 HD
HETATM   34  H   UNK N   1      22.526  12.770  10.014  0.00  0.00     0.163 HD
HETATM   35  H   UNK N   1      23.076  13.860   7.143  0.00  0.00     0.210 HD
ENDROOT
TORSDOF 2
ENDMDL
MODEL 6
REMARK VINA RESULT:     -12.5     13.991     14.922
REMARK  2 active torsions:
REMARK  status: ('A' for Active; 'I' for Inactive)
REMARK    1  A    between atoms: C_2  and  N_18 
REMARK    2  A    between atoms: C_6  and  C_26 
ROOT
HETATM    1  C   UNK N   1      36.657  14.770  16.405  0.00  0.00     0.042 A 
HETATM    2  C   UNK N   1      36.998  15.507  16.550  0.00  0.00     0.172 A 
HETATM    3  C   UNK N   1      37.495  15.713  15.924  0.00  0.00     0.240 A 
HETATM    4  O   UNK N   1      37.935  16.408  15.863  0.00  0.00    -0.271 OA
HETATM    5  N   UNK N   1      37.474  15.102  15.370  0.00  0.00    -0.345 N 
HETATM    6  C   UNK N   1      36.964  14.519  15.654  0.00  0.00     0.186 A 
HETATM    7  C   UNK N   1      36.677  13.908  15.541  0.00  0.00     0.120 A 
HETATM    8  S   UNK N   1      36.148  13.493  16.018  0.00  0.00    -0.095 SA
HETATM    9  S   UNK N   1      35.865  12.756  15.778  0.00  0.00    -0.097 SA
HETATM   10  C   UNK N   1      35.336  12.342  16.257  0.00  0.00     0.090 A 
HETATM   11  C   UNK N   1      35.090  12.664  16.975  0.00  0.00     0.038 A 
HETATM   12  C   UNK N   1      35.373  13.401  17.216  0.00  0.00    -0.027 A 
HETATM   13  C   UNK N   1      35.127  13.723  17.934  0.00  0.00     0.002 A 
HETATM   14  C   UNK N   1      35.365  14.262  18.059  0.00  0.00     0.163 A 
HETATM   15  C   UNK N   1      35.894  14.677  17.580  0.00  0.00     0.139 A 
HETATM   16  C   UNK N   1      36.178  15.413  17.820  0.00  0.00     0.221 A 
HETATM   17  O   UNK N   1      35.932  15.735  18.539  0.00  0.00    -0.273 OA
HETATM   18  N   UNK N   1      36.707  15.828  17.342  0.00  0.00    -0.348 N 
HETATM   19  O   UNK N   1      35.058  13.417  17.754  0.00  0.00    -0.311 OA
HETATM   20  C   UNK N   1      35.303  13.094  17.035  0.00  0.00     0.262 A 
HETATM   21  O   UNK N   1      35.833  13.509  16.557  0.00  0.00    -0.265 OA
HETATM   22  C   UNK N   1      35.021  12.359  16.795  0.00  0.00     0.144 A 
HETATM   23  C   UNK N   1      35.266  12.036  16.076  0.00  0.00     0.150 A 
HETATM   24  C   UNK N   1      35.796  12.451  15.598  0.00  0.00     0.117 A 
HETATM   25  N   UNK N   1      36.079  13.188  15.838  0.00  0.00    -0.352 N 
HETATM   26  C   UNK N   1      36.608  13.602  15.361  0.00  0.00     0.241 A 
HETATM   27  O   UNK N   1      36.853  13.278  14.642  0.00  0.00    -0.271 OA
HETATM   28  C   UNK N   1      36.041  12.128  14.880  0.00  0.00     0.003 A 
HETATM   29  C   UNK N   1      36.571  12.543  14.402  0.00  0.00     0.011 A 
HETATM   30  C   UNK N   1      35.759  11.392  14.639  0.00  0.00     0.011 A 
HETATM   31  O   UNK N   1      34.983  11.299  15.836  0.00  0.00    -0.393 OA
HETATM   32  H   UNK N   1      37.969  15.073  14.520  0.00  0.00     0.163 HD
HETATM   33  H   UNK N   1      37.033  16.705  17.646  0.00  0.00     0.163 HD
HETATM   34  H   UNK N   1      35.785  13.572  16.696  0.00  0.00     0.163 HD
HETATM   35  H   UNK N   1      34.361  10.812  16.398  0.00  0.00     0.210 HD
ENDROOT
TORSDOF 2
ENDMDL
MODEL 7
REMARK VINA RESULT:     -12.2      9.751     11.786
REMARK  2 active torsions:
REMARK  status: ('A' for Active; 'I' for Inactive)
REMARK    1  A    between atoms: C_2  and  N_18 
REMARK    2  A    between atoms: C_6  and  C_26 
ROOT
HETATM    1  C   UNK N   1      31.887  17.274   7.554  0.00  0.00     0.042 A 
HETATM    2  C   UNK N   1      31.678  17.271   8.352  0.00  0.00     0.172 A 
HETATM    3  C   UNK N   1      30.871  17.114   8.428  0.00  0.00     0.240 A 
HETATM    4  O   UNK N   1      30.451  17.064   9.136  0.00  0.00    -0.271 OA
HETATM    5  N   UNK N   1      30.558  17.014   7.671  0.00  0.00    -0.345 N 
HETATM    6  C   UNK N   1      31.172  17.110   7.128  0.00  0.00     0.186 A 
HETATM    7  C   UNK N   1      31.353  17.114   6.468  0.00  0.00     0.120 A 
HETATM    8  S   UNK N   1      32.099  17.247   6.142  0.00  0.00    -0.095 SA
HETATM    9  S   UNK N   1      32.202  17.227   5.324  0.00  0.00    -0.097 SA
HETATM   10  C   UNK N   1      32.948  17.360   4.999  0.00  0.00     0.090 A 
HETATM   11  C   UNK N   1      33.591  17.513   5.491  0.00  0.00     0.038 A 
HETATM   12  C   UNK N   1      33.489  17.533   6.310  0.00  0.00    -0.027 A 
HETATM   13  C   UNK N   1      34.133  17.686   6.803  0.00  0.00     0.002 A 
HETATM   14  C   UNK N   1      34.000  17.688   7.390  0.00  0.00     0.163 A 
HETATM   15  C   UNK N   1      33.254  17.555   7.716  0.00  0.00     0.139 A 
HETATM   16  C   UNK N   1      33.150  17.575   8.534  0.00  0.00     0.221 A 
HETATM   17  O   UNK N   1      33.795  17.728   9.027  0.00  0.00    -0.273 OA
HETATM   18  N   UNK N   1      32.404  17.441   8.860  0.00  0.00    -0.348 N 
HETATM   19  O   UNK N   1      34.085  17.659   6.445  0.00  0.00    -0.311 OA
HETATM   20  C   UNK N   1      33.442  17.506   5.952  0.00  0.00     0.262 A 
HETATM   21  O   UNK N   1      32.695  17.373   6.278  0.00  0.00    -0.265 OA
HETATM   22  C   UNK N   1      33.544  17.486   5.134  0.00  0.00     0.144 A 
HETATM   23  C   UNK N   1      32.900  17.333   4.641  0.00  0.00     0.150 A 
HETATM   24  C   UNK N   1      32.154  17.200   4.967  0.00  0.00     0.117 A 
HETATM   25  N   UNK N   1      32.051  17.220   5.785  0.00  0.00    -0.352 N 
HETATM   26  C   UNK N   1      31.306  17.087   6.110  0.00  0.00     0.241 A 
HETATM   27  O   UNK N   1      30.663  16.934   5.616  0.00  0.00    -0.271 OA
HETATM   28  C   UNK N   1      31.511  17.047   4.473  0.00  0.00     0.003 A 
HETATM   29  C   UNK N   1      30.764  16.914   4.799  0.00  0.00     0.011 A 
HETATM   30  C   UNK N   1      31.613  17.027   3.655  0.00  0.00     0.011 A 
HETATM   31  O   UNK N   1      33.003  17.314   3.822  0.00  0.00    -0.393 OA
HETATM   32  H   UNK N   1      29.619  16.815   7.454  0.00  0.00     0.163 HD
HETATM   33  H   UNK N   1      32.303  17.469   9.838  0.00  0.00     0.163 HD
HETATM   34  H   UNK N   1      32.820  17.402   6.373  0.00  0.00     0.163 HD
HETATM   35  H   UNK N   1      33.880  17.470   3.440  0.00  0.00     0.210 HD
ENDROOT
TORSDOF 2
ENDMDL
MODEL 8
REMARK VINA RESULT:     -12.0     13.295     14.773
REMARK  2 active torsions:
REMARK  status: ('A' for Active; 'I' for Inactive)
REMARK    1  A    between atoms: C_2  and  N_18 
REMARK    2  A    between atoms: C_6  and  C_26 
ROOT
HETATM    1  C   UNK N   1      35.018  11.267  16.539  0.00  0.00     0.042 A 
HETATM    2  C   UNK N   1      34.905  11.019  15.760  0.00  0.00     0.172 A 
HETATM    3  C   UNK N   1      34.982  10.199  15.714  0.00  0.00     0.240 A 
HETATM    4  O   UNK N   1      34.908   9.743  15.031  0.00  0.00    -0.271 OA
HETATM    5  N   UNK N   1      35.146   9.915  16.471  0.00  0.00    -0.345 N 
HETATM    6  C   UNK N   1      35.171  10.560  16.984  0.00  0.00     0.186 A 
HETATM    7  C   UNK N   1      35.263  10.773  17.628  0.00  0.00     0.120 A 
HETATM    8  S   UNK N   1      35.236  11.542  17.923  0.00  0.00    -0.095 SA
HETATM    9  S   UNK N   1      35.364  11.683  18.726  0.00  0.00    -0.097 SA
HETATM   10  C   UNK N   1      35.337  12.453  19.020  0.00  0.00     0.090 A 
HETATM   11  C   UNK N   1      35.181  13.083  18.512  0.00  0.00     0.038 A 
HETATM   12  C   UNK N   1      35.053  12.944  17.709  0.00  0.00    -0.027 A 
HETATM   13  C   UNK N   1      34.897  13.574  17.199  0.00  0.00     0.002 A 
HETATM   14  C   UNK N   1      34.812  13.414  16.625  0.00  0.00     0.163 A 
HETATM   15  C   UNK N   1      34.839  12.644  16.331  0.00  0.00     0.139 A 
HETATM   16  C   UNK N   1      34.711  12.504  15.529  0.00  0.00     0.221 A 
HETATM   17  O   UNK N   1      34.555  13.135  15.019  0.00  0.00    -0.273 OA
HETATM   18  N   UNK N   1      34.738  11.733  15.234  0.00  0.00    -0.348 N 
HETATM   19  O   UNK N   1      34.963  13.542  17.554  0.00  0.00    -0.311 OA
HETATM   20  C   UNK N   1      35.119  12.911  18.063  0.00  0.00     0.262 A 
HETATM   21  O   UNK N   1      35.146  12.141  17.768  0.00  0.00    -0.265 OA
HETATM   22  C   UNK N   1      35.247  13.051  18.865  0.00  0.00     0.144 A 
HETATM   23  C   UNK N   1      35.403  12.420  19.374  0.00  0.00     0.150 A 
HETATM   24  C   UNK N   1      35.430  11.650  19.079  0.00  0.00     0.117 A 
HETATM   25  N   UNK N   1      35.302  11.510  18.276  0.00  0.00    -0.352 N 
HETATM   26  C   UNK N   1      35.329  10.740  17.983  0.00  0.00     0.241 A 
HETATM   27  O   UNK N   1      35.485  10.111  18.493  0.00  0.00    -0.271 OA
HETATM   28  C   UNK N   1      35.586  11.020  19.589  0.00  0.00     0.003 A 
HETATM   29  C   UNK N   1      35.613  10.249  19.294  0.00  0.00     0.011 A 
HETATM   30  C   UNK N   1      35.715  11.159  20.392  0.00  0.00     0.011 A 
HETATM   31  O   UNK N   1      35.532  12.560  20.177  0.00  0.00    -0.393 OA
HETATM   32  H   UNK N   1      35.287   8.973  16.718  0.00  0.00     0.163 HD
HETATM   33  H   UNK N   1      34.582  11.588  14.273  0.00  0.00     0.163 HD
HETATM   34  H   UNK N   1      35.116  12.263  17.670  0.00  0.00     0.163 HD
HETATM   35  H   UNK N   1      35.499  13.465  20.523  0.00  0.00     0.210 HD
ENDROOT
TORSDOF 2
ENDMDL
MODEL 9
REMARK VINA RESULT:     -11.9      9.120     11.307
REMARK  2 active torsions:
REMARK  status: ('A' for Active; 'I' for Inactive)
REMARK    1  A    between atoms: C_2  and  N_18 
REMARK    2  A    between atoms: C_6  and  C_26 
ROOT
HETATM    1  C   UNK N   1      30.821  17.281   7.129  0.00  0.00     0.042 A 
HETATM    2  C   UNK N   1      30.006  17.185   7.218  0.00  0.00     0.172 A 
HETATM    3  C   UNK N   1      29.801  17.259   8.014  0.00  0.00     0.240 A 
HETATM    4  O   UNK N   1      29.041  17.198   8.326  0.00  0.00    -0.271 OA
HETATM    5  N   UNK N   1      30.492  17.404   8.442  0.00  0.00    -0.345 N 
HETATM    6  C   UNK N   1      31.122  17.419   7.911  0.00  0.00     0.186 A 
HETATM    7  C   UNK N   1      31.797  17.498   7.829  0.00  0.00     0.120 A 
HETATM    8  S   UNK N   1      32.236  17.468   7.132  0.00  0.00    -0.095 SA
HETATM    9  S   UNK N   1      33.054  17.578   7.154  0.00  0.00    -0.097 SA
HETATM   10  C   UNK N   1      33.493  17.547   6.456  0.00  0.00     0.090 A 
HETATM   11  C   UNK N   1      33.115  17.407   5.736  0.00  0.00     0.038 A 
HETATM   12  C   UNK N   1      32.297  17.296   5.714  0.00  0.00    -0.027 A 
HETATM   13  C   UNK N   1      31.918  17.155   4.995  0.00  0.00     0.002 A 
HETATM   14  C   UNK N   1      31.323  17.082   5.038  0.00  0.00     0.163 A 
HETATM   15  C   UNK N   1      30.883  17.113   5.736  0.00  0.00     0.139 A 
HETATM   16  C   UNK N   1      30.066  17.003   5.715  0.00  0.00     0.221 A 
HETATM   17  O   UNK N   1      29.688  16.862   4.995  0.00  0.00    -0.273 OA
HETATM   18  N   UNK N   1      29.627  17.033   6.413  0.00  0.00    -0.348 N 
HETATM   19  O   UNK N   1      32.261  17.213   5.097  0.00  0.00    -0.311 OA
HETATM   20  C   UNK N   1      32.640  17.354   5.816  0.00  0.00     0.262 A 
HETATM   21  O   UNK N   1      32.200  17.385   6.514  0.00  0.00    -0.265 OA
HETATM   22  C   UNK N   1      33.456  17.465   5.838  0.00  0.00     0.144 A 
HETATM   23  C   UNK N   1      33.835  17.605   6.558  0.00  0.00     0.150 A 
HETATM   24  C   UNK N   1      33.395  17.636   7.255  0.00  0.00     0.117 A 
HETATM   25  N   UNK N   1      32.578  17.525   7.234  0.00  0.00    -0.352 N 
HETATM   26  C   UNK N   1      32.140  17.556   7.931  0.00  0.00     0.241 A 
HETATM   27  O   UNK N   1      32.520  17.697   8.650  0.00  0.00    -0.271 OA
HETATM   28  C   UNK N   1      33.774  17.777   7.975  0.00  0.00     0.003 A 
HETATM   29  C   UNK N   1      33.335  17.807   8.673  0.00  0.00     0.011 A 
HETATM   30  C   UNK N   1      34.592  17.887   7.997  0.00  0.00     0.011 A 
HETATM   31  O   UNK N   1      34.653  17.716   6.579  0.00  0.00    -0.393 OA
HETATM   32  H   UNK N   1      30.552  17.535   9.416  0.00  0.00     0.163 HD
HETATM   33  H   UNK N   1      28.653  16.899   6.366  0.00  0.00     0.163 HD
HETATM   34  H   UNK N   1      32.127  17.357   6.375  0.00  0.00     0.163 HD
HETATM   35  H   UNK N   1      35.168  17.680   5.759  0.00  0.00     0.210 HD
ENDROOT
TORSDOF 2
ENDMDL
