MODEL 1
REMARK VINA RESULT:      -6.1      0.000      0.000
REMARK  3 active torsions:
REMARK  status: ('A' for Active; 'I' for Inactive)
REMARK    1  A    between atoms: C_10  and  N_4 
REMARK    2  A    between atoms: C_13  and  C_15 
REMARK    3  A    between atoms: C_15  and  O_16 
ROOT
HETATM    1  C   UNK N   1      29.040  24.113  -3.527  0.00  0.00     0.258 C 
HETATM    2  C   UNK N   1      27.804  23.794  -2.782  0.00  0.00     0.027 C 
HETATM    3  C   UNK N   1      26.777  24.256  -3.431  0.00  0.00     0.027 C 
HETATM    4  C   UNK N   1      27.234  24.942  -4.662  0.00  0.00     0.165 C 
HETATM    5  O   UNK N   1      28.638  24.736  -4.742  0.00  0.00    -0.334 OA
HETATM    6  C   UNK N   1      26.587  24.349  -5.843  0.00  0.00    -0.072 C 
HETATM    7  C   UNK N   1      26.020  23.874  -6.798  0.00  0.00     0.015 C 
ENDROOT
BRANCH   4   8
HETATM    8  C   UNK N   1      26.937  26.439  -4.557  0.00  0.00     0.220 C 
BRANCH   8   9
HETATM    9  O   UNK N   1      26.074  26.710  -3.490  0.00  0.00    -0.397 OA
HETATM   10  H   UNK N   1      25.360  26.206  -3.070  0.00  0.00     0.209 HD
ENDBRANCH   8   9
ENDBRANCH   4   8
BRANCH   1  11
HETATM   11  N   UNK N   1      29.824  22.885  -3.731  0.00  0.00    -0.278 N 
HETATM   12  C   UNK N   1      29.687  22.265  -4.937  0.00  0.00     0.111 A 
HETATM   13  C   UNK N   1      30.399  21.106  -5.235  0.00  0.00     0.022 A 
HETATM   14  C   UNK N   1      30.218  20.449  -6.563  0.00  0.00     0.056 C 
HETATM   15  C   UNK N   1      31.269  20.587  -4.273  0.00  0.00     0.256 A 
HETATM   16  N   UNK N   1      31.401  21.221  -3.068  0.00  0.00    -0.275 N 
HETATM   17  O   UNK N   1      31.911  19.575  -4.498  0.00  0.00    -0.267 OA
HETATM   18  C   UNK N   1      30.691  22.360  -2.786  0.00  0.00     0.331 A 
HETATM   19  H   UNK N   1      32.016  20.854  -2.392  0.00  0.00     0.173 HD
HETATM   20  O   UNK N   1      30.844  22.902  -1.706  0.00  0.00    -0.246 OA
ENDBRANCH   1  11
TORSDOF 3
ENDMDL
MODEL 2
REMARK VINA RESULT:      -6.1      3.760      5.828
REMARK  3 active torsions:
REMARK  status: ('A' for Active; 'I' for Inactive)
REMARK    1  A    between atoms: C_10  and  N_4 
REMARK    2  A    between atoms: C_13  and  C_15 
REMARK    3  A    between atoms: C_15  and  O_16 
ROOT
HETATM    1  C   UNK N   1      26.200  23.611  -5.782  0.00  0.00     0.258 C 
HETATM    2  C   UNK N   1      27.388  23.114  -6.508  0.00  0.00     0.027 C 
HETATM    3  C   UNK N   1      27.066  22.862  -7.742  0.00  0.00     0.027 C 
HETATM    4  C   UNK N   1      25.629  23.151  -7.950  0.00  0.00     0.165 C 
HETATM    5  O   UNK N   1      25.150  23.719  -6.738  0.00  0.00    -0.334 OA
HETATM    6  C   UNK N   1      25.459  24.122  -9.042  0.00  0.00    -0.072 C 
HETATM    7  C   UNK N   1      25.337  24.892  -9.965  0.00  0.00     0.015 C 
ENDROOT
BRANCH   4   8
HETATM    8  C   UNK N   1      24.879  21.849  -8.241  0.00  0.00     0.220 C 
BRANCH   8   9
HETATM    9  O   UNK N   1      23.506  21.995  -8.015  0.00  0.00    -0.397 OA
HETATM   10  H   UNK N   1      22.949  22.755  -7.786  0.00  0.00     0.209 HD
ENDBRANCH   8   9
ENDBRANCH   4   8
BRANCH   1  11
HETATM   11  N   UNK N   1      26.522  24.885  -5.122  0.00  0.00    -0.278 N 
HETATM   12  C   UNK N   1      26.753  25.955  -5.935  0.00  0.00     0.111 A 
HETATM   13  C   UNK N   1      27.048  27.209  -5.407  0.00  0.00     0.022 A 
HETATM   14  C   UNK N   1      27.305  28.355  -6.328  0.00  0.00     0.056 C 
HETATM   15  C   UNK N   1      27.099  27.358  -4.019  0.00  0.00     0.256 A 
HETATM   16  N   UNK N   1      26.860  26.278  -3.214  0.00  0.00    -0.275 N 
HETATM   17  O   UNK N   1      27.353  28.441  -3.520  0.00  0.00    -0.267 OA
HETATM   18  C   UNK N   1      26.574  25.048  -3.747  0.00  0.00     0.331 A 
HETATM   19  H   UNK N   1      26.895  26.386  -2.236  0.00  0.00     0.173 HD
HETATM   20  O   UNK N   1      26.356  24.113  -2.997  0.00  0.00    -0.246 OA
ENDBRANCH   1  11
TORSDOF 3
ENDMDL
MODEL 3
REMARK VINA RESULT:      -6.0     22.749     25.093
REMARK  3 active torsions:
REMARK  status: ('A' for Active; 'I' for Inactive)
REMARK    1  A    between atoms: C_10  and  N_4 
REMARK    2  A    between atoms: C_13  and  C_15 
REMARK    3  A    between atoms: C_15  and  O_16 
ROOT
HETATM    1  C   UNK N   1      35.113  13.187  16.454  0.00  0.00     0.258 C 
HETATM    2  C   UNK N   1      34.280  12.394  15.526  0.00  0.00     0.027 C 
HETATM    3  C   UNK N   1      34.936  12.190  14.423  0.00  0.00     0.027 C 
HETATM    4  C   UNK N   1      36.263  12.842  14.506  0.00  0.00     0.165 C 
HETATM    5  O   UNK N   1      36.378  13.359  15.825  0.00  0.00    -0.334 OA
HETATM    6  C   UNK N   1      37.330  11.856  14.275  0.00  0.00    -0.072 C 
HETATM    7  C   UNK N   1      38.191  11.040  14.047  0.00  0.00     0.015 C 
ENDROOT
BRANCH   4   8
HETATM    8  C   UNK N   1      36.336  13.989  13.495  0.00  0.00     0.220 C 
BRANCH   8   9
HETATM    9  O   UNK N   1      36.884  15.139  14.074  0.00  0.00    -0.397 OA
HETATM   10  H   UNK N   1      36.679  15.636  14.881  0.00  0.00     0.209 HD
ENDBRANCH   8   9
ENDBRANCH   4   8
BRANCH   1  11
HETATM   11  N   UNK N   1      35.193  12.502  17.753  0.00  0.00    -0.278 N 
HETATM   12  C   UNK N   1      35.266  11.141  17.723  0.00  0.00     0.111 A 
HETATM   13  C   UNK N   1      35.362  10.401  18.899  0.00  0.00     0.022 A 
HETATM   14  C   UNK N   1      35.430   8.911  18.829  0.00  0.00     0.056 C 
HETATM   15  C   UNK N   1      35.392  11.079  20.119  0.00  0.00     0.256 A 
HETATM   16  N   UNK N   1      35.323  12.445  20.135  0.00  0.00    -0.275 N 
HETATM   17  O   UNK N   1      35.477  10.465  21.169  0.00  0.00    -0.267 OA
HETATM   18  C   UNK N   1      35.224  13.163  18.971  0.00  0.00     0.331 A 
HETATM   19  H   UNK N   1      35.345  12.922  20.996  0.00  0.00     0.173 HD
HETATM   20  O   UNK N   1      35.177  14.378  19.025  0.00  0.00    -0.246 OA
ENDBRANCH   1  11
TORSDOF 3
ENDMDL
MODEL 4
REMARK VINA RESULT:      -6.0     10.699     13.208
REMARK  3 active torsions:
REMARK  status: ('A' for Active; 'I' for Inactive)
REMARK    1  A    between atoms: C_10  and  N_4 
REMARK    2  A    between atoms: C_13  and  C_15 
REMARK    3  A    between atoms: C_15  and  O_16 
ROOT
HETATM    1  C   UNK N   1      29.851  17.016   7.394  0.00  0.00     0.258 C 
HETATM    2  C   UNK N   1      31.060  17.523   8.077  0.00  0.00     0.027 C 
HETATM    3  C   UNK N   1      32.115  17.185   7.396  0.00  0.00     0.027 C 
HETATM    4  C   UNK N   1      31.709  16.406   6.204  0.00  0.00     0.165 C 
HETATM    5  O   UNK N   1      30.287  16.416   6.179  0.00  0.00    -0.334 OA
HETATM    6  C   UNK N   1      32.222  17.045   4.982  0.00  0.00    -0.072 C 
HETATM    7  C   UNK N   1      32.681  17.563   3.992  0.00  0.00     0.015 C 
ENDROOT
BRANCH   4   8
HETATM    8  C   UNK N   1      32.212  14.967   6.334  0.00  0.00     0.220 C 
BRANCH   8   9
HETATM    9  O   UNK N   1      31.193  14.049   6.062  0.00  0.00    -0.397 OA
HETATM   10  H   UNK N   1      31.020  13.142   6.361  0.00  0.00     0.209 HD
ENDBRANCH   8   9
ENDBRANCH   4   8
BRANCH   1  11
HETATM   11  N   UNK N   1      28.899  18.119   7.193  0.00  0.00    -0.278 N 
HETATM   12  C   UNK N   1      28.707  18.535   5.909  0.00  0.00     0.111 A 
HETATM   13  C   UNK N   1      27.813  19.560   5.611  0.00  0.00     0.022 A 
HETATM   14  C   UNK N   1      27.635  19.996   4.195  0.00  0.00     0.056 C 
HETATM   15  C   UNK N   1      27.104  20.157   6.657  0.00  0.00     0.256 A 
HETATM   16  N   UNK N   1      27.302  19.727   7.940  0.00  0.00    -0.275 N 
HETATM   17  O   UNK N   1      26.312  21.057   6.435  0.00  0.00    -0.267 OA
HETATM   18  C   UNK N   1      28.189  18.719   8.220  0.00  0.00     0.331 A 
HETATM   19  H   UNK N   1      26.801  20.149   8.675  0.00  0.00     0.173 HD
HETATM   20  O   UNK N   1      28.328  18.356   9.374  0.00  0.00    -0.246 OA
ENDBRANCH   1  11
TORSDOF 3
ENDMDL
MODEL 5
REMARK VINA RESULT:      -6.0      4.407      5.605
REMARK  3 active torsions:
REMARK  status: ('A' for Active; 'I' for Inactive)
REMARK    1  A    between atoms: C_10  and  N_4 
REMARK    2  A    between atoms: C_13  and  C_15 
REMARK    3  A    between atoms: C_15  and  O_16 
ROOT
HETATM    1  C   UNK N   1      26.750  26.739  -3.770  0.00  0.00     0.258 C 
HETATM    2  C   UNK N   1      25.727  27.785  -3.563  0.00  0.00     0.027 C 
HETATM    3  C   UNK N   1      26.288  28.956  -3.621  0.00  0.00     0.027 C 
HETATM    4  C   UNK N   1      27.742  28.800  -3.855  0.00  0.00     0.165 C 
HETATM    5  O   UNK N   1      27.973  27.411  -4.051  0.00  0.00    -0.334 OA
HETATM    6  C   UNK N   1      28.143  29.535  -5.065  0.00  0.00    -0.072 C 
HETATM    7  C   UNK N   1      28.461  30.174  -6.040  0.00  0.00     0.015 C 
ENDROOT
BRANCH   4   8
HETATM    8  C   UNK N   1      28.516  29.284  -2.627  0.00  0.00     0.220 C 
BRANCH   8   9
HETATM    9  O   UNK N   1      27.647  29.647  -1.593  0.00  0.00    -0.397 OA
HETATM   10  H   UNK N   1      27.003  29.152  -1.063  0.00  0.00     0.209 HD
ENDBRANCH   8   9
ENDBRANCH   4   8
BRANCH   1  11
HETATM   11  N   UNK N   1      26.320  25.833  -4.845  0.00  0.00    -0.278 N 
HETATM   12  C   UNK N   1      26.288  26.351  -6.106  0.00  0.00     0.111 A 
HETATM   13  C   UNK N   1      25.911  25.570  -7.195  0.00  0.00     0.022 A 
HETATM   14  C   UNK N   1      25.878  26.173  -8.560  0.00  0.00     0.056 C 
HETATM   15  C   UNK N   1      25.570  24.233  -6.976  0.00  0.00     0.256 A 
HETATM   16  N   UNK N   1      25.612  23.724  -5.707  0.00  0.00    -0.275 N 
HETATM   17  O   UNK N   1      25.236  23.517  -7.905  0.00  0.00    -0.267 OA
HETATM   18  C   UNK N   1      25.980  24.505  -4.643  0.00  0.00     0.331 A 
HETATM   19  H   UNK N   1      25.372  22.781  -5.556  0.00  0.00     0.173 HD
HETATM   20  O   UNK N   1      26.016  24.012  -3.530  0.00  0.00    -0.246 OA
ENDBRANCH   1  11
TORSDOF 3
ENDMDL
MODEL 6
REMARK VINA RESULT:      -5.9     10.850     13.144
REMARK  3 active torsions:
REMARK  status: ('A' for Active; 'I' for Inactive)
REMARK    1  A    between atoms: C_10  and  N_4 
REMARK    2  A    between atoms: C_13  and  C_15 
REMARK    3  A    between atoms: C_15  and  O_16 
ROOT
HETATM    1  C   UNK N   1      32.609  16.534   5.935  0.00  0.00     0.258 C 
HETATM    2  C   UNK N   1      33.055  17.594   5.008  0.00  0.00     0.027 C 
HETATM    3  C   UNK N   1      32.720  17.275   3.793  0.00  0.00     0.027 C 
HETATM    4  C   UNK N   1      32.033  15.964   3.795  0.00  0.00     0.165 C 
HETATM    5  O   UNK N   1      31.885  15.586   5.158  0.00  0.00    -0.334 OA
HETATM    6  C   UNK N   1      30.702  16.086   3.178  0.00  0.00    -0.072 C 
HETATM    7  C   UNK N   1      29.628  16.198   2.637  0.00  0.00     0.015 C 
ENDROOT
BRANCH   4   8
HETATM    8  C   UNK N   1      32.892  14.931   3.064  0.00  0.00     0.220 C 
BRANCH   8   9
HETATM    9  O   UNK N   1      33.773  15.548   2.169  0.00  0.00    -0.397 OA
HETATM   10  H   UNK N   1      34.300  15.219   1.425  0.00  0.00     0.209 HD
ENDBRANCH   8   9
ENDBRANCH   4   8
BRANCH   1  11
HETATM   11  N   UNK N   1      31.814  17.130   7.020  0.00  0.00    -0.278 N 
HETATM   12  C   UNK N   1      30.468  17.211   6.818  0.00  0.00     0.111 A 
HETATM   13  C   UNK N   1      29.626  17.743   7.791  0.00  0.00     0.022 A 
HETATM   14  C   UNK N   1      28.159  17.826   7.532  0.00  0.00     0.056 C 
HETATM   15  C   UNK N   1      30.185  18.189   8.991  0.00  0.00     0.256 A 
HETATM   16  N   UNK N   1      31.536  18.097   9.183  0.00  0.00    -0.275 N 
HETATM   17  O   UNK N   1      29.479  18.660   9.867  0.00  0.00    -0.267 OA
HETATM   18  C   UNK N   1      32.355  17.575   8.215  0.00  0.00     0.331 A 
HETATM   19  H   UNK N   1      31.927  18.410  10.031  0.00  0.00     0.173 HD
HETATM   20  O   UNK N   1      33.551  17.498   8.429  0.00  0.00    -0.246 OA
ENDBRANCH   1  11
TORSDOF 3
ENDMDL
MODEL 7
REMARK VINA RESULT:      -5.9     11.643     14.334
REMARK  3 active torsions:
REMARK  status: ('A' for Active; 'I' for Inactive)
REMARK    1  A    between atoms: C_10  and  N_4 
REMARK    2  A    between atoms: C_13  and  C_15 
REMARK    3  A    between atoms: C_15  and  O_16 
ROOT
HETATM    1  C   UNK N   1      32.350  17.381   8.167  0.00  0.00     0.258 C 
HETATM    2  C   UNK N   1      33.465  18.313   7.900  0.00  0.00     0.027 C 
HETATM    3  C   UNK N   1      34.593  17.731   8.183  0.00  0.00     0.027 C 
HETATM    4  C   UNK N   1      34.333  16.361   8.682  0.00  0.00     0.165 C 
HETATM    5  O   UNK N   1      32.935  16.142   8.553  0.00  0.00    -0.334 OA
HETATM    6  C   UNK N   1      35.057  15.377   7.862  0.00  0.00    -0.072 C 
HETATM    7  C   UNK N   1      35.687  14.586   7.200  0.00  0.00     0.015 C 
ENDROOT
BRANCH   4   8
HETATM    8  C   UNK N   1      34.738  16.264  10.154  0.00  0.00     0.220 C 
BRANCH   8   9
HETATM    9  O   UNK N   1      35.624  17.288  10.504  0.00  0.00    -0.397 OA
HETATM   10  H   UNK N   1      36.308  17.769  10.013  0.00  0.00     0.209 HD
ENDBRANCH   8   9
ENDBRANCH   4   8
BRANCH   1  11
HETATM   11  N   UNK N   1      31.497  17.278   6.974  0.00  0.00    -0.278 N 
HETATM   12  C   UNK N   1      32.131  17.255   5.767  0.00  0.00     0.111 A 
HETATM   13  C   UNK N   1      31.413  17.142   4.580  0.00  0.00     0.022 A 
HETATM   14  C   UNK N   1      32.141  17.130   3.276  0.00  0.00     0.056 C 
HETATM   15  C   UNK N   1      30.021  17.045   4.643  0.00  0.00     0.256 A 
HETATM   16  N   UNK N   1      29.397  17.064   5.860  0.00  0.00    -0.275 N 
HETATM   17  O   UNK N   1      29.359  16.944   3.624  0.00  0.00    -0.267 OA
HETATM   18  C   UNK N   1      30.115  17.180   7.022  0.00  0.00     0.331 A 
HETATM   19  H   UNK N   1      28.416  16.994   5.902  0.00  0.00     0.173 HD
HETATM   20  O   UNK N   1      29.524  17.181   8.087  0.00  0.00    -0.246 OA
ENDBRANCH   1  11
TORSDOF 3
ENDMDL
MODEL 8
REMARK VINA RESULT:      -5.8     10.613     13.231
REMARK  3 active torsions:
REMARK  status: ('A' for Active; 'I' for Inactive)
REMARK    1  A    between atoms: C_10  and  N_4 
REMARK    2  A    between atoms: C_13  and  C_15 
REMARK    3  A    between atoms: C_15  and  O_16 
ROOT
HETATM    1  C   UNK N   1      29.366  17.384   7.454  0.00  0.00     0.258 C 
HETATM    2  C   UNK N   1      29.896  18.313   8.474  0.00  0.00     0.027 C 
HETATM    3  C   UNK N   1      31.147  18.042   8.698  0.00  0.00     0.027 C 
HETATM    4  C   UNK N   1      31.565  16.894   7.860  0.00  0.00     0.165 C 
HETATM    5  O   UNK N   1      30.461  16.583   7.020  0.00  0.00    -0.334 OA
HETATM    6  C   UNK N   1      32.719  17.267   7.027  0.00  0.00    -0.072 C 
HETATM    7  C   UNK N   1      33.688  17.580   6.377  0.00  0.00     0.015 C 
ENDROOT
BRANCH   4   8
HETATM    8  C   UNK N   1      31.887  15.695   8.753  0.00  0.00     0.220 C 
BRANCH   8   9
HETATM    9  O   UNK N   1      32.880  16.012   9.687  0.00  0.00    -0.397 OA
HETATM   10  H   UNK N   1      33.568  15.489  10.126  0.00  0.00     0.209 HD
ENDBRANCH   8   9
ENDBRANCH   4   8
BRANCH   1  11
HETATM   11  N   UNK N   1      28.736  18.150   6.369  0.00  0.00    -0.278 N 
HETATM   12  C   UNK N   1      28.059  19.277   6.728  0.00  0.00     0.111 A 
HETATM   13  C   UNK N   1      27.441  20.080   5.773  0.00  0.00     0.022 A 
HETATM   14  C   UNK N   1      26.701  21.302   6.204  0.00  0.00     0.056 C 
HETATM   15  C   UNK N   1      27.532  19.715   4.428  0.00  0.00     0.256 A 
HETATM   16  N   UNK N   1      28.219  18.584   4.080  0.00  0.00    -0.275 N 
HETATM   17  O   UNK N   1      27.006  20.394   3.563  0.00  0.00    -0.267 OA
HETATM   18  C   UNK N   1      28.819  17.799   5.030  0.00  0.00     0.331 A 
HETATM   19  H   UNK N   1      28.283  18.329   3.131  0.00  0.00     0.173 HD
HETATM   20  O   UNK N   1      29.431  16.806   4.679  0.00  0.00    -0.246 OA
ENDBRANCH   1  11
TORSDOF 3
ENDMDL
MODEL 9
REMARK VINA RESULT:      -5.8     19.188     21.654
REMARK  3 active torsions:
REMARK  status: ('A' for Active; 'I' for Inactive)
REMARK    1  A    between atoms: C_10  and  N_4 
REMARK    2  A    between atoms: C_13  and  C_15 
REMARK    3  A    between atoms: C_15  and  O_16 
ROOT
HETATM    1  C   UNK N   1      35.472  12.776  13.066  0.00  0.00     0.258 C 
HETATM    2  C   UNK N   1      36.833  12.830  12.493  0.00  0.00     0.027 C 
HETATM    3  C   UNK N   1      36.812  13.529  11.397  0.00  0.00     0.027 C 
HETATM    4  C   UNK N   1      35.432  13.993  11.128  0.00  0.00     0.165 C 
HETATM    5  O   UNK N   1      34.647  13.597  12.245  0.00  0.00    -0.334 OA
HETATM    6  C   UNK N   1      35.403  15.459  11.008  0.00  0.00    -0.072 C 
HETATM    7  C   UNK N   1      35.403  16.660  10.877  0.00  0.00     0.015 C 
ENDROOT
BRANCH   4   8
HETATM    8  C   UNK N   1      34.901  13.320   9.861  0.00  0.00     0.220 C 
BRANCH   8   9
HETATM    9  O   UNK N   1      33.507  13.409   9.787  0.00  0.00    -0.397 OA
HETATM   10  H   UNK N   1      32.901  14.125   9.539  0.00  0.00     0.209 HD
ENDBRANCH   8   9
ENDBRANCH   4   8
BRANCH   1  11
HETATM   11  N   UNK N   1      35.511  13.206  14.472  0.00  0.00    -0.278 N 
HETATM   12  C   UNK N   1      36.430  14.160  14.794  0.00  0.00     0.111 A 
HETATM   13  C   UNK N   1      36.535  14.647  16.095  0.00  0.00     0.022 A 
HETATM   14  C   UNK N   1      37.559  15.684  16.414  0.00  0.00     0.056 C 
HETATM   15  C   UNK N   1      35.671  14.144  17.071  0.00  0.00     0.256 A 
HETATM   16  N   UNK N   1      34.750  13.192  16.733  0.00  0.00    -0.275 N 
HETATM   17  O   UNK N   1      35.732  14.547  18.220  0.00  0.00    -0.267 OA
HETATM   18  C   UNK N   1      34.660  12.717  15.450  0.00  0.00     0.331 A 
HETATM   19  H   UNK N   1      34.141  12.840  17.423  0.00  0.00     0.173 HD
HETATM   20  O   UNK N   1      33.818  11.877  15.186  0.00  0.00    -0.246 OA
ENDBRANCH   1  11
TORSDOF 3
ENDMDL
