REMARK  6 active torsions:
REMARK  status: ('A' for Active; 'I' for Inactive)
REMARK    1  A    between atoms: C_10  and  O_21 
REMARK    2  A    between atoms: O_26  and  C_11 
REMARK    3  A    between atoms: N_20  and  C_13 
REMARK    4  A    between atoms: N_18  and  C_14 
REMARK    5  A    between atoms: O_26  and  C_16 
REMARK    6  A    between atoms: S_27  and  N_20 
ROOT
HETATM    1  C   UNK N   1       1.939   2.942  -0.080  0.00  0.00     0.058 A 
HETATM    2  C   UNK N   1       2.153   0.177   0.082  0.00  0.00     0.071 A 
HETATM    3  C   UNK N   1       5.625   1.034   0.077  0.00  0.00     0.176 A 
HETATM    4  C   UNK N   1       3.209   2.344  -0.027  0.00  0.00     0.053 A 
HETATM    5  C   UNK N   1       0.878   0.756   0.038  0.00  0.00     0.079 A 
HETATM    6  C   UNK N   1       5.649   2.432   0.017  0.00  0.00     0.107 A 
HETATM    7  C   UNK N   1       3.305   0.947   0.047  0.00  0.00     0.091 A 
HETATM    8  C   UNK N   1       0.755   2.180  -0.052  0.00  0.00     0.104 A 
HETATM    9  C   UNK N   1       4.394   3.104  -0.039  0.00  0.00     0.213 A 
HETATM   10  O   UNK N   1       4.318   4.317  -0.096  0.00  0.00    -0.285 OA
HETATM   11  O   UNK N   1       4.487   0.353   0.091  0.00  0.00    -0.319 OA
ENDROOT
BRANCH   8  12
HETATM   12  O   UNK N   1      -0.413   2.901  -0.098  0.00  0.00    -0.308 OA
BRANCH  12  13
HETATM   13  C   UNK N   1      -1.761   2.677  -0.060  0.00  0.00     0.076 A 
HETATM   14  C   UNK N   1      -2.340   1.409   0.044  0.00  0.00     0.037 A 
HETATM   15  C   UNK N   1      -3.727   1.244   0.084  0.00  0.00     0.003 A 
HETATM   16  C   UNK N   1      -4.561   2.360   0.021  0.00  0.00     0.000 A 
HETATM   17  C   UNK N   1      -4.002   3.635  -0.084  0.00  0.00     0.003 A 
HETATM   18  C   UNK N   1      -2.611   3.790  -0.124  0.00  0.00     0.037 A 
ENDBRANCH  12  13
ENDBRANCH   8  12
BRANCH   5  19
HETATM   19  N   UNK N   1      -0.242  -0.102   0.094  0.00  0.00    -0.282 N 
HETATM   20  H   UNK N   1      -1.129   0.272  -0.111  0.00  0.00     0.178 HD
BRANCH  19  21
HETATM   21  S   UNK N   1      -0.126  -1.807   0.510  0.00  0.00     0.227 S 
HETATM   22  C   UNK N   1      -1.193  -3.121  -0.138  0.00  0.00     0.186 C 
HETATM   23  O   UNK N   1      -0.009  -1.888  -1.019  0.00  0.00    -0.206 OA
HETATM   24  O   UNK N   1      -1.622  -1.515   0.701  0.00  0.00    -0.206 OA
ENDBRANCH  19  21
ENDBRANCH   5  19
BRANCH   6  25
HETATM   25  N   UNK N   1       6.953   3.033   0.018  0.00  0.00    -0.343 N 
HETATM   26  C   UNK N   1       7.347   4.265   0.003  0.00  0.00     0.223 C 
ATOM     27  HN  UNK N   1       7.717   2.357   0.033  1.00  0.00     0.167 HD
BRANCH  26  28
HETATM   28  O   UNK N   1       6.516   5.318  -0.010  0.00  0.00    -0.356 OA
HETATM   29  H   UNK N   1       6.863   6.189  -0.020  0.00  0.00     0.218 HD
ENDBRANCH  26  28
ENDBRANCH   6  25
TORSDOF 6
