REMARK  9 active torsions:
REMARK  status: ('A' for Active; 'I' for Inactive)
REMARK    1  A    between atoms: C_2  and  C_3 
REMARK    2  A    between atoms: C_2  and  C_14 
REMARK    3  A    between atoms: C_3  and  C_4 
REMARK    4  A    between atoms: C_7  and  O_12 
REMARK    5  A    between atoms: C_8  and  O_10 
REMARK    6  A    between atoms: C_14  and  C_16 
REMARK    7  A    between atoms: C_16  and  C_17 
REMARK    8  A    between atoms: C_20  and  O_25 
REMARK    9  A    between atoms: C_21  and  O_23 
ROOT
HETATM    1  C   UNK N   1       1.803  -1.144  -0.551  0.00  0.00     0.010 C 
HETATM    2  C   UNK N   1       1.179  -2.433  -0.028  0.00  0.00    -0.011 C 
ENDROOT
BRANCH   2   3
HETATM    3  C   UNK N   1       0.048  -2.846  -0.971  0.00  0.00     0.043 C 
BRANCH   3   4
HETATM    4  C   UNK N   1      -1.210  -2.115  -0.624  0.00  0.00    -0.055 A 
HETATM    5  C   UNK N   1      -2.394  -2.819  -0.405  0.00  0.00     0.010 A 
HETATM    6  C   UNK N   1      -3.562  -2.131  -0.067  0.00  0.00     0.040 A 
HETATM    7  C   UNK N   1      -3.565  -0.735   0.073  0.00  0.00     0.101 A 
HETATM    8  C   UNK N   1      -2.354  -0.020  -0.136  0.00  0.00     0.102 A 
HETATM    9  C   UNK N   1      -1.200  -0.726  -0.493  0.00  0.00     0.046 A 
BRANCH   7  10
HETATM   10  O   UNK N   1      -4.738  -0.138   0.409  0.00  0.00    -0.353 OA
HETATM   11  C   UNK N   1      -4.931   1.217   0.552  0.00  0.00     0.210 C 
ENDBRANCH   7  10
BRANCH   8  12
HETATM   12  O   UNK N   1      -2.306   1.327   0.018  0.00  0.00    -0.353 OA
HETATM   13  C   UNK N   1      -1.145   2.061  -0.099  0.00  0.00     0.210 C 
ENDBRANCH   8  12
ENDBRANCH   3   4
ENDBRANCH   2   3
BRANCH   2  14
HETATM   14  C   UNK N   1       2.257  -3.501   0.092  0.00  0.00    -0.011 C 
HETATM   15  C   UNK N   1       1.668  -4.829   0.546  0.00  0.00     0.010 C 
BRANCH  14  16
HETATM   16  C   UNK N   1       3.290  -3.058   1.122  0.00  0.00     0.043 C 
BRANCH  16  17
HETATM   17  C   UNK N   1       4.662  -3.453   0.706  0.00  0.00    -0.055 A 
HETATM   18  C   UNK N   1       5.645  -2.477   0.549  0.00  0.00     0.010 A 
HETATM   19  C   UNK N   1       6.936  -2.843   0.165  0.00  0.00     0.040 A 
HETATM   20  C   UNK N   1       7.264  -4.184  -0.071  0.00  0.00     0.101 A 
HETATM   21  C   UNK N   1       6.259  -5.179   0.080  0.00  0.00     0.102 A 
HETATM   22  C   UNK N   1       4.969  -4.792   0.475  0.00  0.00     0.046 A 
BRANCH  20  23
HETATM   23  O   UNK N   1       8.543  -4.461  -0.438  0.00  0.00    -0.353 OA
HETATM   24  C   UNK N   1       9.055  -5.717  -0.664  0.00  0.00     0.210 C 
ENDBRANCH  20  23
BRANCH  21  25
HETATM   25  O   UNK N   1       6.534  -6.485  -0.157  0.00  0.00    -0.353 OA
HETATM   26  C   UNK N   1       5.592  -7.486  -0.068  0.00  0.00     0.210 C 
ENDBRANCH  21  25
ENDBRANCH  16  17
ENDBRANCH  14  16
ENDBRANCH   2  14
TORSDOF 9
