MODEL 1
REMARK VINA RESULT:      -8.2      0.000      0.000
REMARK  5 active torsions:
REMARK  status: ('A' for Active; 'I' for Inactive)
REMARK    1  A    between atoms: C_5  and  C_8 
REMARK    2  A    between atoms: C_8  and  O_9 
REMARK    3  A    between atoms: O_9  and  C_10 
REMARK       I    between atoms: C_10  and  N_12 
REMARK    4  A    between atoms: C_15  and  C_19 
REMARK    5  A    between atoms: C_19  and  N_20 
REMARK       I    between atoms: N_20  and  C_21 
ROOT
HETATM    1  C   UNK N   1      35.629  14.444  12.880  0.00  0.00     0.363 C 
HETATM    2  O   UNK N   1      36.461  15.026  13.562  0.00  0.00    -0.238 OA
HETATM    3  N   UNK N   1      35.397  14.801  11.589  0.00  0.00    -0.325 N 
HETATM    4  C   UNK N   1      36.124  15.877  10.942  0.00  0.00     0.129 C 
HETATM    5  C   UNK N   1      35.169  16.732  10.100  0.00  0.00     0.029 C 
HETATM    6  C   UNK N   1      34.315  15.827   9.201  0.00  0.00     0.041 C 
HETATM    7  C   UNK N   1      33.472  14.927  10.095  0.00  0.00     0.193 C 
HETATM    8  C   UNK N   1      34.449  14.019  10.816  0.00  0.00     0.165 C 
HETATM    9  F   UNK N   1      32.605  14.148   9.350  0.00  0.00    -0.247 F 
ENDROOT
BRANCH   1  10
HETATM   10  O   UNK N   1      34.929  13.403  13.373  0.00  0.00    -0.299 OA
BRANCH  10  11
HETATM   11  C   UNK N   1      35.347  12.141  13.712  0.00  0.00     0.219 C 
BRANCH  11  12
HETATM   12  C   UNK N   1      35.352  12.090  15.218  0.00  0.00    -0.034 A 
HETATM   13  C   UNK N   1      34.846  13.151  15.976  0.00  0.00     0.010 A 
HETATM   14  C   UNK N   1      34.858  13.073  17.377  0.00  0.00     0.007 A 
HETATM   15  C   UNK N   1      35.374  11.939  18.018  0.00  0.00    -0.062 A 
HETATM   16  C   UNK N   1      35.380  11.847  19.501  0.00  0.00     0.048 C 
HETATM   17  C   UNK N   1      35.881  10.884  17.266  0.00  0.00     0.007 A 
HETATM   18  C   UNK N   1      35.872  10.960  15.879  0.00  0.00     0.010 A 
ENDBRANCH  11  12
ENDBRANCH  10  11
ENDBRANCH   1  10
BRANCH   6  19
HETATM   19  C   UNK N   1      33.464  16.618   8.222  0.00  0.00     0.145 C 
BRANCH  19  20
HETATM   20  N   UNK N   1      32.588  17.496   8.954  0.00  0.00    -0.226 N 
HETATM   21  C   UNK N   1      31.216  17.627   8.644  0.00  0.00     0.677 A 
HETATM   22  N   UNK N   1      30.406  18.312   9.494  0.00  0.00    -0.202 N 
HETATM   23  N   UNK N   1      30.702  17.072   7.512  0.00  0.00    -0.202 N 
HETATM   24  C   UNK N   1      29.079  18.445   9.236  0.00  0.00     0.107 A 
ATOM     25  HN  UNK N   1      30.799  18.732  10.336  1.00  0.00     0.183 HD
HETATM   26  C   UNK N   1      28.535  17.883   8.084  0.00  0.00     0.035 A 
HETATM   27  C   UNK N   1      29.380  17.192   7.218  0.00  0.00     0.107 A 
ATOM     28  HN  UNK N   1      31.314  16.559   6.878  1.00  0.00     0.183 HD
HETATM   29  H   UNK N   1      32.959  18.024   9.697  0.00  0.00     0.177 HD
ENDBRANCH  19  20
ENDBRANCH   6  19
TORSDOF 5
ENDMDL
MODEL 2
REMARK VINA RESULT:      -7.7     10.541     14.185
REMARK  5 active torsions:
REMARK  status: ('A' for Active; 'I' for Inactive)
REMARK    1  A    between atoms: C_5  and  C_8 
REMARK    2  A    between atoms: C_8  and  O_9 
REMARK    3  A    between atoms: O_9  and  C_10 
REMARK       I    between atoms: C_10  and  N_12 
REMARK    4  A    between atoms: C_15  and  C_19 
REMARK    5  A    between atoms: C_19  and  N_20 
REMARK       I    between atoms: N_20  and  C_21 
ROOT
HETATM    1  C   UNK N   1      23.761  20.127   3.106  0.00  0.00     0.363 C 
HETATM    2  O   UNK N   1      23.324  21.201   2.717  0.00  0.00    -0.238 OA
HETATM    3  N   UNK N   1      22.946  19.190   3.659  0.00  0.00    -0.325 N 
HETATM    4  C   UNK N   1      21.518  19.399   3.809  0.00  0.00     0.129 C 
HETATM    5  C   UNK N   1      21.048  18.893   5.178  0.00  0.00     0.029 C 
HETATM    6  C   UNK N   1      21.574  17.471   5.417  0.00  0.00     0.041 C 
HETATM    7  C   UNK N   1      23.096  17.523   5.435  0.00  0.00     0.193 C 
HETATM    8  C   UNK N   1      23.519  17.909   4.031  0.00  0.00     0.165 C 
HETATM    9  F   UNK N   1      23.639  16.288   5.741  0.00  0.00    -0.247 F 
ENDROOT
BRANCH   1  10
HETATM   10  O   UNK N   1      25.066  19.817   2.974  0.00  0.00    -0.299 OA
BRANCH  10  11
HETATM   11  C   UNK N   1      26.181  20.585   3.193  0.00  0.00     0.219 C 
BRANCH  11  12
HETATM   12  C   UNK N   1      26.790  20.086   4.478  0.00  0.00    -0.034 A 
HETATM   13  C   UNK N   1      27.277  18.780   4.583  0.00  0.00     0.010 A 
HETATM   14  C   UNK N   1      27.846  18.344   5.791  0.00  0.00     0.007 A 
HETATM   15  C   UNK N   1      27.928  19.213   6.888  0.00  0.00    -0.062 A 
HETATM   16  C   UNK N   1      28.538  18.760   8.164  0.00  0.00     0.048 C 
HETATM   17  C   UNK N   1      27.442  20.512   6.785  0.00  0.00     0.007 A 
HETATM   18  C   UNK N   1      26.876  20.944   5.591  0.00  0.00     0.010 A 
ENDBRANCH  11  12
ENDBRANCH  10  11
ENDBRANCH   1  10
BRANCH   6  19
HETATM   19  C   UNK N   1      21.010  16.847   6.682  0.00  0.00     0.145 C 
BRANCH  19  20
HETATM   20  N   UNK N   1      20.732  17.885   7.641  0.00  0.00    -0.226 N 
HETATM   21  C   UNK N   1      19.596  17.856   8.480  0.00  0.00     0.677 A 
HETATM   22  N   UNK N   1      19.498  18.753   9.496  0.00  0.00    -0.202 N 
HETATM   23  N   UNK N   1      18.609  16.939   8.282  0.00  0.00    -0.202 N 
HETATM   24  C   UNK N   1      18.428  18.744  10.332  0.00  0.00     0.107 A 
ATOM     25  HN  UNK N   1      20.237  19.442   9.634  1.00  0.00     0.183 HD
HETATM   26  C   UNK N   1      17.408  17.814  10.147  0.00  0.00     0.035 A 
HETATM   27  C   UNK N   1      17.519  16.907   9.095  0.00  0.00     0.107 A 
ATOM     28  HN  UNK N   1      18.687  16.270   7.518  1.00  0.00     0.183 HD
HETATM   29  H   UNK N   1      21.356  18.642   7.714  0.00  0.00     0.177 HD
ENDBRANCH  19  20
ENDBRANCH   6  19
TORSDOF 5
ENDMDL
MODEL 3
REMARK VINA RESULT:      -7.5      5.010     12.001
REMARK  5 active torsions:
REMARK  status: ('A' for Active; 'I' for Inactive)
REMARK    1  A    between atoms: C_5  and  C_8 
REMARK    2  A    between atoms: C_8  and  O_9 
REMARK    3  A    between atoms: O_9  and  C_10 
REMARK       I    between atoms: C_10  and  N_12 
REMARK    4  A    between atoms: C_15  and  C_19 
REMARK    5  A    between atoms: C_19  and  N_20 
REMARK       I    between atoms: N_20  and  C_21 
ROOT
HETATM    1  C   UNK N   1      27.934  18.959   6.688  0.00  0.00     0.363 C 
HETATM    2  O   UNK N   1      27.456  19.974   7.175  0.00  0.00    -0.238 OA
HETATM    3  N   UNK N   1      28.833  18.203   7.370  0.00  0.00    -0.325 N 
HETATM    4  C   UNK N   1      29.269  18.542   8.712  0.00  0.00     0.129 C 
HETATM    5  C   UNK N   1      30.782  18.331   8.849  0.00  0.00     0.029 C 
HETATM    6  C   UNK N   1      31.163  16.940   8.322  0.00  0.00     0.041 C 
HETATM    7  C   UNK N   1      30.814  16.880   6.841  0.00  0.00     0.193 C 
HETATM    8  C   UNK N   1      29.303  16.971   6.762  0.00  0.00     0.165 C 
HETATM    9  F   UNK N   1      31.220  15.684   6.277  0.00  0.00    -0.247 F 
ENDROOT
BRANCH   1  10
HETATM   10  O   UNK N   1      27.564  18.533   5.464  0.00  0.00    -0.299 OA
BRANCH  10  11
HETATM   11  C   UNK N   1      27.545  19.201   4.266  0.00  0.00     0.219 C 
BRANCH  11  12
HETATM   12  C   UNK N   1      26.093  19.411   3.924  0.00  0.00    -0.034 A 
HETATM   13  C   UNK N   1      25.100  18.586   4.461  0.00  0.00     0.010 A 
HETATM   14  C   UNK N   1      23.755  18.809   4.130  0.00  0.00     0.007 A 
HETATM   15  C   UNK N   1      23.403  19.855   3.266  0.00  0.00    -0.062 A 
HETATM   16  C   UNK N   1      21.980  20.102   2.920  0.00  0.00     0.048 C 
HETATM   17  C   UNK N   1      24.390  20.675   2.728  0.00  0.00     0.007 A 
HETATM   18  C   UNK N   1      25.723  20.455   3.053  0.00  0.00     0.010 A 
ENDBRANCH  11  12
ENDBRANCH  10  11
ENDBRANCH   1  10
BRANCH   6  19
HETATM   19  C   UNK N   1      32.621  16.601   8.579  0.00  0.00     0.145 C 
BRANCH  19  20
HETATM   20  N   UNK N   1      32.702  15.584   9.595  0.00  0.00    -0.226 N 
HETATM   21  C   UNK N   1      33.933  15.133  10.119  0.00  0.00     0.677 A 
HETATM   22  N   UNK N   1      33.934  14.324  11.212  0.00  0.00    -0.202 N 
HETATM   23  N   UNK N   1      35.111  15.506   9.547  0.00  0.00    -0.202 N 
HETATM   24  C   UNK N   1      35.100  13.885  11.753  0.00  0.00     0.107 A 
ATOM     25  HN  UNK N   1      33.048  14.042  11.631  1.00  0.00     0.183 HD
HETATM   26  C   UNK N   1      36.315  14.255  11.182  0.00  0.00     0.035 A 
HETATM   27  C   UNK N   1      36.297  15.078  10.057  0.00  0.00     0.107 A 
ATOM     28  HN  UNK N   1      35.105  16.112   8.728  1.00  0.00     0.183 HD
HETATM   29  H   UNK N   1      31.868  15.187   9.936  0.00  0.00     0.177 HD
ENDBRANCH  19  20
ENDBRANCH   6  19
TORSDOF 5
ENDMDL
MODEL 4
REMARK VINA RESULT:      -7.5      3.138      9.670
REMARK  5 active torsions:
REMARK  status: ('A' for Active; 'I' for Inactive)
REMARK    1  A    between atoms: C_5  and  C_8 
REMARK    2  A    between atoms: C_8  and  O_9 
REMARK    3  A    between atoms: O_9  and  C_10 
REMARK       I    between atoms: C_10  and  N_12 
REMARK    4  A    between atoms: C_15  and  C_19 
REMARK    5  A    between atoms: C_19  and  N_20 
REMARK       I    between atoms: N_20  and  C_21 
ROOT
HETATM    1  C   UNK N   1      34.402  17.738   8.258  0.00  0.00     0.363 C 
HETATM    2  O   UNK N   1      34.895  18.851   8.376  0.00  0.00    -0.238 OA
HETATM    3  N   UNK N   1      34.554  16.792   9.222  0.00  0.00    -0.325 N 
HETATM    4  C   UNK N   1      35.292  17.046  10.445  0.00  0.00     0.129 C 
HETATM    5  C   UNK N   1      36.170  15.838  10.796  0.00  0.00     0.029 C 
HETATM    6  C   UNK N   1      35.333  14.552  10.739  0.00  0.00     0.041 C 
HETATM    7  C   UNK N   1      34.836  14.370   9.311  0.00  0.00     0.193 C 
HETATM    8  C   UNK N   1      33.880  15.517   9.051  0.00  0.00     0.165 C 
HETATM    9  F   UNK N   1      34.151  13.177   9.165  0.00  0.00    -0.247 F 
ENDROOT
BRANCH   1  10
HETATM   10  O   UNK N   1      33.662  17.415   7.179  0.00  0.00    -0.299 OA
BRANCH  10  11
HETATM   11  C   UNK N   1      33.913  17.616   5.846  0.00  0.00     0.219 C 
BRANCH  11  12
HETATM   12  C   UNK N   1      32.640  17.262   5.121  0.00  0.00    -0.034 A 
HETATM   13  C   UNK N   1      31.435  17.113   5.813  0.00  0.00     0.010 A 
HETATM   14  C   UNK N   1      30.263  16.789   5.111  0.00  0.00     0.007 A 
HETATM   15  C   UNK N   1      30.297  16.617   3.720  0.00  0.00    -0.062 A 
HETATM   16  C   UNK N   1      29.059  16.284   2.971  0.00  0.00     0.048 C 
HETATM   17  C   UNK N   1      31.496  16.761   3.030  0.00  0.00     0.007 A 
HETATM   18  C   UNK N   1      32.657  17.080   3.724  0.00  0.00     0.010 A 
ENDBRANCH  11  12
ENDBRANCH  10  11
ENDBRANCH   1  10
BRANCH   6  19
HETATM   19  C   UNK N   1      36.100  13.338  11.236  0.00  0.00     0.145 C 
BRANCH  19  20
HETATM   20  N   UNK N   1      35.353  12.702  12.290  0.00  0.00    -0.226 N 
HETATM   21  C   UNK N   1      35.566  12.997  13.654  0.00  0.00     0.677 A 
HETATM   22  N   UNK N   1      34.697  12.518  14.582  0.00  0.00    -0.202 N 
HETATM   23  N   UNK N   1      36.625  13.760  14.043  0.00  0.00    -0.202 N 
HETATM   24  C   UNK N   1      34.861  12.796  15.901  0.00  0.00     0.107 A 
ATOM     25  HN  UNK N   1      33.910  11.941  14.284  1.00  0.00     0.183 HD
HETATM   26  C   UNK N   1      35.938  13.575  16.318  0.00  0.00     0.035 A 
HETATM   27  C   UNK N   1      36.826  14.051  15.356  0.00  0.00     0.107 A 
ATOM     28  HN  UNK N   1      37.275  14.117  13.343  1.00  0.00     0.183 HD
HETATM   29  H   UNK N   1      34.669  12.035  12.050  0.00  0.00     0.177 HD
ENDBRANCH  19  20
ENDBRANCH   6  19
TORSDOF 5
ENDMDL
MODEL 5
REMARK VINA RESULT:      -7.4      2.356      3.955
REMARK  5 active torsions:
REMARK  status: ('A' for Active; 'I' for Inactive)
REMARK    1  A    between atoms: C_5  and  C_8 
REMARK    2  A    between atoms: C_8  and  O_9 
REMARK    3  A    between atoms: O_9  and  C_10 
REMARK       I    between atoms: C_10  and  N_12 
REMARK    4  A    between atoms: C_15  and  C_19 
REMARK    5  A    between atoms: C_19  and  N_20 
REMARK       I    between atoms: N_20  and  C_21 
ROOT
HETATM    1  C   UNK N   1      34.986  16.585   9.761  0.00  0.00     0.363 C 
HETATM    2  O   UNK N   1      35.422  17.586  10.311  0.00  0.00    -0.238 OA
HETATM    3  N   UNK N   1      34.064  16.668   8.767  0.00  0.00    -0.325 N 
HETATM    4  C   UNK N   1      33.552  17.940   8.291  0.00  0.00     0.129 C 
HETATM    5  C   UNK N   1      32.037  17.854   8.067  0.00  0.00     0.029 C 
HETATM    6  C   UNK N   1      31.706  16.611   7.229  0.00  0.00     0.041 C 
HETATM    7  C   UNK N   1      32.133  15.379   8.015  0.00  0.00     0.193 C 
HETATM    8  C   UNK N   1      33.645  15.444   8.108  0.00  0.00     0.165 C 
HETATM    9  F   UNK N   1      31.776  14.214   7.359  0.00  0.00    -0.247 F 
ENDROOT
BRANCH   1  10
HETATM   10  O   UNK N   1      35.427  15.357  10.100  0.00  0.00    -0.299 OA
BRANCH  10  11
HETATM   11  C   UNK N   1      36.708  14.878  10.205  0.00  0.00     0.219 C 
BRANCH  11  12
HETATM   12  C   UNK N   1      36.743  14.042  11.458  0.00  0.00    -0.034 A 
HETATM   13  C   UNK N   1      37.404  12.810  11.482  0.00  0.00     0.010 A 
HETATM   14  C   UNK N   1      37.426  12.054  12.665  0.00  0.00     0.007 A 
HETATM   15  C   UNK N   1      36.790  12.530  13.820  0.00  0.00    -0.062 A 
HETATM   16  C   UNK N   1      36.819  11.740  15.077  0.00  0.00     0.048 C 
HETATM   17  C   UNK N   1      36.129  13.754  13.797  0.00  0.00     0.007 A 
HETATM   18  C   UNK N   1      36.104  14.502  12.626  0.00  0.00     0.010 A 
ENDBRANCH  11  12
ENDBRANCH  10  11
ENDBRANCH   1  10
BRANCH   6  19
HETATM   19  C   UNK N   1      30.241  16.554   6.830  0.00  0.00     0.145 C 
BRANCH  19  20
HETATM   20  N   UNK N   1      29.525  17.611   7.495  0.00  0.00    -0.226 N 
HETATM   21  C   UNK N   1      28.705  18.526   6.798  0.00  0.00     0.677 A 
HETATM   22  N   UNK N   1      27.902  19.367   7.501  0.00  0.00    -0.202 N 
HETATM   23  N   UNK N   1      28.710  18.566   5.437  0.00  0.00    -0.202 N 
HETATM   24  C   UNK N   1      27.089  20.249   6.864  0.00  0.00     0.107 A 
ATOM     25  HN  UNK N   1      27.909  19.337   8.520  1.00  0.00     0.183 HD
HETATM   26  C   UNK N   1      27.078  20.304   5.472  0.00  0.00     0.035 A 
HETATM   27  C   UNK N   1      27.914  19.442   4.766  0.00  0.00     0.107 A 
ATOM     28  HN  UNK N   1      29.314  17.933   4.915  1.00  0.00     0.183 HD
HETATM   29  H   UNK N   1      29.610  17.700   8.472  0.00  0.00     0.177 HD
ENDBRANCH  19  20
ENDBRANCH   6  19
TORSDOF 5
ENDMDL
MODEL 6
REMARK VINA RESULT:      -7.4      2.279      3.364
REMARK  5 active torsions:
REMARK  status: ('A' for Active; 'I' for Inactive)
REMARK    1  A    between atoms: C_5  and  C_8 
REMARK    2  A    between atoms: C_8  and  O_9 
REMARK    3  A    between atoms: O_9  and  C_10 
REMARK       I    between atoms: C_10  and  N_12 
REMARK    4  A    between atoms: C_15  and  C_19 
REMARK    5  A    between atoms: C_19  and  N_20 
REMARK       I    between atoms: N_20  and  C_21 
ROOT
HETATM    1  C   UNK N   1      35.989  10.981  12.900  0.00  0.00     0.363 C 
HETATM    2  O   UNK N   1      35.888   9.963  12.229  0.00  0.00    -0.238 OA
HETATM    3  N   UNK N   1      35.562  12.183  12.430  0.00  0.00    -0.325 N 
HETATM    4  C   UNK N   1      34.955  12.330  11.121  0.00  0.00     0.129 C 
HETATM    5  C   UNK N   1      35.486  13.590  10.427  0.00  0.00     0.029 C 
HETATM    6  C   UNK N   1      35.389  14.790  11.380  0.00  0.00     0.041 C 
HETATM    7  C   UNK N   1      36.275  14.511  12.587  0.00  0.00     0.193 C 
HETATM    8  C   UNK N   1      35.644  13.337  13.308  0.00  0.00     0.165 C 
HETATM    9  F   UNK N   1      36.311  15.595  13.446  0.00  0.00    -0.247 F 
ENDROOT
BRANCH   1  10
HETATM   10  O   UNK N   1      36.500  10.946  14.146  0.00  0.00    -0.299 OA
BRANCH  10  11
HETATM   11  C   UNK N   1      36.437   9.960  15.097  0.00  0.00     0.219 C 
BRANCH  11  12
HETATM   12  C   UNK N   1      36.060  10.642  16.387  0.00  0.00    -0.034 A 
HETATM   13  C   UNK N   1      36.131   9.964  17.607  0.00  0.00     0.010 A 
HETATM   14  C   UNK N   1      35.779  10.626  18.794  0.00  0.00     0.007 A 
HETATM   15  C   UNK N   1      35.359  11.963  18.760  0.00  0.00    -0.062 A 
HETATM   16  C   UNK N   1      34.995  12.672  20.013  0.00  0.00     0.048 C 
HETATM   17  C   UNK N   1      35.285  12.639  17.546  0.00  0.00     0.007 A 
HETATM   18  C   UNK N   1      35.631  11.984  16.370  0.00  0.00     0.010 A 
ENDBRANCH  11  12
ENDBRANCH  10  11
ENDBRANCH   1  10
BRANCH   6  19
HETATM   19  C   UNK N   1      35.746  16.101  10.701  0.00  0.00     0.145 C 
BRANCH  19  20
HETATM   20  N   UNK N   1      34.538  16.829  10.407  0.00  0.00    -0.226 N 
HETATM   21  C   UNK N   1      34.020  16.940   9.098  0.00  0.00     0.677 A 
HETATM   22  N   UNK N   1      32.779  17.463   8.917  0.00  0.00    -0.202 N 
HETATM   23  N   UNK N   1      34.748  16.524   8.025  0.00  0.00    -0.202 N 
HETATM   24  C   UNK N   1      32.243  17.570   7.674  0.00  0.00     0.107 A 
ATOM     25  HN  UNK N   1      32.243  17.779   9.724  1.00  0.00     0.183 HD
HETATM   26  C   UNK N   1      32.971  17.150   6.564  0.00  0.00     0.035 A 
HETATM   27  C   UNK N   1      34.246  16.624   6.765  0.00  0.00     0.107 A 
ATOM     28  HN  UNK N   1      35.678  16.133   8.167  1.00  0.00     0.183 HD
HETATM   29  H   UNK N   1      34.056  17.265  11.147  0.00  0.00     0.177 HD
ENDBRANCH  19  20
ENDBRANCH   6  19
TORSDOF 5
ENDMDL
MODEL 7
REMARK VINA RESULT:      -7.4      1.683      2.209
REMARK  5 active torsions:
REMARK  status: ('A' for Active; 'I' for Inactive)
REMARK    1  A    between atoms: C_5  and  C_8 
REMARK    2  A    between atoms: C_8  and  O_9 
REMARK    3  A    between atoms: O_9  and  C_10 
REMARK       I    between atoms: C_10  and  N_12 
REMARK    4  A    between atoms: C_15  and  C_19 
REMARK    5  A    between atoms: C_19  and  N_20 
REMARK       I    between atoms: N_20  and  C_21 
ROOT
HETATM    1  C   UNK N   1      36.052  12.254  11.412  0.00  0.00     0.363 C 
HETATM    2  O   UNK N   1      36.101  11.149  10.890  0.00  0.00    -0.238 OA
HETATM    3  N   UNK N   1      35.281  13.247  10.896  0.00  0.00    -0.325 N 
HETATM    4  C   UNK N   1      34.465  13.056   9.712  0.00  0.00     0.129 C 
HETATM    5  C   UNK N   1      34.564  14.282   8.795  0.00  0.00     0.029 C 
HETATM    6  C   UNK N   1      34.324  15.561   9.609  0.00  0.00     0.041 C 
HETATM    7  C   UNK N   1      35.423  15.671  10.657  0.00  0.00     0.193 C 
HETATM    8  C   UNK N   1      35.213  14.510  11.609  0.00  0.00     0.165 C 
HETATM    9  F   UNK N   1      35.324  16.854  11.368  0.00  0.00    -0.247 F 
ENDROOT
BRANCH   1  10
HETATM   10  O   UNK N   1      36.739  12.522  12.540  0.00  0.00    -0.299 OA
BRANCH  10  11
HETATM   11  C   UNK N   1      37.191  11.675  13.519  0.00  0.00     0.219 C 
BRANCH  11  12
HETATM   12  C   UNK N   1      36.608  12.179  14.814  0.00  0.00    -0.034 A 
HETATM   13  C   UNK N   1      35.899  11.325  15.665  0.00  0.00     0.010 A 
HETATM   14  C   UNK N   1      35.372  11.821  16.868  0.00  0.00     0.007 A 
HETATM   15  C   UNK N   1      35.556  13.165  17.220  0.00  0.00    -0.062 A 
HETATM   16  C   UNK N   1      35.009  13.692  18.496  0.00  0.00     0.048 C 
HETATM   17  C   UNK N   1      36.258  14.016  16.374  0.00  0.00     0.007 A 
HETATM   18  C   UNK N   1      36.779  13.529  15.181  0.00  0.00     0.010 A 
ENDBRANCH  11  12
ENDBRANCH  10  11
ENDBRANCH   1  10
BRANCH   6  19
HETATM   19  C   UNK N   1      34.245  16.800   8.733  0.00  0.00     0.145 C 
BRANCH  19  20
HETATM   20  N   UNK N   1      33.147  17.623   9.172  0.00  0.00    -0.226 N 
HETATM   21  C   UNK N   1      31.888  17.608   8.533  0.00  0.00     0.677 A 
HETATM   22  N   UNK N   1      30.840  18.250   9.115  0.00  0.00    -0.202 N 
HETATM   23  N   UNK N   1      31.714  16.954   7.352  0.00  0.00    -0.202 N 
HETATM   24  C   UNK N   1      29.611  18.243   8.538  0.00  0.00     0.107 A 
ATOM     25  HN  UNK N   1      30.979  18.745   9.996  1.00  0.00     0.183 HD
HETATM   26  C   UNK N   1      29.414  17.579   7.330  0.00  0.00     0.035 A 
HETATM   27  C   UNK N   1      30.499  16.932   6.742  0.00  0.00     0.107 A 
ATOM     28  HN  UNK N   1      32.503  16.474   6.920  1.00  0.00     0.183 HD
HETATM   29  H   UNK N   1      33.281  18.219   9.944  0.00  0.00     0.177 HD
ENDBRANCH  19  20
ENDBRANCH   6  19
TORSDOF 5
ENDMDL
MODEL 8
REMARK VINA RESULT:      -7.4      4.393     10.081
REMARK  5 active torsions:
REMARK  status: ('A' for Active; 'I' for Inactive)
REMARK    1  A    between atoms: C_5  and  C_8 
REMARK    2  A    between atoms: C_8  and  O_9 
REMARK    3  A    between atoms: O_9  and  C_10 
REMARK       I    between atoms: C_10  and  N_12 
REMARK    4  A    between atoms: C_15  and  C_19 
REMARK    5  A    between atoms: C_19  and  N_20 
REMARK       I    between atoms: N_20  and  C_21 
ROOT
HETATM    1  C   UNK N   1      30.592  15.316   5.591  0.00  0.00     0.363 C 
HETATM    2  O   UNK N   1      30.745  14.277   4.963  0.00  0.00    -0.238 OA
HETATM    3  N   UNK N   1      31.654  16.055   6.005  0.00  0.00    -0.325 N 
HETATM    4  C   UNK N   1      33.024  15.669   5.719  0.00  0.00     0.129 C 
HETATM    5  C   UNK N   1      33.907  15.892   6.953  0.00  0.00     0.029 C 
HETATM    6  C   UNK N   1      33.681  17.306   7.507  0.00  0.00     0.041 C 
HETATM    7  C   UNK N   1      32.228  17.419   7.946  0.00  0.00     0.193 C 
HETATM    8  C   UNK N   1      31.398  17.314   6.681  0.00  0.00     0.165 C 
HETATM    9  F   UNK N   1      31.976  18.641   8.544  0.00  0.00    -0.247 F 
ENDROOT
BRANCH   1  10
HETATM   10  O   UNK N   1      29.360  15.785   5.872  0.00  0.00    -0.299 OA
BRANCH  10  11
HETATM   11  C   UNK N   1      28.337  16.135   5.028  0.00  0.00     0.219 C 
BRANCH  11  12
HETATM   12  C   UNK N   1      28.047  17.588   5.298  0.00  0.00    -0.034 A 
HETATM   13  C   UNK N   1      27.832  18.486   4.248  0.00  0.00     0.010 A 
HETATM   14  C   UNK N   1      27.559  19.834   4.529  0.00  0.00     0.007 A 
HETATM   15  C   UNK N   1      27.498  20.282   5.856  0.00  0.00    -0.062 A 
HETATM   16  C   UNK N   1      27.199  21.705   6.159  0.00  0.00     0.048 C 
HETATM   17  C   UNK N   1      27.715  19.391   6.902  0.00  0.00     0.007 A 
HETATM   18  C   UNK N   1      27.988  18.057   6.626  0.00  0.00     0.010 A 
ENDBRANCH  11  12
ENDBRANCH  10  11
ENDBRANCH   1  10
BRANCH   6  19
HETATM   19  C   UNK N   1      34.645  17.650   8.629  0.00  0.00     0.145 C 
BRANCH  19  20
HETATM   20  N   UNK N   1      34.240  16.968   9.831  0.00  0.00    -0.226 N 
HETATM   21  C   UNK N   1      35.009  15.935  10.411  0.00  0.00     0.677 A 
HETATM   22  N   UNK N   1      34.678  15.474  11.646  0.00  0.00    -0.202 N 
HETATM   23  N   UNK N   1      36.076  15.407   9.750  0.00  0.00    -0.202 N 
HETATM   24  C   UNK N   1      35.405  14.493  12.242  0.00  0.00     0.107 A 
ATOM     25  HN  UNK N   1      33.873  15.868  12.132  1.00  0.00     0.183 HD
HETATM   26  C   UNK N   1      36.499  13.941  11.582  0.00  0.00     0.035 A 
HETATM   27  C   UNK N   1      36.821  14.418  10.312  0.00  0.00     0.107 A 
ATOM     28  HN  UNK N   1      36.319  15.756   8.824  1.00  0.00     0.183 HD
HETATM   29  H   UNK N   1      33.395  17.230  10.263  0.00  0.00     0.177 HD
ENDBRANCH  19  20
ENDBRANCH   6  19
TORSDOF 5
ENDMDL
MODEL 9
REMARK VINA RESULT:      -7.3      3.623     10.255
REMARK  5 active torsions:
REMARK  status: ('A' for Active; 'I' for Inactive)
REMARK    1  A    between atoms: C_5  and  C_8 
REMARK    2  A    between atoms: C_8  and  O_9 
REMARK    3  A    between atoms: O_9  and  C_10 
REMARK       I    between atoms: C_10  and  N_12 
REMARK    4  A    between atoms: C_15  and  C_19 
REMARK    5  A    between atoms: C_19  and  N_20 
REMARK       I    between atoms: N_20  and  C_21 
ROOT
HETATM    1  C   UNK N   1      30.648  15.102   6.062  0.00  0.00     0.363 C 
HETATM    2  O   UNK N   1      30.269  14.046   5.576  0.00  0.00    -0.238 OA
HETATM    3  N   UNK N   1      31.826  15.190   6.734  0.00  0.00    -0.325 N 
HETATM    4  C   UNK N   1      32.706  14.048   6.903  0.00  0.00     0.129 C 
HETATM    5  C   UNK N   1      33.264  14.015   8.332  0.00  0.00     0.029 C 
HETATM    6  C   UNK N   1      33.829  15.394   8.702  0.00  0.00     0.041 C 
HETATM    7  C   UNK N   1      32.688  16.401   8.669  0.00  0.00     0.193 C 
HETATM    8  C   UNK N   1      32.249  16.490   7.220  0.00  0.00     0.165 C 
HETATM    9  F   UNK N   1      33.108  17.651   9.086  0.00  0.00    -0.247 F 
ENDROOT
BRANCH   1  10
HETATM   10  O   UNK N   1      29.925  16.231   5.924  0.00  0.00    -0.299 OA
BRANCH  10  11
HETATM   11  C   UNK N   1      29.290  16.742   4.821  0.00  0.00     0.219 C 
BRANCH  11  12
HETATM   12  C   UNK N   1      28.617  18.012   5.273  0.00  0.00    -0.034 A 
HETATM   13  C   UNK N   1      28.484  18.311   6.633  0.00  0.00     0.010 A 
HETATM   14  C   UNK N   1      27.858  19.505   7.026  0.00  0.00     0.007 A 
HETATM   15  C   UNK N   1      27.369  20.397   6.062  0.00  0.00    -0.062 A 
HETATM   16  C   UNK N   1      26.715  21.666   6.472  0.00  0.00     0.048 C 
HETATM   17  C   UNK N   1      27.498  20.100   4.709  0.00  0.00     0.007 A 
HETATM   18  C   UNK N   1      28.115  18.918   4.318  0.00  0.00     0.010 A 
ENDBRANCH  11  12
ENDBRANCH  10  11
ENDBRANCH   1  10
BRANCH   6  19
HETATM   19  C   UNK N   1      34.545  15.387  10.042  0.00  0.00     0.145 C 
BRANCH  19  20
HETATM   20  N   UNK N   1      34.373  14.101  10.667  0.00  0.00    -0.226 N 
HETATM   21  C   UNK N   1      34.924  13.794  11.930  0.00  0.00     0.677 A 
HETATM   22  N   UNK N   1      34.558  12.643  12.553  0.00  0.00    -0.202 N 
HETATM   23  N   UNK N   1      35.809  14.639  12.528  0.00  0.00    -0.202 N 
HETATM   24  C   UNK N   1      35.055  12.323  13.776  0.00  0.00     0.107 A 
ATOM     25  HN  UNK N   1      33.901  12.010  12.097  1.00  0.00     0.183 HD
HETATM   26  C   UNK N   1      35.960  13.175  14.403  0.00  0.00     0.035 A 
HETATM   27  C   UNK N   1      36.333  14.347  13.748  0.00  0.00     0.107 A 
ATOM     28  HN  UNK N   1      36.080  15.501  12.056  1.00  0.00     0.183 HD
HETATM   29  H   UNK N   1      33.852  13.411  10.196  0.00  0.00     0.177 HD
ENDBRANCH  19  20
ENDBRANCH   6  19
TORSDOF 5
ENDMDL
