MODEL 1
REMARK VINA RESULT:      -6.7      0.000      0.000
REMARK  12 active torsions:
REMARK  status: ('A' for Active; 'I' for Inactive)
REMARK    1  A    between atoms: C_4  and  C_14 
REMARK    2  A    between atoms: C_7  and  O_8 
REMARK    3  A    between atoms: O_8  and  C_9 
REMARK    4  A    between atoms: C_9  and  C_10 
REMARK    5  A    between atoms: C_10  and  O_12 
REMARK    6  A    between atoms: C_14  and  C_15 
REMARK    7  A    between atoms: C_15  and  N_16 
REMARK    8  A    between atoms: N_16  and  C_17 
REMARK    9  A    between atoms: C_17  and  C_19 
REMARK   10  A    between atoms: C_19  and  C_20 
REMARK   11  A    between atoms: C_19  and  O_27 
REMARK   12  A    between atoms: C_23  and  O_26 
ROOT
HETATM    1  C   UNK N   1      26.145  16.044   4.618  0.00  0.00     0.118 C 
ENDROOT
BRANCH   1   2
HETATM    2  C   UNK N   1      24.846  16.403   5.332  0.00  0.00     0.058 C 
BRANCH   2   3
HETATM    3  C   UNK N   1      24.038  17.498   4.692  0.00  0.00    -0.050 A 
HETATM    4  C   UNK N   1      24.729  18.468   3.961  0.00  0.00     0.017 A 
HETATM    5  C   UNK N   1      24.053  19.538   3.372  0.00  0.00    -0.028 A 
HETATM    6  C   UNK N   1      24.831  20.562   2.621  0.00  0.00     0.051 C 
HETATM    7  C   UNK N   1      22.660  19.647   3.504  0.00  0.00     0.075 A 
HETATM    8  C   UNK N   1      21.961  18.672   4.234  0.00  0.00     0.044 A 
HETATM    9  C   UNK N   1      22.637  17.604   4.832  0.00  0.00    -0.053 A 
HETATM   10  C   UNK N   1      21.846  16.610   5.614  0.00  0.00     0.049 C 
BRANCH   7  11
HETATM   11  O   UNK N   1      22.016  20.699   2.939  0.00  0.00    -0.340 OA
BRANCH  11  12
HETATM   12  C   UNK N   1      20.760  20.606   2.382  0.00  0.00     0.285 C 
BRANCH  12  13
HETATM   13  C   UNK N   1      20.777  21.179   1.006  0.00  0.00     0.164 C 
HETATM   14  O   UNK N   1      21.127  20.488   0.064  0.00  0.00    -0.648 OA
BRANCH  13  15
HETATM   15  O   UNK N   1      20.397  22.454   0.801  0.00  0.00    -0.775 OA
HETATM   16  H   UNK N   1      20.959  23.118   0.455  0.00  0.00     0.167 HD
ENDBRANCH  13  15
ENDBRANCH  12  13
ENDBRANCH  11  12
ENDBRANCH   7  11
ENDBRANCH   2   3
ENDBRANCH   1   2
BRANCH   1  17
HETATM   17  N   UNK N   1      27.297  16.053   5.508  0.00  0.00    -0.414 N 
HETATM   18  H   UNK N   1      27.296  15.965   6.524  0.00  0.00     0.153 HD
BRANCH  17  19
HETATM   19  C   UNK N   1      28.452  16.218   4.635  0.00  0.00     0.105 C 
HETATM   20  C   UNK N   1      27.974  16.453   3.213  0.00  0.00     0.035 C 
BRANCH  19  21
HETATM   21  C   UNK N   1      29.373  17.349   5.123  0.00  0.00     0.173 C 
BRANCH  21  22
HETATM   22  C   UNK N   1      28.571  18.525   5.627  0.00  0.00    -0.028 A 
HETATM   23  C   UNK N   1      28.128  19.523   4.742  0.00  0.00     0.012 A 
HETATM   24  C   UNK N   1      27.381  20.606   5.210  0.00  0.00     0.037 A 
HETATM   25  C   UNK N   1      27.075  20.707   6.569  0.00  0.00     0.065 A 
HETATM   26  C   UNK N   1      27.515  19.725   7.459  0.00  0.00     0.037 A 
HETATM   27  C   UNK N   1      28.261  18.639   6.991  0.00  0.00     0.012 A 
BRANCH  25  28
HETATM   28  O   UNK N   1      26.355  21.748   7.018  0.00  0.00    -0.361 OA
HETATM   29  H   UNK N   1      25.427  21.817   6.909  0.00  0.00     0.217 HD
ENDBRANCH  25  28
ENDBRANCH  21  22
BRANCH  21  30
HETATM   30  O   UNK N   1      30.218  17.754   4.081  0.00  0.00    -0.389 OA
HETATM   31  H   UNK N   1      30.733  18.576   4.118  0.00  0.00     0.210 HD
ENDBRANCH  21  30
ENDBRANCH  19  21
ENDBRANCH  17  19
ENDBRANCH   1  17
TORSDOF 12
ENDMDL
MODEL 2
REMARK VINA RESULT:      -6.7     10.169     12.212
REMARK  12 active torsions:
REMARK  status: ('A' for Active; 'I' for Inactive)
REMARK    1  A    between atoms: C_4  and  C_14 
REMARK    2  A    between atoms: C_7  and  O_8 
REMARK    3  A    between atoms: O_8  and  C_9 
REMARK    4  A    between atoms: C_9  and  C_10 
REMARK    5  A    between atoms: C_10  and  O_12 
REMARK    6  A    between atoms: C_14  and  C_15 
REMARK    7  A    between atoms: C_15  and  N_16 
REMARK    8  A    between atoms: N_16  and  C_17 
REMARK    9  A    between atoms: C_17  and  C_19 
REMARK   10  A    between atoms: C_19  and  C_20 
REMARK   11  A    between atoms: C_19  and  O_27 
REMARK   12  A    between atoms: C_23  and  O_26 
ROOT
HETATM    1  C   UNK N   1      26.295  21.173  -7.995  0.00  0.00     0.118 C 
ENDROOT
BRANCH   1   2
HETATM    2  C   UNK N   1      25.295  22.325  -7.952  0.00  0.00     0.058 C 
BRANCH   2   3
HETATM    3  C   UNK N   1      25.764  23.562  -7.239  0.00  0.00    -0.050 A 
HETATM    4  C   UNK N   1      25.976  23.472  -5.860  0.00  0.00     0.017 A 
HETATM    5  C   UNK N   1      26.372  24.589  -5.122  0.00  0.00    -0.028 A 
HETATM    6  C   UNK N   1      26.565  24.455  -3.651  0.00  0.00     0.051 C 
HETATM    7  C   UNK N   1      26.569  25.821  -5.764  0.00  0.00     0.075 A 
HETATM    8  C   UNK N   1      26.362  25.915  -7.150  0.00  0.00     0.044 A 
HETATM    9  C   UNK N   1      25.956  24.800  -7.890  0.00  0.00    -0.053 A 
HETATM   10  C   UNK N   1      25.730  24.963  -9.355  0.00  0.00     0.049 C 
BRANCH   7  11
HETATM   11  O   UNK N   1      26.941  26.903  -5.034  0.00  0.00    -0.340 OA
BRANCH  11  12
HETATM   12  C   UNK N   1      26.349  28.140  -5.159  0.00  0.00     0.285 C 
BRANCH  12  13
HETATM   13  C   UNK N   1      25.904  28.622  -3.820  0.00  0.00     0.164 C 
HETATM   14  O   UNK N   1      25.455  27.832  -3.007  0.00  0.00    -0.648 OA
BRANCH  13  15
HETATM   15  O   UNK N   1      26.007  29.927  -3.505  0.00  0.00    -0.775 OA
HETATM   16  H   UNK N   1      25.588  30.615  -3.982  0.00  0.00     0.167 HD
ENDBRANCH  13  15
ENDBRANCH  12  13
ENDBRANCH  11  12
ENDBRANCH   7  11
ENDBRANCH   2   3
ENDBRANCH   1   2
BRANCH   1  17
HETATM   17  N   UNK N   1      27.610  21.588  -8.461  0.00  0.00    -0.414 N 
HETATM   18  H   UNK N   1      27.835  22.081  -9.325  0.00  0.00     0.153 HD
BRANCH  17  19
HETATM   19  C   UNK N   1      28.537  21.145  -7.428  0.00  0.00     0.105 C 
HETATM   20  C   UNK N   1      29.091  19.782  -7.804  0.00  0.00     0.035 C 
BRANCH  19  21
HETATM   21  C   UNK N   1      29.658  22.173  -7.195  0.00  0.00     0.173 C 
BRANCH  21  22
HETATM   22  C   UNK N   1      29.910  22.379  -5.719  0.00  0.00    -0.028 A 
HETATM   23  C   UNK N   1      29.882  23.668  -5.161  0.00  0.00     0.012 A 
HETATM   24  C   UNK N   1      30.109  23.855  -3.796  0.00  0.00     0.037 A 
HETATM   25  C   UNK N   1      30.374  22.757  -2.976  0.00  0.00     0.065 A 
HETATM   26  C   UNK N   1      30.412  21.471  -3.521  0.00  0.00     0.037 A 
HETATM   27  C   UNK N   1      30.182  21.283  -4.888  0.00  0.00     0.012 A 
BRANCH  25  28
HETATM   28  O   UNK N   1      30.591  22.937  -1.663  0.00  0.00    -0.361 OA
HETATM   29  H   UNK N   1      30.175  23.609  -1.160  0.00  0.00     0.217 HD
ENDBRANCH  25  28
ENDBRANCH  21  22
BRANCH  21  30
HETATM   30  O   UNK N   1      29.318  23.390  -7.799  0.00  0.00    -0.389 OA
HETATM   31  H   UNK N   1      29.170  24.202  -7.289  0.00  0.00     0.210 HD
ENDBRANCH  21  30
ENDBRANCH  19  21
ENDBRANCH  17  19
ENDBRANCH   1  17
TORSDOF 12
ENDMDL
MODEL 3
REMARK VINA RESULT:      -6.6      5.680      9.281
REMARK  12 active torsions:
REMARK  status: ('A' for Active; 'I' for Inactive)
REMARK    1  A    between atoms: C_4  and  C_14 
REMARK    2  A    between atoms: C_7  and  O_8 
REMARK    3  A    between atoms: O_8  and  C_9 
REMARK    4  A    between atoms: C_9  and  C_10 
REMARK    5  A    between atoms: C_10  and  O_12 
REMARK    6  A    between atoms: C_14  and  C_15 
REMARK    7  A    between atoms: C_15  and  N_16 
REMARK    8  A    between atoms: N_16  and  C_17 
REMARK    9  A    between atoms: C_17  and  C_19 
REMARK   10  A    between atoms: C_19  and  C_20 
REMARK   11  A    between atoms: C_19  and  O_27 
REMARK   12  A    between atoms: C_23  and  O_26 
ROOT
HETATM    1  C   UNK N   1      21.432  14.844   5.535  0.00  0.00     0.118 C 
ENDROOT
BRANCH   1   2
HETATM    2  C   UNK N   1      20.529  14.080   6.498  0.00  0.00     0.058 C 
BRANCH   2   3
HETATM    3  C   UNK N   1      21.223  13.448   7.672  0.00  0.00    -0.050 A 
HETATM    4  C   UNK N   1      22.119  12.408   7.409  0.00  0.00     0.017 A 
HETATM    5  C   UNK N   1      22.772  11.745   8.450  0.00  0.00    -0.028 A 
HETATM    6  C   UNK N   1      23.702  10.627   8.127  0.00  0.00     0.051 C 
HETATM    7  C   UNK N   1      22.536  12.122   9.780  0.00  0.00     0.075 A 
HETATM    8  C   UNK N   1      21.639  13.170  10.049  0.00  0.00     0.044 A 
HETATM    9  C   UNK N   1      20.978  13.830   9.009  0.00  0.00    -0.053 A 
HETATM   10  C   UNK N   1      20.021  14.920   9.354  0.00  0.00     0.049 C 
BRANCH   7  11
HETATM   11  O   UNK N   1      23.165  11.460  10.784  0.00  0.00    -0.340 OA
BRANCH  11  12
HETATM   12  C   UNK N   1      23.953  12.086  11.725  0.00  0.00     0.285 C 
BRANCH  12  13
HETATM   13  C   UNK N   1      23.363  11.892  13.081  0.00  0.00     0.164 C 
HETATM   14  O   UNK N   1      23.887  12.411  14.052  0.00  0.00    -0.648 OA
BRANCH  13  15
HETATM   15  O   UNK N   1      22.247  11.154  13.232  0.00  0.00    -0.775 OA
HETATM   16  H   UNK N   1      22.242  10.220  13.286  0.00  0.00     0.167 HD
ENDBRANCH  13  15
ENDBRANCH  12  13
ENDBRANCH  11  12
ENDBRANCH   7  11
ENDBRANCH   2   3
ENDBRANCH   1   2
BRANCH   1  17
HETATM   17  N   UNK N   1      22.200  15.891   6.194  0.00  0.00    -0.414 N 
HETATM   18  H   UNK N   1      23.008  15.775   6.806  0.00  0.00     0.153 HD
BRANCH  17  19
HETATM   19  C   UNK N   1      21.565  17.139   5.794  0.00  0.00     0.105 C 
HETATM   20  C   UNK N   1      20.905  17.775   7.005  0.00  0.00     0.035 C 
BRANCH  19  21
HETATM   21  C   UNK N   1      22.567  18.094   5.122  0.00  0.00     0.173 C 
BRANCH  21  22
HETATM   22  C   UNK N   1      21.938  18.801   3.944  0.00  0.00    -0.028 A 
HETATM   23  C   UNK N   1      22.600  19.869   3.313  0.00  0.00     0.012 A 
HETATM   24  C   UNK N   1      22.019  20.517   2.221  0.00  0.00     0.037 A 
HETATM   25  C   UNK N   1      20.769  20.110   1.752  0.00  0.00     0.065 A 
HETATM   26  C   UNK N   1      20.098  19.055   2.376  0.00  0.00     0.037 A 
HETATM   27  C   UNK N   1      20.680  18.404   3.468  0.00  0.00     0.012 A 
BRANCH  25  28
HETATM   28  O   UNK N   1      20.212  20.733   0.701  0.00  0.00    -0.361 OA
HETATM   29  H   UNK N   1      19.798  20.279  -0.006  0.00  0.00     0.217 HD
ENDBRANCH  25  28
ENDBRANCH  21  22
BRANCH  21  30
HETATM   30  O   UNK N   1      23.696  17.378   4.705  0.00  0.00    -0.389 OA
HETATM   31  H   UNK N   1      24.600  17.653   4.929  0.00  0.00     0.210 HD
ENDBRANCH  21  30
ENDBRANCH  19  21
ENDBRANCH  17  19
ENDBRANCH   1  17
TORSDOF 12
ENDMDL
MODEL 4
REMARK VINA RESULT:      -6.6      1.909      3.040
REMARK  12 active torsions:
REMARK  status: ('A' for Active; 'I' for Inactive)
REMARK    1  A    between atoms: C_4  and  C_14 
REMARK    2  A    between atoms: C_7  and  O_8 
REMARK    3  A    between atoms: O_8  and  C_9 
REMARK    4  A    between atoms: C_9  and  C_10 
REMARK    5  A    between atoms: C_10  and  O_12 
REMARK    6  A    between atoms: C_14  and  C_15 
REMARK    7  A    between atoms: C_15  and  N_16 
REMARK    8  A    between atoms: N_16  and  C_17 
REMARK    9  A    between atoms: C_17  and  C_19 
REMARK   10  A    between atoms: C_19  and  C_20 
REMARK   11  A    between atoms: C_19  and  O_27 
REMARK   12  A    between atoms: C_23  and  O_26 
ROOT
HETATM    1  C   UNK N   1      27.266  16.754   3.442  0.00  0.00     0.118 C 
ENDROOT
BRANCH   1   2
HETATM    2  C   UNK N   1      26.608  17.470   4.617  0.00  0.00     0.058 C 
BRANCH   2   3
HETATM    3  C   UNK N   1      25.338  18.208   4.297  0.00  0.00    -0.050 A 
HETATM    4  C   UNK N   1      24.130  17.538   4.510  0.00  0.00     0.017 A 
HETATM    5  C   UNK N   1      22.911  18.143   4.197  0.00  0.00    -0.028 A 
HETATM    6  C   UNK N   1      21.648  17.385   4.419  0.00  0.00     0.051 C 
HETATM    7  C   UNK N   1      22.887  19.442   3.667  0.00  0.00     0.075 A 
HETATM    8  C   UNK N   1      24.098  20.121   3.455  0.00  0.00     0.044 A 
HETATM    9  C   UNK N   1      25.321  19.514   3.760  0.00  0.00    -0.053 A 
HETATM   10  C   UNK N   1      26.577  20.273   3.494  0.00  0.00     0.049 C 
BRANCH   7  11
HETATM   11  O   UNK N   1      21.696  20.013   3.354  0.00  0.00    -0.340 OA
BRANCH  11  12
HETATM   12  C   UNK N   1      21.537  20.915   2.326  0.00  0.00     0.285 C 
BRANCH  12  13
HETATM   13  C   UNK N   1      20.934  20.230   1.147  0.00  0.00     0.164 C 
HETATM   14  O   UNK N   1      21.084  20.696   0.030  0.00  0.00    -0.648 OA
BRANCH  13  15
HETATM   15  O   UNK N   1      20.233  19.093   1.314  0.00  0.00    -0.775 OA
HETATM   16  H   UNK N   1      19.299  19.059   1.384  0.00  0.00     0.167 HD
ENDBRANCH  13  15
ENDBRANCH  12  13
ENDBRANCH  11  12
ENDBRANCH   7  11
ENDBRANCH   2   3
ENDBRANCH   1   2
BRANCH   1  17
HETATM   17  N   UNK N   1      28.698  17.000   3.364  0.00  0.00    -0.414 N 
HETATM   18  H   UNK N   1      29.194  17.569   2.678  0.00  0.00     0.153 HD
BRANCH  17  19
HETATM   19  C   UNK N   1      29.274  16.255   4.476  0.00  0.00     0.105 C 
HETATM   20  C   UNK N   1      29.547  14.829   4.035  0.00  0.00     0.035 C 
BRANCH  19  21
HETATM   21  C   UNK N   1      30.540  16.939   5.020  0.00  0.00     0.173 C 
BRANCH  21  22
HETATM   22  C   UNK N   1      30.339  17.405   6.444  0.00  0.00    -0.028 A 
HETATM   23  C   UNK N   1      31.382  17.313   7.381  0.00  0.00     0.012 A 
HETATM   24  C   UNK N   1      31.195  17.750   8.694  0.00  0.00     0.037 A 
HETATM   25  C   UNK N   1      29.963  18.276   9.086  0.00  0.00     0.065 A 
HETATM   26  C   UNK N   1      28.916  18.365   8.165  0.00  0.00     0.037 A 
HETATM   27  C   UNK N   1      29.103  17.930   6.849  0.00  0.00     0.012 A 
BRANCH  25  28
HETATM   28  O   UNK N   1      29.784  18.697  10.349  0.00  0.00    -0.361 OA
HETATM   29  H   UNK N   1      28.943  18.898  10.710  0.00  0.00     0.217 HD
ENDBRANCH  25  28
ENDBRANCH  21  22
BRANCH  21  30
HETATM   30  O   UNK N   1      30.881  18.024   4.203  0.00  0.00    -0.389 OA
HETATM   31  H   UNK N   1      30.334  18.303   3.452  0.00  0.00     0.210 HD
ENDBRANCH  21  30
ENDBRANCH  19  21
ENDBRANCH  17  19
ENDBRANCH   1  17
TORSDOF 12
ENDMDL
MODEL 5
REMARK VINA RESULT:      -6.5      7.643     10.452
REMARK  12 active torsions:
REMARK  status: ('A' for Active; 'I' for Inactive)
REMARK    1  A    between atoms: C_4  and  C_14 
REMARK    2  A    between atoms: C_7  and  O_8 
REMARK    3  A    between atoms: O_8  and  C_9 
REMARK    4  A    between atoms: C_9  and  C_10 
REMARK    5  A    between atoms: C_10  and  O_12 
REMARK    6  A    between atoms: C_14  and  C_15 
REMARK    7  A    between atoms: C_15  and  N_16 
REMARK    8  A    between atoms: N_16  and  C_17 
REMARK    9  A    between atoms: C_17  and  C_19 
REMARK   10  A    between atoms: C_19  and  C_20 
REMARK   11  A    between atoms: C_19  and  O_27 
REMARK   12  A    between atoms: C_23  and  O_26 
ROOT
HETATM    1  C   UNK N   1      34.672  16.851   8.867  0.00  0.00     0.118 C 
ENDROOT
BRANCH   1   2
HETATM    2  C   UNK N   1      33.985  18.011   8.154  0.00  0.00     0.058 C 
BRANCH   2   3
HETATM    3  C   UNK N   1      32.558  17.766   7.746  0.00  0.00    -0.050 A 
HETATM    4  C   UNK N   1      31.569  17.954   8.715  0.00  0.00     0.017 A 
HETATM    5  C   UNK N   1      30.226  17.706   8.423  0.00  0.00    -0.028 A 
HETATM    6  C   UNK N   1      29.205  17.897   9.491  0.00  0.00     0.051 C 
HETATM    7  C   UNK N   1      29.854  17.269   7.143  0.00  0.00     0.075 A 
HETATM    8  C   UNK N   1      30.845  17.083   6.165  0.00  0.00     0.044 A 
HETATM    9  C   UNK N   1      32.192  17.322   6.457  0.00  0.00    -0.053 A 
HETATM   10  C   UNK N   1      33.204  17.088   5.386  0.00  0.00     0.049 C 
BRANCH   7  11
HETATM   11  O   UNK N   1      28.547  17.019   6.876  0.00  0.00    -0.340 OA
BRANCH  11  12
HETATM   12  C   UNK N   1      28.106  16.492   5.682  0.00  0.00     0.285 C 
BRANCH  12  13
HETATM   13  C   UNK N   1      27.171  17.449   5.026  0.00  0.00     0.164 C 
HETATM   14  O   UNK N   1      27.290  17.699   3.839  0.00  0.00    -0.648 OA
BRANCH  13  15
HETATM   15  O   UNK N   1      26.188  18.029   5.742  0.00  0.00    -0.775 OA
HETATM   16  H   UNK N   1      26.200  18.925   6.015  0.00  0.00     0.167 HD
ENDBRANCH  13  15
ENDBRANCH  12  13
ENDBRANCH  11  12
ENDBRANCH   7  11
ENDBRANCH   2   3
ENDBRANCH   1   2
BRANCH   1  17
HETATM   17  N   UNK N   1      34.775  17.057  10.305  0.00  0.00    -0.414 N 
HETATM   18  H   UNK N   1      34.824  17.946  10.802  0.00  0.00     0.153 HD
BRANCH  17  19
HETATM   19  C   UNK N   1      34.793  15.719  10.881  0.00  0.00     0.105 C 
HETATM   20  C   UNK N   1      33.768  14.854  10.169  0.00  0.00     0.035 C 
BRANCH  19  21
HETATM   21  C   UNK N   1      36.200  15.099  10.828  0.00  0.00     0.173 C 
BRANCH  21  22
HETATM   22  C   UNK N   1      36.424  14.158  11.989  0.00  0.00    -0.028 A 
HETATM   23  C   UNK N   1      36.921  12.862  11.775  0.00  0.00     0.012 A 
HETATM   24  C   UNK N   1      37.133  11.996  12.850  0.00  0.00     0.037 A 
HETATM   25  C   UNK N   1      36.845  12.415  14.150  0.00  0.00     0.065 A 
HETATM   26  C   UNK N   1      36.343  13.700  14.375  0.00  0.00     0.037 A 
HETATM   27  C   UNK N   1      36.132  14.567  13.299  0.00  0.00     0.012 A 
BRANCH  25  28
HETATM   28  O   UNK N   1      37.050  11.583  15.184  0.00  0.00    -0.361 OA
HETATM   29  H   UNK N   1      37.334  11.872  16.028  0.00  0.00     0.217 HD
ENDBRANCH  25  28
ENDBRANCH  21  22
BRANCH  21  30
HETATM   30  O   UNK N   1      37.165  16.114  10.838  0.00  0.00    -0.389 OA
HETATM   31  H   UNK N   1      36.950  17.041  10.649  0.00  0.00     0.210 HD
ENDBRANCH  21  30
ENDBRANCH  19  21
ENDBRANCH  17  19
ENDBRANCH   1  17
TORSDOF 12
ENDMDL
MODEL 6
REMARK VINA RESULT:      -6.5      7.438      9.878
REMARK  12 active torsions:
REMARK  status: ('A' for Active; 'I' for Inactive)
REMARK    1  A    between atoms: C_4  and  C_14 
REMARK    2  A    between atoms: C_7  and  O_8 
REMARK    3  A    between atoms: O_8  and  C_9 
REMARK    4  A    between atoms: C_9  and  C_10 
REMARK    5  A    between atoms: C_10  and  O_12 
REMARK    6  A    between atoms: C_14  and  C_15 
REMARK    7  A    between atoms: C_15  and  N_16 
REMARK    8  A    between atoms: N_16  and  C_17 
REMARK    9  A    between atoms: C_17  and  C_19 
REMARK   10  A    between atoms: C_19  and  C_20 
REMARK   11  A    between atoms: C_19  and  O_27 
REMARK   12  A    between atoms: C_23  and  O_26 
ROOT
HETATM    1  C   UNK N   1      34.721  17.703   8.649  0.00  0.00     0.118 C 
ENDROOT
BRANCH   1   2
HETATM    2  C   UNK N   1      33.524  18.396   8.005  0.00  0.00     0.058 C 
BRANCH   2   3
HETATM    3  C   UNK N   1      32.739  17.560   7.032  0.00  0.00    -0.050 A 
HETATM    4  C   UNK N   1      33.274  17.384   5.753  0.00  0.00     0.017 A 
HETATM    5  C   UNK N   1      32.584  16.655   4.783  0.00  0.00    -0.028 A 
HETATM    6  C   UNK N   1      33.178  16.511   3.425  0.00  0.00     0.051 C 
HETATM    7  C   UNK N   1      31.339  16.082   5.087  0.00  0.00     0.075 A 
HETATM    8  C   UNK N   1      30.801  16.252   6.374  0.00  0.00     0.044 A 
HETATM    9  C   UNK N   1      31.486  16.989   7.345  0.00  0.00    -0.053 A 
HETATM   10  C   UNK N   1      30.857  17.155   8.686  0.00  0.00     0.049 C 
BRANCH   7  11
HETATM   11  O   UNK N   1      30.672  15.387   4.132  0.00  0.00    -0.340 OA
BRANCH  11  12
HETATM   12  C   UNK N   1      29.740  14.414   4.416  0.00  0.00     0.285 C 
BRANCH  12  13
HETATM   13  C   UNK N   1      30.324  13.068   4.156  0.00  0.00     0.164 C 
HETATM   14  O   UNK N   1      31.152  12.924   3.272  0.00  0.00    -0.648 OA
BRANCH  13  15
HETATM   15  O   UNK N   1      29.948  12.014   4.905  0.00  0.00    -0.775 OA
HETATM   16  H   UNK N   1      30.007  11.989   5.839  0.00  0.00     0.167 HD
ENDBRANCH  13  15
ENDBRANCH  12  13
ENDBRANCH  11  12
ENDBRANCH   7  11
ENDBRANCH   2   3
ENDBRANCH   1   2
BRANCH   1  17
HETATM   17  N   UNK N   1      34.408  17.135   9.952  0.00  0.00    -0.414 N 
HETATM   18  H   UNK N   1      33.790  17.522  10.665  0.00  0.00     0.153 HD
BRANCH  17  19
HETATM   19  C   UNK N   1      35.167  15.893  10.020  0.00  0.00     0.105 C 
HETATM   20  C   UNK N   1      35.949  15.856  11.320  0.00  0.00     0.035 C 
BRANCH  19  21
HETATM   21  C   UNK N   1      34.257  14.663   9.865  0.00  0.00     0.173 C 
BRANCH  21  22
HETATM   22  C   UNK N   1      34.152  14.243   8.417  0.00  0.00    -0.028 A 
HETATM   23  C   UNK N   1      32.999  13.595   7.941  0.00  0.00     0.012 A 
HETATM   24  C   UNK N   1      32.902  13.213   6.601  0.00  0.00     0.037 A 
HETATM   25  C   UNK N   1      33.959  13.467   5.725  0.00  0.00     0.065 A 
HETATM   26  C   UNK N   1      35.113  14.104   6.189  0.00  0.00     0.037 A 
HETATM   27  C   UNK N   1      35.210  14.489   7.530  0.00  0.00     0.012 A 
BRANCH  25  28
HETATM   28  O   UNK N   1      33.865  13.101   4.436  0.00  0.00    -0.361 OA
HETATM   29  H   UNK N   1      33.950  13.702   3.723  0.00  0.00     0.217 HD
ENDBRANCH  25  28
ENDBRANCH  21  22
BRANCH  21  30
HETATM   30  O   UNK N   1      32.984  14.948  10.375  0.00  0.00    -0.389 OA
HETATM   31  H   UNK N   1      32.257  14.307  10.352  0.00  0.00     0.210 HD
ENDBRANCH  21  30
ENDBRANCH  19  21
ENDBRANCH  17  19
ENDBRANCH   1  17
TORSDOF 12
ENDMDL
MODEL 7
REMARK VINA RESULT:      -6.5      3.230      7.841
REMARK  12 active torsions:
REMARK  status: ('A' for Active; 'I' for Inactive)
REMARK    1  A    between atoms: C_4  and  C_14 
REMARK    2  A    between atoms: C_7  and  O_8 
REMARK    3  A    between atoms: O_8  and  C_9 
REMARK    4  A    between atoms: C_9  and  C_10 
REMARK    5  A    between atoms: C_10  and  O_12 
REMARK    6  A    between atoms: C_14  and  C_15 
REMARK    7  A    between atoms: C_15  and  N_16 
REMARK    8  A    between atoms: N_16  and  C_17 
REMARK    9  A    between atoms: C_17  and  C_19 
REMARK   10  A    between atoms: C_19  and  C_20 
REMARK   11  A    between atoms: C_19  and  O_27 
REMARK   12  A    between atoms: C_23  and  O_26 
ROOT
HETATM    1  C   UNK N   1      26.464  15.196   5.630  0.00  0.00     0.118 C 
ENDROOT
BRANCH   1   2
HETATM    2  C   UNK N   1      26.791  16.409   6.495  0.00  0.00     0.058 C 
BRANCH   2   3
HETATM    3  C   UNK N   1      28.251  16.620   6.786  0.00  0.00    -0.050 A 
HETATM    4  C   UNK N   1      29.172  15.883   6.037  0.00  0.00     0.017 A 
HETATM    5  C   UNK N   1      30.543  15.995   6.277  0.00  0.00    -0.028 A 
HETATM    6  C   UNK N   1      31.490  15.174   5.472  0.00  0.00     0.051 C 
HETATM    7  C   UNK N   1      31.013  16.860   7.277  0.00  0.00     0.075 A 
HETATM    8  C   UNK N   1      30.090  17.606   8.030  0.00  0.00     0.044 A 
HETATM    9  C   UNK N   1      28.716  17.490   7.797  0.00  0.00    -0.053 A 
HETATM   10  C   UNK N   1      27.782  18.290   8.640  0.00  0.00     0.049 C 
BRANCH   7  11
HETATM   11  O   UNK N   1      32.346  16.950   7.511  0.00  0.00    -0.340 OA
BRANCH  11  12
HETATM   12  C   UNK N   1      32.911  17.916   8.314  0.00  0.00     0.285 C 
BRANCH  12  13
HETATM   13  C   UNK N   1      34.240  18.310   7.766  0.00  0.00     0.164 C 
HETATM   14  O   UNK N   1      34.954  19.075   8.392  0.00  0.00    -0.648 OA
BRANCH  13  15
HETATM   15  O   UNK N   1      34.657  17.813   6.586  0.00  0.00    -0.775 OA
HETATM   16  H   UNK N   1      34.444  16.956   6.275  0.00  0.00     0.167 HD
ENDBRANCH  13  15
ENDBRANCH  12  13
ENDBRANCH  11  12
ENDBRANCH   7  11
ENDBRANCH   2   3
ENDBRANCH   1   2
BRANCH   1  17
HETATM   17  N   UNK N   1      25.524  15.504   4.562  0.00  0.00    -0.414 N 
HETATM   18  H   UNK N   1      24.541  15.238   4.505  0.00  0.00     0.153 HD
BRANCH  17  19
HETATM   19  C   UNK N   1      26.289  16.275   3.591  0.00  0.00     0.105 C 
HETATM   20  C   UNK N   1      26.480  15.447   2.333  0.00  0.00     0.035 C 
BRANCH  19  21
HETATM   21  C   UNK N   1      25.621  17.628   3.289  0.00  0.00     0.173 C 
BRANCH  21  22
HETATM   22  C   UNK N   1      26.231  18.733   4.120  0.00  0.00    -0.028 A 
HETATM   23  C   UNK N   1      27.616  18.969   4.092  0.00  0.00     0.012 A 
HETATM   24  C   UNK N   1      28.176  19.995   4.856  0.00  0.00     0.037 A 
HETATM   25  C   UNK N   1      27.359  20.792   5.660  0.00  0.00     0.065 A 
HETATM   26  C   UNK N   1      25.982  20.562   5.702  0.00  0.00     0.037 A 
HETATM   27  C   UNK N   1      25.420  19.536   4.935  0.00  0.00     0.012 A 
BRANCH  25  28
HETATM   28  O   UNK N   1      27.898  21.780   6.394  0.00  0.00    -0.361 OA
HETATM   29  H   UNK N   1      28.297  21.640   7.230  0.00  0.00     0.217 HD
ENDBRANCH  25  28
ENDBRANCH  21  22
BRANCH  21  30
HETATM   30  O   UNK N   1      24.245  17.543   3.538  0.00  0.00    -0.389 OA
HETATM   31  H   UNK N   1      23.790  16.696   3.668  0.00  0.00     0.210 HD
ENDBRANCH  21  30
ENDBRANCH  19  21
ENDBRANCH  17  19
ENDBRANCH   1  17
TORSDOF 12
ENDMDL
MODEL 8
REMARK VINA RESULT:      -6.5     11.399     13.632
REMARK  12 active torsions:
REMARK  status: ('A' for Active; 'I' for Inactive)
REMARK    1  A    between atoms: C_4  and  C_14 
REMARK    2  A    between atoms: C_7  and  O_8 
REMARK    3  A    between atoms: O_8  and  C_9 
REMARK    4  A    between atoms: C_9  and  C_10 
REMARK    5  A    between atoms: C_10  and  O_12 
REMARK    6  A    between atoms: C_14  and  C_15 
REMARK    7  A    between atoms: C_15  and  N_16 
REMARK    8  A    between atoms: N_16  and  C_17 
REMARK    9  A    between atoms: C_17  and  C_19 
REMARK   10  A    between atoms: C_19  and  C_20 
REMARK   11  A    between atoms: C_19  and  O_27 
REMARK   12  A    between atoms: C_23  and  O_26 
ROOT
HETATM    1  C   UNK N   1      28.758  24.842  -7.879  0.00  0.00     0.118 C 
ENDROOT
BRANCH   1   2
HETATM    2  C   UNK N   1      29.645  24.845  -6.637  0.00  0.00     0.058 C 
BRANCH   2   3
HETATM    3  C   UNK N   1      29.520  26.056  -5.756  0.00  0.00    -0.050 A 
HETATM    4  C   UNK N   1      28.923  27.195  -6.304  0.00  0.00     0.017 A 
HETATM    5  C   UNK N   1      28.808  28.371  -5.561  0.00  0.00    -0.028 A 
HETATM    6  C   UNK N   1      28.185  29.569  -6.191  0.00  0.00     0.051 C 
HETATM    7  C   UNK N   1      29.290  28.420  -4.244  0.00  0.00     0.075 A 
HETATM    8  C   UNK N   1      29.887  27.276  -3.687  0.00  0.00     0.044 A 
HETATM    9  C   UNK N   1      30.010  26.099  -4.432  0.00  0.00    -0.053 A 
HETATM   10  C   UNK N   1      30.672  24.923  -3.799  0.00  0.00     0.049 C 
BRANCH   7  11
HETATM   11  O   UNK N   1      29.185  29.573  -3.537  0.00  0.00    -0.340 OA
BRANCH  11  12
HETATM   12  C   UNK N   1      29.835  29.790  -2.342  0.00  0.00     0.285 C 
BRANCH  12  13
HETATM   13  C   UNK N   1      28.836  29.965  -1.251  0.00  0.00     0.164 C 
HETATM   14  O   UNK N   1      27.741  29.436  -1.338  0.00  0.00    -0.648 OA
BRANCH  13  15
HETATM   15  O   UNK N   1      29.145  30.697  -0.164  0.00  0.00    -0.775 OA
HETATM   16  H   UNK N   1      29.801  31.365  -0.153  0.00  0.00     0.167 HD
ENDBRANCH  13  15
ENDBRANCH  12  13
ENDBRANCH  11  12
ENDBRANCH   7  11
ENDBRANCH   2   3
ENDBRANCH   1   2
BRANCH   1  17
HETATM   17  N   UNK N   1      27.779  23.764  -7.868  0.00  0.00    -0.414 N 
HETATM   18  H   UNK N   1      27.954  22.767  -7.987  0.00  0.00     0.153 HD
BRANCH  17  19
HETATM   19  C   UNK N   1      26.495  24.418  -7.653  0.00  0.00     0.105 C 
HETATM   20  C   UNK N   1      25.535  24.008  -8.755  0.00  0.00     0.035 C 
BRANCH  19  21
HETATM   21  C   UNK N   1      25.930  24.108  -6.256  0.00  0.00     0.173 C 
BRANCH  21  22
HETATM   22  C   UNK N   1      25.840  25.361  -5.415  0.00  0.00    -0.028 A 
HETATM   23  C   UNK N   1      26.364  25.387  -4.111  0.00  0.00     0.012 A 
HETATM   24  C   UNK N   1      26.285  26.547  -3.339  0.00  0.00     0.037 A 
HETATM   25  C   UNK N   1      25.676  27.691  -3.858  0.00  0.00     0.065 A 
HETATM   26  C   UNK N   1      25.145  27.675  -5.150  0.00  0.00     0.037 A 
HETATM   27  C   UNK N   1      25.226  26.514  -5.926  0.00  0.00     0.012 A 
BRANCH  25  28
HETATM   28  O   UNK N   1      25.601  28.808  -3.115  0.00  0.00    -0.361 OA
HETATM   29  H   UNK N   1      25.142  28.853  -2.300  0.00  0.00     0.217 HD
ENDBRANCH  25  28
ENDBRANCH  21  22
BRANCH  21  30
HETATM   30  O   UNK N   1      26.737  23.158  -5.618  0.00  0.00    -0.389 OA
HETATM   31  H   UNK N   1      26.372  22.369  -5.187  0.00  0.00     0.210 HD
ENDBRANCH  21  30
ENDBRANCH  19  21
ENDBRANCH  17  19
ENDBRANCH   1  17
TORSDOF 12
ENDMDL
MODEL 9
REMARK VINA RESULT:      -6.4      2.742      8.783
REMARK  12 active torsions:
REMARK  status: ('A' for Active; 'I' for Inactive)
REMARK    1  A    between atoms: C_4  and  C_14 
REMARK    2  A    between atoms: C_7  and  O_8 
REMARK    3  A    between atoms: O_8  and  C_9 
REMARK    4  A    between atoms: C_9  and  C_10 
REMARK    5  A    between atoms: C_10  and  O_12 
REMARK    6  A    between atoms: C_14  and  C_15 
REMARK    7  A    between atoms: C_15  and  N_16 
REMARK    8  A    between atoms: N_16  and  C_17 
REMARK    9  A    between atoms: C_17  and  C_19 
REMARK   10  A    between atoms: C_19  and  C_20 
REMARK   11  A    between atoms: C_19  and  O_27 
REMARK   12  A    between atoms: C_23  and  O_26 
ROOT
HETATM    1  C   UNK N   1      26.370  17.849   4.378  0.00  0.00     0.118 C 
ENDROOT
BRANCH   1   2
HETATM    2  C   UNK N   1      27.738  17.367   3.908  0.00  0.00     0.058 C 
BRANCH   2   3
HETATM    3  C   UNK N   1      28.814  17.348   4.959  0.00  0.00    -0.050 A 
HETATM    4  C   UNK N   1      28.464  17.757   6.248  0.00  0.00     0.017 A 
HETATM    5  C   UNK N   1      29.417  17.805   7.267  0.00  0.00    -0.028 A 
HETATM    6  C   UNK N   1      29.007  18.269   8.622  0.00  0.00     0.051 C 
HETATM    7  C   UNK N   1      30.745  17.435   7.005  0.00  0.00     0.075 A 
HETATM    8  C   UNK N   1      31.100  17.019   5.711  0.00  0.00     0.044 A 
HETATM    9  C   UNK N   1      30.149  16.978   4.687  0.00  0.00    -0.053 A 
HETATM   10  C   UNK N   1      30.587  16.549   3.327  0.00  0.00     0.049 C 
BRANCH   7  11
HETATM   11  O   UNK N   1      31.665  17.499   8.001  0.00  0.00    -0.340 OA
BRANCH  11  12
HETATM   12  C   UNK N   1      32.869  16.833   7.962  0.00  0.00     0.285 C 
BRANCH  12  13
HETATM   13  C   UNK N   1      33.970  17.799   7.686  0.00  0.00     0.164 C 
HETATM   14  O   UNK N   1      34.466  18.434   8.601  0.00  0.00    -0.648 OA
BRANCH  13  15
HETATM   15  O   UNK N   1      34.424  17.963   6.428  0.00  0.00    -0.775 OA
HETATM   16  H   UNK N   1      34.405  18.779   5.968  0.00  0.00     0.167 HD
ENDBRANCH  13  15
ENDBRANCH  12  13
ENDBRANCH  11  12
ENDBRANCH   7  11
ENDBRANCH   2   3
ENDBRANCH   1   2
BRANCH   1  17
HETATM   17  N   UNK N   1      25.684  18.657   3.380  0.00  0.00    -0.414 N 
HETATM   18  H   UNK N   1      25.734  18.562   2.365  0.00  0.00     0.153 HD
BRANCH  17  19
HETATM   19  C   UNK N   1      24.913  19.631   4.141  0.00  0.00     0.105 C 
HETATM   20  C   UNK N   1      25.849  20.412   5.046  0.00  0.00     0.035 C 
BRANCH  19  21
HETATM   21  C   UNK N   1      24.104  20.558   3.218  0.00  0.00     0.173 C 
BRANCH  21  22
HETATM   22  C   UNK N   1      22.696  20.043   3.029  0.00  0.00    -0.028 A 
HETATM   23  C   UNK N   1      21.823  20.662   2.117  0.00  0.00     0.012 A 
HETATM   24  C   UNK N   1      20.525  20.181   1.940  0.00  0.00     0.037 A 
HETATM   25  C   UNK N   1      20.082  19.081   2.676  0.00  0.00     0.065 A 
HETATM   26  C   UNK N   1      20.937  18.462   3.591  0.00  0.00     0.037 A 
HETATM   27  C   UNK N   1      22.239  18.942   3.767  0.00  0.00     0.012 A 
BRANCH  25  28
HETATM   28  O   UNK N   1      18.833  18.617   2.504  0.00  0.00    -0.361 OA
HETATM   29  H   UNK N   1      18.278  18.883   1.797  0.00  0.00     0.217 HD
ENDBRANCH  25  28
ENDBRANCH  21  22
BRANCH  21  30
HETATM   30  O   UNK N   1      24.745  20.669   1.978  0.00  0.00    -0.389 OA
HETATM   31  H   UNK N   1      25.711  20.713   1.892  0.00  0.00     0.210 HD
ENDBRANCH  21  30
ENDBRANCH  19  21
ENDBRANCH  17  19
ENDBRANCH   1  17
TORSDOF 12
ENDMDL
