REMARK  9 active torsions:
REMARK  status: ('A' for Active; 'I' for Inactive)
REMARK    1  A    between atoms: C_2  and  C_3 
REMARK    2  A    between atoms: C_4  and  N_36 
REMARK    3  A    between atoms: C_7  and  N_14 
REMARK    4  A    between atoms: C_8  and  C_11 
REMARK       I    between atoms: C_11  and  N_13 
REMARK    5  A    between atoms: N_14  and  C_15 
REMARK    6  A    between atoms: C_18  and  N_23 
REMARK    7  A    between atoms: C_19  and  O_21 
REMARK    8  A    between atoms: C_26  and  N_29 
REMARK    9  A    between atoms: N_36  and  C_37 
ROOT
HETATM    1  C   UNK N   1       1.116   0.522  -0.207  0.00  0.00     0.053 A 
HETATM    2  C   UNK N   1       2.235  -0.269   0.100  0.00  0.00     0.126 A 
HETATM    3  N   UNK N   1       2.057  -1.595   0.314  0.00  0.00    -0.325 N 
ATOM      4  HN  UNK N   1       2.870  -2.170   0.536  1.00  0.00     0.169 HD
HETATM    5  C   UNK N   1       0.833  -2.188   0.244  0.00  0.00     0.140 A 
HETATM    6  C   UNK N   1      -0.299  -1.388  -0.015  0.00  0.00     0.145 A 
HETATM    7  N   UNK N   1      -0.115  -0.057  -0.242  0.00  0.00    -0.349 N 
ATOM      8  HN  UNK N   1      -0.928   0.525  -0.444  1.00  0.00     0.166 HD
ENDROOT
BRANCH   5   9
HETATM    9  N   UNK N   1       0.727  -3.604   0.344  0.00  0.00    -0.340 N 
HETATM   10  H   UNK N   1      -0.094  -3.995   0.721  0.00  0.00     0.167 HD
BRANCH   9  11
HETATM   11  C   UNK N   1       1.769  -4.472  -0.081  0.00  0.00     0.036 A 
HETATM   12  C   UNK N   1       2.865  -3.970  -0.784  0.00  0.00     0.032 A 
HETATM   13  C   UNK N   1       3.895  -4.797  -1.183  0.00  0.00     0.034 A 
HETATM   14  C   UNK N   1       3.865  -6.167  -0.906  0.00  0.00     0.064 A 
HETATM   15  C   UNK N   1       2.720  -6.710  -0.257  0.00  0.00     0.096 A 
HETATM   16  C   UNK N   1       1.681  -5.846   0.149  0.00  0.00     0.068 A 
BRANCH  14  17
HETATM   17  N   UNK N   1       5.022  -6.960  -1.218  0.00  0.00    -0.379 N 
HETATM   18  C   UNK N   1       6.201  -6.293  -1.724  0.00  0.00     0.125 C 
HETATM   19  C   UNK N   1       6.939  -5.683  -0.529  0.00  0.00     0.055 C 
HETATM   20  C   UNK N   1       7.132  -6.703   0.624  0.00  0.00     0.226 C 
HETATM   21  C   UNK N   1       5.921  -7.625   0.887  0.00  0.00     0.055 C 
HETATM   22  C   UNK N   1       5.299  -8.125  -0.419  0.00  0.00     0.125 C 
BRANCH  20  23
HETATM   23  N   UNK N   1       8.384  -7.459   0.566  0.00  0.00     0.096 N 
HETATM   24  C   UNK N   1       9.522  -6.542   0.640  0.00  0.00     0.303 C 
HETATM   25  C   UNK N   1      10.812  -7.354   0.701  0.00  0.00     0.302 C 
HETATM   26  N   UNK N   1      10.924  -8.207  -0.483  0.00  0.00     0.087 N 
HETATM   27  C   UNK N   1       9.768  -9.100  -0.567  0.00  0.00     0.302 C 
HETATM   28  C   UNK N   1      12.092  -9.045  -0.290  0.00  0.00     0.310 C 
HETATM   29  C   UNK N   1       8.486  -8.279  -0.642  0.00  0.00     0.303 C 
ENDBRANCH  20  23
ENDBRANCH  14  17
BRANCH  15  30
HETATM   30  O   UNK N   1       2.634  -8.044  -0.029  0.00  0.00    -0.354 OA
HETATM   31  C   UNK N   1       1.536  -8.650   0.538  0.00  0.00     0.210 C 
ENDBRANCH  15  30
ENDBRANCH   9  11
ENDBRANCH   5   9
BRANCH   6  32
HETATM   32  C   UNK N   1      -1.675  -1.947  -0.110  0.00  0.00     0.269 C 
HETATM   33  O   UNK N   1      -2.603  -1.211  -0.405  0.00  0.00    -0.266 OA
HETATM   34  N   UNK N   1      -1.924  -3.250   0.133  0.00  0.00    -0.365 N 
HETATM   35  H   UNK N   1      -2.839  -3.568   0.310  0.00  0.00     0.159 HD
HETATM   36  H   UNK N   1      -1.179  -3.893   0.133  0.00  0.00     0.159 HD
ENDBRANCH   6  32
BRANCH   2  37
HETATM   37  N   UNK N   1       3.540   0.299   0.143  0.00  0.00    -0.370 N 
HETATM   38  H   UNK N   1       3.657   1.227  -0.166  0.00  0.00     0.161 HD
BRANCH  37  39
HETATM   39  C   UNK N   1       4.706  -0.418   0.619  0.00  0.00     0.087 C 
HETATM   40  C   UNK N   1       5.938   0.483   0.534  0.00  0.00     0.051 C 
HETATM   41  C   UNK N   1       7.176  -0.336   0.917  0.00  0.00     0.169 C 
HETATM   42  O   UNK N   1       7.326  -1.423   0.034  0.00  0.00    -0.391 OA
HETATM   43  C   UNK N   1       6.271  -2.312   0.305  0.00  0.00     0.169 C 
HETATM   44  C   UNK N   1       4.960  -1.696  -0.180  0.00  0.00     0.051 C 
ENDBRANCH  37  39
ENDBRANCH   2  37
BRANCH   1  45
HETATM   45  C   UNK N   1       1.245   1.976  -0.532  0.00  0.00     0.056 C 
HETATM   46  C   UNK N   1       1.748   2.771   0.657  0.00  0.00     0.011 C 
ENDBRANCH   1  45
TORSDOF 9
