MODEL 1
REMARK VINA RESULT:      -6.7      0.000      0.000
REMARK  4 active torsions:
REMARK  status: ('A' for Active; 'I' for Inactive)
REMARK    1  A    between atoms: C_12  and  C_10 
REMARK    2  A    between atoms: C_13  and  C_11 
REMARK    3  A    between atoms: C_16  and  C_11 
REMARK    4  A    between atoms: O_19  and  C_16 
ROOT
HETATM    1  C   UNK N   1      29.839  24.915  -3.923  0.00  0.00     0.012 A 
HETATM    2  C   UNK N   1      28.343  23.392  -2.802  0.00  0.00     0.012 A 
HETATM    3  C   UNK N   1      28.748  25.717  -4.278  0.00  0.00     0.009 A 
HETATM    4  C   UNK N   1      27.257  24.189  -3.153  0.00  0.00     0.009 A 
HETATM    5  C   UNK N   1      29.645  23.740  -3.181  0.00  0.00    -0.036 A 
HETATM    6  C   UNK N   1      27.446  25.358  -3.894  0.00  0.00    -0.044 A 
ENDROOT
BRANCH   5   7
HETATM    7  C   UNK N   1      30.832  22.919  -2.803  0.00  0.00     0.022 C 
HETATM    8  C   UNK N   1      31.413  21.961  -3.577  0.00  0.00    -0.011 C 
HETATM    9  C   UNK N   1      30.897  21.648  -4.965  0.00  0.00     0.042 C 
HETATM   10  C   UNK N   1      32.585  21.188  -3.057  0.00  0.00     0.155 C 
HETATM   11  C   UNK N   1      31.322  20.283  -5.482  0.00  0.00     0.005 C 
HETATM   12  C   UNK N   1      32.823  20.129  -5.346  0.00  0.00     0.008 C 
HETATM   13  C   UNK N   1      33.228  20.100  -3.876  0.00  0.00     0.083 C 
HETATM   14  O   UNK N   1      33.024  21.410  -1.938  0.00  0.00    -0.293 OA
ENDBRANCH   5   7
BRANCH   6  15
HETATM   15  C   UNK N   1      26.251  26.202  -4.261  0.00  0.00     0.112 C 
HETATM   16  C   UNK N   1      25.425  25.817  -5.485  0.00  0.00     0.026 C 
BRANCH  15  17
HETATM   17  C   UNK N   1      25.829  27.426  -3.486  0.00  0.00     0.148 C 
HETATM   18  O   UNK N   1      26.120  27.534  -2.312  0.00  0.00    -0.649 OA
BRANCH  17  19
HETATM   19  O   UNK N   1      25.125  28.409  -4.087  0.00  0.00    -0.776 OA
HETATM   20  H   UNK N   1      25.525  28.932  -4.752  0.00  0.00     0.167 HD
ENDBRANCH  17  19
ENDBRANCH  15  17
ENDBRANCH   6  15
TORSDOF 4
ENDMDL
MODEL 2
REMARK VINA RESULT:      -6.6     10.532     13.635
REMARK  4 active torsions:
REMARK  status: ('A' for Active; 'I' for Inactive)
REMARK    1  A    between atoms: C_12  and  C_10 
REMARK    2  A    between atoms: C_13  and  C_11 
REMARK    3  A    between atoms: C_16  and  C_11 
REMARK    4  A    between atoms: O_19  and  C_16 
ROOT
HETATM    1  C   UNK N   1      30.043  16.571   5.936  0.00  0.00     0.012 A 
HETATM    2  C   UNK N   1      29.389  17.902   7.838  0.00  0.00     0.012 A 
HETATM    3  C   UNK N   1      31.359  16.548   6.412  0.00  0.00     0.009 A 
HETATM    4  C   UNK N   1      30.697  17.879   8.314  0.00  0.00     0.009 A 
HETATM    5  C   UNK N   1      29.044  17.252   6.646  0.00  0.00    -0.036 A 
HETATM    6  C   UNK N   1      31.696  17.203   7.607  0.00  0.00    -0.044 A 
ENDROOT
BRANCH   5   7
HETATM    7  C   UNK N   1      27.647  17.240   6.120  0.00  0.00     0.022 C 
HETATM    8  C   UNK N   1      27.104  18.174   5.290  0.00  0.00    -0.011 C 
HETATM    9  C   UNK N   1      27.916  19.345   4.782  0.00  0.00     0.042 C 
HETATM   10  C   UNK N   1      25.674  18.055   4.864  0.00  0.00     0.155 C 
HETATM   11  C   UNK N   1      27.069  20.506   4.286  0.00  0.00     0.005 C 
HETATM   12  C   UNK N   1      26.046  20.003   3.289  0.00  0.00     0.008 C 
HETATM   13  C   UNK N   1      25.036  19.088   3.973  0.00  0.00     0.083 C 
HETATM   14  O   UNK N   1      24.987  17.124   5.260  0.00  0.00    -0.293 OA
ENDBRANCH   5   7
BRANCH   6  15
HETATM   15  C   UNK N   1      33.104  17.195   8.146  0.00  0.00     0.112 C 
HETATM   16  C   UNK N   1      33.437  16.285   9.325  0.00  0.00     0.026 C 
BRANCH  15  17
HETATM   17  C   UNK N   1      34.212  18.055   7.589  0.00  0.00     0.148 C 
HETATM   18  O   UNK N   1      34.571  17.915   6.436  0.00  0.00    -0.649 OA
BRANCH  17  19
HETATM   19  O   UNK N   1      34.814  18.984   8.361  0.00  0.00    -0.776 OA
HETATM   20  H   UNK N   1      35.142  18.749   9.206  0.00  0.00     0.167 HD
ENDBRANCH  17  19
ENDBRANCH  15  17
ENDBRANCH   6  15
TORSDOF 4
ENDMDL
MODEL 3
REMARK VINA RESULT:      -6.5      9.617     10.806
REMARK  4 active torsions:
REMARK  status: ('A' for Active; 'I' for Inactive)
REMARK    1  A    between atoms: C_12  and  C_10 
REMARK    2  A    between atoms: C_13  and  C_11 
REMARK    3  A    between atoms: C_16  and  C_11 
REMARK    4  A    between atoms: O_19  and  C_16 
ROOT
HETATM    1  C   UNK N   1      28.190  19.435   4.700  0.00  0.00     0.012 A 
HETATM    2  C   UNK N   1      27.568  17.210   4.012  0.00  0.00     0.012 A 
HETATM    3  C   UNK N   1      26.884  19.872   4.450  0.00  0.00     0.009 A 
HETATM    4  C   UNK N   1      26.268  17.642   3.763  0.00  0.00     0.009 A 
HETATM    5  C   UNK N   1      28.545  18.096   4.481  0.00  0.00    -0.036 A 
HETATM    6  C   UNK N   1      25.912  18.976   3.978  0.00  0.00    -0.044 A 
ENDROOT
BRANCH   5   7
HETATM    7  C   UNK N   1      29.941  17.660   4.777  0.00  0.00     0.022 C 
HETATM    8  C   UNK N   1      30.435  17.368   6.012  0.00  0.00    -0.011 C 
HETATM    9  C   UNK N   1      29.563  17.437   7.247  0.00  0.00     0.042 C 
HETATM   10  C   UNK N   1      31.870  16.971   6.170  0.00  0.00     0.155 C 
HETATM   11  C   UNK N   1      30.349  17.554   8.544  0.00  0.00     0.005 C 
HETATM   12  C   UNK N   1      31.398  16.463   8.606  0.00  0.00     0.008 C 
HETATM   13  C   UNK N   1      32.454  16.672   7.525  0.00  0.00     0.083 C 
HETATM   14  O   UNK N   1      32.605  16.910   5.194  0.00  0.00    -0.293 OA
ENDBRANCH   5   7
BRANCH   6  15
HETATM   15  C   UNK N   1      24.497  19.416   3.700  0.00  0.00     0.112 C 
HETATM   16  C   UNK N   1      23.347  18.663   4.362  0.00  0.00     0.026 C 
BRANCH  15  17
HETATM   17  C   UNK N   1      24.148  20.564   2.783  0.00  0.00     0.148 C 
HETATM   18  O   UNK N   1      24.898  20.868   1.877  0.00  0.00    -0.649 OA
BRANCH  17  19
HETATM   19  O   UNK N   1      23.006  21.261   2.961  0.00  0.00    -0.776 OA
HETATM   20  H   UNK N   1      22.514  21.160   3.751  0.00  0.00     0.167 HD
ENDBRANCH  17  19
ENDBRANCH  15  17
ENDBRANCH   6  15
TORSDOF 4
ENDMDL
MODEL 4
REMARK VINA RESULT:      -6.4     23.895     26.538
REMARK  4 active torsions:
REMARK  status: ('A' for Active; 'I' for Inactive)
REMARK    1  A    between atoms: C_12  and  C_10 
REMARK    2  A    between atoms: C_13  and  C_11 
REMARK    3  A    between atoms: C_16  and  C_11 
REMARK    4  A    between atoms: O_19  and  C_16 
ROOT
HETATM    1  C   UNK N   1      35.042  12.563  18.792  0.00  0.00     0.012 A 
HETATM    2  C   UNK N   1      35.979  10.557  17.838  0.00  0.00     0.012 A 
HETATM    3  C   UNK N   1      35.165  13.203  17.553  0.00  0.00     0.009 A 
HETATM    4  C   UNK N   1      36.102  11.191  16.605  0.00  0.00     0.009 A 
HETATM    5  C   UNK N   1      35.451  11.231  18.946  0.00  0.00    -0.036 A 
HETATM    6  C   UNK N   1      35.698  12.520  16.449  0.00  0.00    -0.044 A 
ENDROOT
BRANCH   5   7
HETATM    7  C   UNK N   1      35.286  10.572  20.275  0.00  0.00     0.022 C 
HETATM    8  C   UNK N   1      34.349   9.633  20.584  0.00  0.00    -0.011 C 
HETATM    9  C   UNK N   1      33.364   9.131  19.550  0.00  0.00     0.042 C 
HETATM   10  C   UNK N   1      34.276   9.077  21.972  0.00  0.00     0.155 C 
HETATM   11  C   UNK N   1      32.129   8.479  20.149  0.00  0.00     0.005 C 
HETATM   12  C   UNK N   1      32.544   7.421  21.151  0.00  0.00     0.008 C 
HETATM   13  C   UNK N   1      33.231   8.061  22.353  0.00  0.00     0.083 C 
HETATM   14  O   UNK N   1      35.052   9.463  22.834  0.00  0.00    -0.293 OA
ENDBRANCH   5   7
BRANCH   6  15
HETATM   15  C   UNK N   1      35.844  13.182  15.102  0.00  0.00     0.112 C 
HETATM   16  C   UNK N   1      35.034  12.645  13.925  0.00  0.00     0.026 C 
BRANCH  15  17
HETATM   17  C   UNK N   1      36.764  14.350  14.845  0.00  0.00     0.148 C 
HETATM   18  O   UNK N   1      37.519  14.734  15.717  0.00  0.00    -0.649 OA
BRANCH  17  19
HETATM   19  O   UNK N   1      36.757  14.979  13.651  0.00  0.00    -0.776 OA
HETATM   20  H   UNK N   1      37.278  15.747  13.523  0.00  0.00     0.167 HD
ENDBRANCH  17  19
ENDBRANCH  15  17
ENDBRANCH   6  15
TORSDOF 4
ENDMDL
MODEL 5
REMARK VINA RESULT:      -6.4     20.950     23.702
REMARK  4 active torsions:
REMARK  status: ('A' for Active; 'I' for Inactive)
REMARK    1  A    between atoms: C_12  and  C_10 
REMARK    2  A    between atoms: C_13  and  C_11 
REMARK    3  A    between atoms: C_16  and  C_11 
REMARK    4  A    between atoms: O_19  and  C_16 
ROOT
HETATM    1  C   UNK N   1      36.537  14.261  15.830  0.00  0.00     0.012 A 
HETATM    2  C   UNK N   1      34.764  12.736  15.244  0.00  0.00     0.012 A 
HETATM    3  C   UNK N   1      36.787  14.484  14.472  0.00  0.00     0.009 A 
HETATM    4  C   UNK N   1      35.010  12.958  13.892  0.00  0.00     0.009 A 
HETATM    5  C   UNK N   1      35.522  13.380  16.230  0.00  0.00    -0.036 A 
HETATM    6  C   UNK N   1      36.024  13.833  13.490  0.00  0.00    -0.044 A 
ENDROOT
BRANCH   5   7
HETATM    7  C   UNK N   1      35.269  13.180  17.687  0.00  0.00     0.022 C 
HETATM    8  C   UNK N   1      35.418  12.008  18.364  0.00  0.00    -0.011 C 
HETATM    9  C   UNK N   1      35.902  10.752  17.671  0.00  0.00     0.042 C 
HETATM   10  C   UNK N   1      35.097  11.941  19.825  0.00  0.00     0.155 C 
HETATM   11  C   UNK N   1      35.562   9.472  18.417  0.00  0.00     0.005 C 
HETATM   12  C   UNK N   1      36.021   9.583  19.857  0.00  0.00     0.008 C 
HETATM   13  C   UNK N   1      35.222  10.652  20.594  0.00  0.00     0.083 C 
HETATM   14  O   UNK N   1      34.698  12.934  20.415  0.00  0.00    -0.293 OA
ENDBRANCH   5   7
BRANCH   6  15
HETATM   15  C   UNK N   1      36.268  14.053  12.019  0.00  0.00     0.112 C 
HETATM   16  C   UNK N   1      36.862  12.916  11.192  0.00  0.00     0.026 C 
BRANCH  15  17
HETATM   17  C   UNK N   1      35.970  15.353  11.312  0.00  0.00     0.148 C 
HETATM   18  O   UNK N   1      34.819  15.705  11.146  0.00  0.00    -0.649 OA
BRANCH  17  19
HETATM   19  O   UNK N   1      36.974  16.134  10.859  0.00  0.00    -0.776 OA
HETATM   20  H   UNK N   1      36.965  17.054  11.030  0.00  0.00     0.167 HD
ENDBRANCH  17  19
ENDBRANCH  15  17
ENDBRANCH   6  15
TORSDOF 4
ENDMDL
MODEL 6
REMARK VINA RESULT:      -6.3     20.039     22.805
REMARK  4 active torsions:
REMARK  status: ('A' for Active; 'I' for Inactive)
REMARK    1  A    between atoms: C_12  and  C_10 
REMARK    2  A    between atoms: C_13  and  C_11 
REMARK    3  A    between atoms: C_16  and  C_11 
REMARK    4  A    between atoms: O_19  and  C_16 
ROOT
HETATM    1  C   UNK N   1      36.501  13.407  14.565  0.00  0.00     0.012 A 
HETATM    2  C   UNK N   1      35.056  11.723  13.624  0.00  0.00     0.012 A 
HETATM    3  C   UNK N   1      36.270  14.220  13.450  0.00  0.00     0.009 A 
HETATM    4  C   UNK N   1      34.824  12.530  12.514  0.00  0.00     0.009 A 
HETATM    5  C   UNK N   1      35.896  12.146  14.661  0.00  0.00    -0.036 A 
HETATM    6  C   UNK N   1      35.428  13.786  12.414  0.00  0.00    -0.044 A 
ENDROOT
BRANCH   5   7
HETATM    7  C   UNK N   1      36.147  11.313  15.874  0.00  0.00     0.022 C 
HETATM    8  C   UNK N   1      35.813  11.650  17.150  0.00  0.00    -0.011 C 
HETATM    9  C   UNK N   1      35.099  12.947  17.463  0.00  0.00     0.042 C 
HETATM   10  C   UNK N   1      36.155  10.729  18.281  0.00  0.00     0.155 C 
HETATM   11  C   UNK N   1      35.230  13.382  18.914  0.00  0.00     0.005 C 
HETATM   12  C   UNK N   1      34.835  12.240  19.828  0.00  0.00     0.008 C 
HETATM   13  C   UNK N   1      35.828  11.088  19.706  0.00  0.00     0.083 C 
HETATM   14  O   UNK N   1      36.737   9.676  18.065  0.00  0.00    -0.293 OA
ENDBRANCH   5   7
BRANCH   6  15
HETATM   15  C   UNK N   1      35.160  14.640  11.200  0.00  0.00     0.112 C 
HETATM   16  C   UNK N   1      34.319  14.063  10.065  0.00  0.00     0.026 C 
BRANCH  15  17
HETATM   17  C   UNK N   1      35.692  16.043  11.036  0.00  0.00     0.148 C 
HETATM   18  O   UNK N   1      36.848  16.220  10.705  0.00  0.00    -0.649 OA
BRANCH  17  19
HETATM   19  O   UNK N   1      34.894  17.109  11.255  0.00  0.00    -0.776 OA
HETATM   20  H   UNK N   1      34.739  17.726  10.568  0.00  0.00     0.167 HD
ENDBRANCH  17  19
ENDBRANCH  15  17
ENDBRANCH   6  15
TORSDOF 4
ENDMDL
MODEL 7
REMARK VINA RESULT:      -6.3      9.592     10.711
REMARK  4 active torsions:
REMARK  status: ('A' for Active; 'I' for Inactive)
REMARK    1  A    between atoms: C_12  and  C_10 
REMARK    2  A    between atoms: C_13  and  C_11 
REMARK    3  A    between atoms: C_16  and  C_11 
REMARK    4  A    between atoms: O_19  and  C_16 
ROOT
HETATM    1  C   UNK N   1      26.845  17.138   5.202  0.00  0.00     0.012 A 
HETATM    2  C   UNK N   1      27.183  19.398   5.971  0.00  0.00     0.012 A 
HETATM    3  C   UNK N   1      25.705  17.552   4.503  0.00  0.00     0.009 A 
HETATM    4  C   UNK N   1      26.051  19.813   5.276  0.00  0.00     0.009 A 
HETATM    5  C   UNK N   1      27.595  18.060   5.947  0.00  0.00    -0.036 A 
HETATM    6  C   UNK N   1      25.299  18.896   4.535  0.00  0.00    -0.044 A 
ENDROOT
BRANCH   5   7
HETATM    7  C   UNK N   1      28.815  17.588   6.664  0.00  0.00     0.022 C 
HETATM    8  C   UNK N   1      30.055  17.455   6.116  0.00  0.00    -0.011 C 
HETATM    9  C   UNK N   1      30.322  17.816   4.671  0.00  0.00     0.042 C 
HETATM   10  C   UNK N   1      31.189  16.938   6.946  0.00  0.00     0.155 C 
HETATM   11  C   UNK N   1      31.580  17.178   4.103  0.00  0.00     0.005 C 
HETATM   12  C   UNK N   1      32.753  17.455   5.021  0.00  0.00     0.008 C 
HETATM   13  C   UNK N   1      32.564  16.750   6.360  0.00  0.00     0.083 C 
HETATM   14  O   UNK N   1      31.008  16.631   8.115  0.00  0.00    -0.293 OA
ENDBRANCH   5   7
BRANCH   6  15
HETATM   15  C   UNK N   1      24.077  19.373   3.792  0.00  0.00     0.112 C 
HETATM   16  C   UNK N   1      22.780  18.579   3.921  0.00  0.00     0.026 C 
BRANCH  15  17
HETATM   17  C   UNK N   1      24.066  20.596   2.907  0.00  0.00     0.148 C 
HETATM   18  O   UNK N   1      23.153  21.394   2.983  0.00  0.00    -0.649 OA
BRANCH  17  19
HETATM   19  O   UNK N   1      25.065  20.813   2.026  0.00  0.00    -0.776 OA
HETATM   20  H   UNK N   1      25.198  21.669   1.670  0.00  0.00     0.167 HD
ENDBRANCH  17  19
ENDBRANCH  15  17
ENDBRANCH   6  15
TORSDOF 4
ENDMDL
MODEL 8
REMARK VINA RESULT:      -6.3     11.461     12.835
REMARK  4 active torsions:
REMARK  status: ('A' for Active; 'I' for Inactive)
REMARK    1  A    between atoms: C_12  and  C_10 
REMARK    2  A    between atoms: C_13  and  C_11 
REMARK    3  A    between atoms: C_16  and  C_11 
REMARK    4  A    between atoms: O_19  and  C_16 
ROOT
HETATM    1  C   UNK N   1      29.282  17.819   8.276  0.00  0.00     0.012 A 
HETATM    2  C   UNK N   1      29.709  17.349   5.950  0.00  0.00     0.012 A 
HETATM    3  C   UNK N   1      28.259  18.698   7.905  0.00  0.00     0.009 A 
HETATM    4  C   UNK N   1      28.690  18.222   5.579  0.00  0.00     0.009 A 
HETATM    5  C   UNK N   1      30.021  17.136   7.299  0.00  0.00    -0.036 A 
HETATM    6  C   UNK N   1      27.955  18.906   6.551  0.00  0.00    -0.044 A 
ENDROOT
BRANCH   5   7
HETATM    7  C   UNK N   1      31.092  16.191   7.730  0.00  0.00     0.022 C 
HETATM    8  C   UNK N   1      32.346  16.543   8.130  0.00  0.00    -0.011 C 
HETATM    9  C   UNK N   1      32.773  17.993   8.201  0.00  0.00     0.042 C 
HETATM   10  C   UNK N   1      33.335  15.485   8.507  0.00  0.00     0.155 C 
HETATM   11  C   UNK N   1      34.281  18.186   8.193  0.00  0.00     0.005 C 
HETATM   12  C   UNK N   1      34.914  17.317   9.260  0.00  0.00     0.008 C 
HETATM   13  C   UNK N   1      34.739  15.840   8.922  0.00  0.00     0.083 C 
HETATM   14  O   UNK N   1      33.026  14.303   8.456  0.00  0.00    -0.293 OA
ENDBRANCH   5   7
BRANCH   6  15
HETATM   15  C   UNK N   1      26.857  19.846   6.120  0.00  0.00     0.112 C 
HETATM   16  C   UNK N   1      26.062  19.522   4.858  0.00  0.00     0.026 C 
BRANCH  15  17
HETATM   17  C   UNK N   1      26.505  21.111   6.865  0.00  0.00     0.148 C 
HETATM   18  O   UNK N   1      26.808  22.193   6.405  0.00  0.00    -0.649 OA
BRANCH  17  19
HETATM   19  O   UNK N   1      25.854  21.052   8.046  0.00  0.00    -0.776 OA
HETATM   20  H   UNK N   1      25.125  20.473   8.150  0.00  0.00     0.167 HD
ENDBRANCH  17  19
ENDBRANCH  15  17
ENDBRANCH   6  15
TORSDOF 4
ENDMDL
MODEL 9
REMARK VINA RESULT:      -6.2     15.875     17.049
REMARK  4 active torsions:
REMARK  status: ('A' for Active; 'I' for Inactive)
REMARK    1  A    between atoms: C_12  and  C_10 
REMARK    2  A    between atoms: C_13  and  C_11 
REMARK    3  A    between atoms: C_16  and  C_11 
REMARK    4  A    between atoms: O_19  and  C_16 
ROOT
HETATM    1  C   UNK N   1      20.673  16.115   8.349  0.00  0.00     0.012 A 
HETATM    2  C   UNK N   1      20.987  14.213   6.901  0.00  0.00     0.012 A 
HETATM    3  C   UNK N   1      20.728  16.964   7.238  0.00  0.00     0.009 A 
HETATM    4  C   UNK N   1      21.041  15.055   5.794  0.00  0.00     0.009 A 
HETATM    5  C   UNK N   1      20.805  14.728   8.191  0.00  0.00    -0.036 A 
HETATM    6  C   UNK N   1      20.913  16.438   5.949  0.00  0.00    -0.044 A 
ENDROOT
BRANCH   5   7
HETATM    7  C   UNK N   1      20.721  13.851   9.395  0.00  0.00     0.022 C 
HETATM    8  C   UNK N   1      21.770  13.219   9.990  0.00  0.00    -0.011 C 
HETATM    9  C   UNK N   1      23.184  13.379   9.473  0.00  0.00     0.042 C 
HETATM   10  C   UNK N   1      21.538  12.339  11.179  0.00  0.00     0.155 C 
HETATM   11  C   UNK N   1      24.127  12.274   9.921  0.00  0.00     0.005 C 
HETATM   12  C   UNK N   1      24.049  12.113  11.425  0.00  0.00     0.008 C 
HETATM   13  C   UNK N   1      22.673  11.601  11.838  0.00  0.00     0.083 C 
HETATM   14  O   UNK N   1      20.408  12.182  11.619  0.00  0.00    -0.293 OA
ENDBRANCH   5   7
BRANCH   6  15
HETATM   15  C   UNK N   1      20.976  17.327   4.732  0.00  0.00     0.112 C 
HETATM   16  C   UNK N   1      21.870  18.564   4.768  0.00  0.00     0.026 C 
BRANCH  15  17
HETATM   17  C   UNK N   1      20.187  17.068   3.472  0.00  0.00     0.148 C 
HETATM   18  O   UNK N   1      20.715  16.516   2.526  0.00  0.00    -0.649 OA
BRANCH  17  19
HETATM   19  O   UNK N   1      18.895  17.445   3.382  0.00  0.00    -0.776 OA
HETATM   20  H   UNK N   1      18.394  17.588   4.160  0.00  0.00     0.167 HD
ENDBRANCH  17  19
ENDBRANCH  15  17
ENDBRANCH   6  15
TORSDOF 4
ENDMDL
