REMARK  2 active torsions:
REMARK  status: ('A' for Active; 'I' for Inactive)
REMARK    1  A    between atoms: C_2  and  C_19 
REMARK    2  A    between atoms: C_19  and  O_20 
ROOT
HETATM    1  C   UNK N   1       4.575   1.645   1.639  0.00  0.00     0.020 C 
HETATM    2  C   UNK N   1       4.935   1.387   0.179  0.00  0.00     0.015 C 
HETATM    3  C   UNK N   1       6.433   1.056   0.069  0.00  0.00     0.015 C 
HETATM    4  C   UNK N   1       6.770  -0.295   0.681  0.00  0.00     0.031 C 
HETATM    5  C   UNK N   1       5.931  -1.350  -0.016  0.00  0.00     0.273 C 
HETATM    6  N   UNK N   1       4.517  -1.089   0.226  0.00  0.00     0.100 N 
HETATM    7  C   UNK N   1       4.116   0.198  -0.402  0.00  0.00     0.290 C 
HETATM    8  C   UNK N   1       2.612   0.334  -0.290  0.00  0.00     0.095 A 
HETATM    9  C   UNK N   1       1.797  -0.760  -0.082  0.00  0.00    -0.011 A 
HETATM   10  C   UNK N   1       0.519  -0.275  -0.020  0.00  0.00     0.007 A 
HETATM   11  C   UNK N   1      -0.701  -0.915   0.172  0.00  0.00     0.015 A 
HETATM   12  C   UNK N   1      -1.860  -0.117   0.180  0.00  0.00     0.001 A 
HETATM   13  C   UNK N   1      -1.766   1.283  -0.003  0.00  0.00     0.003 A 
HETATM   14  C   UNK N   1      -0.513   1.899  -0.199  0.00  0.00     0.038 A 
HETATM   15  C   UNK N   1       0.616   1.082  -0.202  0.00  0.00     0.086 A 
HETATM   16  O   UNK N   1       1.876   1.433  -0.366  0.00  0.00    -0.311 OA
HETATM   17  C   UNK N   1       2.291  -2.163   0.035  0.00  0.00     0.072 C 
HETATM   18  C   UNK N   1       3.775  -2.211  -0.359  0.00  0.00     0.278 C 
ENDROOT
BRANCH   2  19
HETATM   19  C   UNK N   1       4.686   2.654  -0.645  0.00  0.00     0.178 C 
BRANCH  19  20
HETATM   20  O   UNK N   1       5.597   3.664  -0.306  0.00  0.00    -0.395 OA
HETATM   21  C   UNK N   1       4.853   4.841  -0.292  0.00  0.00     0.201 C 
ENDBRANCH  19  20
ENDBRANCH   2  19
TORSDOF 2
