MODEL 1
REMARK VINA RESULT:      -7.6      0.000      0.000
REMARK  4 active torsions:
REMARK  status: ('A' for Active; 'I' for Inactive)
REMARK    1  A    between atoms: C_22  and  C_3 
REMARK    2  A    between atoms: O_26  and  C_4 
REMARK    3  A    between atoms: C_21  and  C_18 
REMARK    4  A    between atoms: O_26  and  C_21 
ROOT
HETATM    1  C   UNK N   1      31.669  21.865  -3.027  0.00  0.00     0.001 A 
HETATM    2  C   UNK N   1      30.827  22.770  -2.347  0.00  0.00     0.002 A 
HETATM    3  C   UNK N   1      25.292  21.307  -8.510  0.00  0.00     0.031 C 
HETATM    4  C   UNK N   1      31.363  21.455  -4.335  0.00  0.00     0.014 A 
HETATM    5  C   UNK N   1      29.671  23.274  -2.968  0.00  0.00     0.031 A 
HETATM    6  C   UNK N   1      30.075  20.838  -7.284  0.00  0.00     0.072 C 
HETATM    7  C   UNK N   1      25.252  22.113  -7.190  0.00  0.00     0.018 C 
HETATM    8  C   UNK N   1      26.715  21.152  -9.074  0.00  0.00     0.273 C 
HETATM    9  C   UNK N   1      29.031  20.852  -8.444  0.00  0.00     0.278 C 
HETATM   10  C   UNK N   1      26.216  24.026  -5.876  0.00  0.00     0.022 C 
HETATM   11  C   UNK N   1      30.220  21.984  -4.929  0.00  0.00    -0.001 A 
HETATM   12  C   UNK N   1      29.671  21.763  -6.168  0.00  0.00    -0.019 A 
HETATM   13  C   UNK N   1      29.388  22.875  -4.275  0.00  0.00     0.051 A 
HETATM   14  C   UNK N   1      27.159  24.053  -4.909  0.00  0.00     0.112 C 
HETATM   15  C   UNK N   1      28.547  22.539  -6.225  0.00  0.00     0.059 A 
HETATM   16  C   UNK N   1      27.713  22.608  -7.437  0.00  0.00     0.285 C 
HETATM   17  C   UNK N   1      26.301  23.238  -7.182  0.00  0.00     0.016 C 
HETATM   18  N   UNK N   1      27.678  21.235  -7.984  0.00  0.00     0.100 N 
HETATM   19  N   UNK N   1      28.338  23.213  -5.078  0.00  0.00    -0.307 N 
ENDROOT
BRANCH  14  20
HETATM   20  C   UNK N   1      26.947  24.941  -3.704  0.00  0.00     0.310 C 
HETATM   21  O   UNK N   1      26.640  24.437  -2.641  0.00  0.00    -0.258 OA
BRANCH  20  22
HETATM   22  O   UNK N   1      27.123  26.294  -3.720  0.00  0.00    -0.317 OA
BRANCH  22  23
HETATM   23  C   UNK N   1      26.188  27.247  -3.390  0.00  0.00     0.175 C 
HETATM   24  C   UNK N   1      25.398  27.629  -4.625  0.00  0.00     0.034 C 
ENDBRANCH  22  23
ENDBRANCH  20  22
ENDBRANCH  14  20
BRANCH  17  25
HETATM   25  C   UNK N   1      25.993  24.217  -8.334  0.00  0.00     0.011 C 
HETATM   26  C   UNK N   1      25.945  25.678  -7.900  0.00  0.00     0.006 C 
ENDBRANCH  17  25
TORSDOF 4
ENDMDL
MODEL 2
REMARK VINA RESULT:      -7.1     13.365     15.592
REMARK  4 active torsions:
REMARK  status: ('A' for Active; 'I' for Inactive)
REMARK    1  A    between atoms: C_22  and  C_3 
REMARK    2  A    between atoms: O_26  and  C_4 
REMARK    3  A    between atoms: C_21  and  C_18 
REMARK    4  A    between atoms: O_26  and  C_21 
ROOT
HETATM    1  C   UNK N   1      28.461  18.408   9.012  0.00  0.00     0.001 A 
HETATM    2  C   UNK N   1      29.693  18.856   9.536  0.00  0.00     0.002 A 
HETATM    3  C   UNK N   1      33.178  15.274   2.769  0.00  0.00     0.031 C 
HETATM    4  C   UNK N   1      28.432  17.481   7.957  0.00  0.00     0.014 A 
HETATM    5  C   UNK N   1      30.906  18.380   9.011  0.00  0.00     0.031 A 
HETATM    6  C   UNK N   1      29.032  15.411   5.490  0.00  0.00     0.072 C 
HETATM    7  C   UNK N   1      33.717  16.137   3.934  0.00  0.00     0.018 C 
HETATM    8  C   UNK N   1      31.903  14.496   3.141  0.00  0.00     0.273 C 
HETATM    9  C   UNK N   1      29.855  14.624   4.423  0.00  0.00     0.278 C 
HETATM   10  C   UNK N   1      34.067  16.322   6.415  0.00  0.00     0.022 C 
HETATM   11  C   UNK N   1      29.650  17.017   7.469  0.00  0.00    -0.001 A 
HETATM   12  C   UNK N   1      29.930  16.134   6.456  0.00  0.00    -0.019 A 
HETATM   13  C   UNK N   1      30.865  17.444   7.976  0.00  0.00     0.051 A 
HETATM   14  C   UNK N   1      33.343  16.946   7.371  0.00  0.00     0.112 C 
HETATM   15  C   UNK N   1      31.294  16.044   6.402  0.00  0.00     0.059 A 
HETATM   16  C   UNK N   1      31.975  15.139   5.461  0.00  0.00     0.285 C 
HETATM   17  C   UNK N   1      33.501  15.453   5.294  0.00  0.00     0.016 C 
HETATM   18  N   UNK N   1      31.199  15.202   4.204  0.00  0.00     0.100 N 
HETATM   19  N   UNK N   1      31.891  16.846   7.304  0.00  0.00    -0.307 N 
ENDROOT
BRANCH  14  20
HETATM   20  C   UNK N   1      34.067  17.717   8.452  0.00  0.00     0.310 C 
HETATM   21  O   UNK N   1      34.513  18.818   8.198  0.00  0.00    -0.258 OA
BRANCH  20  22
HETATM   22  O   UNK N   1      34.217  17.267   9.731  0.00  0.00    -0.317 OA
BRANCH  22  23
HETATM   23  C   UNK N   1      35.359  16.737  10.286  0.00  0.00     0.175 C 
HETATM   24  C   UNK N   1      35.576  15.335   9.753  0.00  0.00     0.034 C 
ENDBRANCH  22  23
ENDBRANCH  20  22
ENDBRANCH  14  20
BRANCH  17  25
HETATM   25  C   UNK N   1      34.274  14.117   5.310  0.00  0.00     0.011 C 
HETATM   26  C   UNK N   1      33.627  13.044   6.178  0.00  0.00     0.006 C 
ENDBRANCH  17  25
TORSDOF 4
ENDMDL
MODEL 3
REMARK VINA RESULT:      -7.0      2.483      5.070
REMARK  4 active torsions:
REMARK  status: ('A' for Active; 'I' for Inactive)
REMARK    1  A    between atoms: C_22  and  C_3 
REMARK    2  A    between atoms: O_26  and  C_4 
REMARK    3  A    between atoms: C_21  and  C_18 
REMARK    4  A    between atoms: O_26  and  C_21 
ROOT
HETATM    1  C   UNK N   1      29.615  19.945  -7.356  0.00  0.00     0.001 A 
HETATM    2  C   UNK N   1      28.503  20.067  -8.216  0.00  0.00     0.002 A 
HETATM    3  C   UNK N   1      28.112  28.047  -5.582  0.00  0.00     0.031 C 
HETATM    4  C   UNK N   1      29.894  20.944  -6.410  0.00  0.00     0.014 A 
HETATM    5  C   UNK N   1      27.660  21.189  -8.137  0.00  0.00     0.031 A 
HETATM    6  C   UNK N   1      30.048  23.608  -4.508  0.00  0.00     0.072 C 
HETATM    7  C   UNK N   1      27.350  27.221  -6.645  0.00  0.00     0.018 C 
HETATM    8  C   UNK N   1      28.692  27.179  -4.451  0.00  0.00     0.273 C 
HETATM    9  C   UNK N   1      29.699  25.032  -3.973  0.00  0.00     0.278 C 
HETATM   10  C   UNK N   1      25.844  25.258  -7.085  0.00  0.00     0.022 C 
HETATM   11  C   UNK N   1      29.032  22.035  -6.344  0.00  0.00    -0.001 A 
HETATM   12  C   UNK N   1      29.058  23.150  -5.544  0.00  0.00    -0.019 A 
HETATM   13  C   UNK N   1      27.936  22.165  -7.179  0.00  0.00     0.051 A 
HETATM   14  C   UNK N   1      26.120  23.999  -7.492  0.00  0.00     0.112 C 
HETATM   15  C   UNK N   1      27.972  23.898  -5.907  0.00  0.00     0.059 A 
HETATM   16  C   UNK N   1      27.634  25.157  -5.222  0.00  0.00     0.285 C 
HETATM   17  C   UNK N   1      26.603  26.034  -6.011  0.00  0.00     0.016 C 
HETATM   18  N   UNK N   1      28.922  25.829  -4.949  0.00  0.00     0.100 N 
HETATM   19  N   UNK N   1      27.280  23.333  -6.914  0.00  0.00    -0.307 N 
ENDROOT
BRANCH  14  20
HETATM   20  C   UNK N   1      25.225  23.349  -8.522  0.00  0.00     0.310 C 
HETATM   21  O   UNK N   1      24.388  22.547  -8.159  0.00  0.00    -0.258 OA
BRANCH  20  22
HETATM   22  O   UNK N   1      25.267  23.642  -9.855  0.00  0.00    -0.317 OA
BRANCH  22  23
HETATM   23  C   UNK N   1      26.383  23.648 -10.658  0.00  0.00     0.175 C 
HETATM   24  C   UNK N   1      26.748  25.077 -11.005  0.00  0.00     0.034 C 
ENDBRANCH  22  23
ENDBRANCH  20  22
ENDBRANCH  14  20
BRANCH  17  25
HETATM   25  C   UNK N   1      25.562  26.577  -5.009  0.00  0.00     0.011 C 
HETATM   26  C   UNK N   1      24.420  27.344  -5.667  0.00  0.00     0.006 C 
ENDBRANCH  17  25
TORSDOF 4
ENDMDL
MODEL 4
REMARK VINA RESULT:      -6.8     11.759     14.833
REMARK  4 active torsions:
REMARK  status: ('A' for Active; 'I' for Inactive)
REMARK    1  A    between atoms: C_22  and  C_3 
REMARK    2  A    between atoms: O_26  and  C_4 
REMARK    3  A    between atoms: C_21  and  C_18 
REMARK    4  A    between atoms: O_26  and  C_21 
ROOT
HETATM    1  C   UNK N   1      28.909  18.543   9.481  0.00  0.00     0.001 A 
HETATM    2  C   UNK N   1      27.997  17.837   8.667  0.00  0.00     0.002 A 
HETATM    3  C   UNK N   1      34.741  13.818   5.646  0.00  0.00     0.031 C 
HETATM    4  C   UNK N   1      30.288  18.470   9.230  0.00  0.00     0.014 A 
HETATM    5  C   UNK N   1      28.456  17.054   7.595  0.00  0.00     0.031 A 
HETATM    6  C   UNK N   1      33.330  17.836   8.191  0.00  0.00     0.072 C 
HETATM    7  C   UNK N   1      33.214  13.674   5.441  0.00  0.00     0.018 C 
HETATM    8  C   UNK N   1      35.157  15.240   6.065  0.00  0.00     0.273 C 
HETATM    9  C   UNK N   1      34.473  17.156   7.374  0.00  0.00     0.278 C 
HETATM   10  C   UNK N   1      31.098  14.765   4.638  0.00  0.00     0.022 C 
HETATM   11  C   UNK N   1      30.711  17.699   8.151  0.00  0.00    -0.001 A 
HETATM   12  C   UNK N   1      31.973  17.435   7.679  0.00  0.00    -0.019 A 
HETATM   13  C   UNK N   1      29.828  17.005   7.343  0.00  0.00     0.051 A 
HETATM   14  C   UNK N   1      30.120  15.410   5.312  0.00  0.00     0.112 C 
HETATM   15  C   UNK N   1      31.806  16.615   6.598  0.00  0.00     0.059 A 
HETATM   16  C   UNK N   1      32.948  16.158   5.787  0.00  0.00     0.285 C 
HETATM   17  C   UNK N   1      32.599  14.953   4.849  0.00  0.00     0.016 C 
HETATM   18  N   UNK N   1      34.043  15.888   6.744  0.00  0.00     0.100 N 
HETATM   19  N   UNK N   1      30.511  16.320   6.381  0.00  0.00    -0.307 N 
ENDROOT
BRANCH  14  20
HETATM   20  C   UNK N   1      28.678  15.156   4.932  0.00  0.00     0.310 C 
HETATM   21  O   UNK N   1      28.149  14.117   5.275  0.00  0.00    -0.258 OA
BRANCH  20  22
HETATM   22  O   UNK N   1      27.904  16.052   4.255  0.00  0.00    -0.317 OA
BRANCH  22  23
HETATM   23  C   UNK N   1      28.342  17.166   3.576  0.00  0.00     0.175 C 
HETATM   24  C   UNK N   1      27.749  18.408   4.209  0.00  0.00     0.034 C 
ENDBRANCH  22  23
ENDBRANCH  20  22
ENDBRANCH  14  20
BRANCH  17  25
HETATM   25  C   UNK N   1      33.230  15.218   3.466  0.00  0.00     0.011 C 
HETATM   26  C   UNK N   1      32.956  16.616   2.924  0.00  0.00     0.006 C 
ENDBRANCH  17  25
TORSDOF 4
ENDMDL
MODEL 5
REMARK VINA RESULT:      -6.8     11.810     14.238
REMARK  4 active torsions:
REMARK  status: ('A' for Active; 'I' for Inactive)
REMARK    1  A    between atoms: C_22  and  C_3 
REMARK    2  A    between atoms: O_26  and  C_4 
REMARK    3  A    between atoms: C_21  and  C_18 
REMARK    4  A    between atoms: O_26  and  C_21 
ROOT
HETATM    1  C   UNK N   1      34.424  16.583   8.149  0.00  0.00     0.001 A 
HETATM    2  C   UNK N   1      34.531  16.237   6.785  0.00  0.00     0.002 A 
HETATM    3  C   UNK N   1      27.190  20.231   5.823  0.00  0.00     0.031 C 
HETATM    4  C   UNK N   1      33.214  17.076   8.664  0.00  0.00     0.014 A 
HETATM    5  C   UNK N   1      33.430  16.381   5.924  0.00  0.00     0.031 A 
HETATM    6  C   UNK N   1      30.197  18.226   9.221  0.00  0.00     0.072 C 
HETATM    7  C   UNK N   1      28.198  19.572   4.851  0.00  0.00     0.018 C 
HETATM    8  C   UNK N   1      27.250  19.637   7.241  0.00  0.00     0.273 C 
HETATM    9  C   UNK N   1      28.754  18.729   8.905  0.00  0.00     0.278 C 
HETATM   10  C   UNK N   1      29.347  17.450   4.150  0.00  0.00     0.022 C 
HETATM   11  C   UNK N   1      32.137  17.193   7.790  0.00  0.00    -0.001 A 
HETATM   12  C   UNK N   1      30.859  17.646   8.000  0.00  0.00    -0.019 A 
HETATM   13  C   UNK N   1      32.228  16.854   6.451  0.00  0.00     0.051 A 
HETATM   14  C   UNK N   1      30.569  16.960   4.452  0.00  0.00     0.112 C 
HETATM   15  C   UNK N   1      30.221  17.546   6.795  0.00  0.00     0.059 A 
HETATM   16  C   UNK N   1      28.799  17.895   6.637  0.00  0.00     0.285 C 
HETATM   17  C   UNK N   1      28.365  18.070   5.142  0.00  0.00     0.016 C 
HETATM   18  N   UNK N   1      28.578  19.090   7.480  0.00  0.00     0.100 N 
HETATM   19  N   UNK N   1      31.036  17.084   5.827  0.00  0.00    -0.307 N 
ENDROOT
BRANCH  14  20
HETATM   20  C   UNK N   1      31.391  16.316   3.359  0.00  0.00     0.310 C 
HETATM   21  O   UNK N   1      32.014  17.022   2.590  0.00  0.00    -0.258 OA
BRANCH  20  22
HETATM   22  O   UNK N   1      31.517  14.966   3.202  0.00  0.00    -0.317 OA
BRANCH  22  23
HETATM   23  C   UNK N   1      30.719  13.997   3.763  0.00  0.00     0.175 C 
HETATM   24  C   UNK N   1      31.430  13.383   4.952  0.00  0.00     0.034 C 
ENDBRANCH  22  23
ENDBRANCH  20  22
ENDBRANCH  14  20
BRANCH  17  25
HETATM   25  C   UNK N   1      27.005  17.369   4.947  0.00  0.00     0.011 C 
HETATM   26  C   UNK N   1      26.764  16.216   5.916  0.00  0.00     0.006 C 
ENDBRANCH  17  25
TORSDOF 4
ENDMDL
MODEL 6
REMARK VINA RESULT:      -6.8      2.594      5.364
REMARK  4 active torsions:
REMARK  status: ('A' for Active; 'I' for Inactive)
REMARK    1  A    between atoms: C_22  and  C_3 
REMARK    2  A    between atoms: O_26  and  C_4 
REMARK    3  A    between atoms: C_21  and  C_18 
REMARK    4  A    between atoms: O_26  and  C_21 
ROOT
HETATM    1  C   UNK N   1      31.193  21.989  -4.486  0.00  0.00     0.001 A 
HETATM    2  C   UNK N   1      30.102  21.544  -5.264  0.00  0.00     0.002 A 
HETATM    3  C   UNK N   1      28.170  29.687  -6.113  0.00  0.00     0.031 C 
HETATM    4  C   UNK N   1      31.255  23.321  -4.047  0.00  0.00     0.014 A 
HETATM    5  C   UNK N   1      29.065  22.427  -5.609  0.00  0.00     0.031 A 
HETATM    6  C   UNK N   1      30.859  26.511  -3.413  0.00  0.00     0.072 C 
HETATM    7  C   UNK N   1      27.604  28.374  -6.704  0.00  0.00     0.018 C 
HETATM    8  C   UNK N   1      28.866  29.481  -4.756  0.00  0.00     0.273 C 
HETATM    9  C   UNK N   1      30.237  27.941  -3.491  0.00  0.00     0.278 C 
HETATM   10  C   UNK N   1      26.499  26.169  -6.226  0.00  0.00     0.022 C 
HETATM   11  C   UNK N   1      30.205  24.167  -4.391  0.00  0.00    -0.001 A 
HETATM   12  C   UNK N   1      30.001  25.497  -4.120  0.00  0.00    -0.019 A 
HETATM   13  C   UNK N   1      29.128  23.743  -5.150  0.00  0.00     0.051 A 
HETATM   14  C   UNK N   1      27.015  24.926  -6.096  0.00  0.00     0.112 C 
HETATM   15  C   UNK N   1      28.807  25.821  -4.702  0.00  0.00     0.059 A 
HETATM   16  C   UNK N   1      28.222  27.167  -4.577  0.00  0.00     0.285 C 
HETATM   17  C   UNK N   1      27.071  27.441  -5.604  0.00  0.00     0.016 C 
HETATM   18  N   UNK N   1      29.356  28.112  -4.668  0.00  0.00     0.100 N 
HETATM   19  N   UNK N   1      28.261  24.777  -5.354  0.00  0.00    -0.307 N 
ENDROOT
BRANCH  14  20
HETATM   20  C   UNK N   1      26.286  23.760  -6.723  0.00  0.00     0.310 C 
HETATM   21  O   UNK N   1      25.365  23.244  -6.122  0.00  0.00    -0.258 OA
BRANCH  20  22
HETATM   22  O   UNK N   1      26.571  23.267  -7.963  0.00  0.00    -0.317 OA
BRANCH  22  23
HETATM   23  C   UNK N   1      26.030  22.144  -8.544  0.00  0.00     0.175 C 
HETATM   24  C   UNK N   1      26.970  20.972  -8.349  0.00  0.00     0.034 C 
ENDBRANCH  22  23
ENDBRANCH  20  22
ENDBRANCH  14  20
BRANCH  17  25
HETATM   25  C   UNK N   1      25.919  28.150  -4.861  0.00  0.00     0.011 C 
HETATM   26  C   UNK N   1      25.791  27.745  -3.397  0.00  0.00     0.006 C 
ENDBRANCH  17  25
TORSDOF 4
ENDMDL
MODEL 7
REMARK VINA RESULT:      -6.7      2.128      4.567
REMARK  4 active torsions:
REMARK  status: ('A' for Active; 'I' for Inactive)
REMARK    1  A    between atoms: C_22  and  C_3 
REMARK    2  A    between atoms: O_26  and  C_4 
REMARK    3  A    between atoms: C_21  and  C_18 
REMARK    4  A    between atoms: O_26  and  C_21 
ROOT
HETATM    1  C   UNK N   1      29.149  20.291  -7.405  0.00  0.00     0.001 A 
HETATM    2  C   UNK N   1      30.062  20.587  -6.370  0.00  0.00     0.002 A 
HETATM    3  C   UNK N   1      25.197  27.269  -4.811  0.00  0.00     0.031 C 
HETATM    4  C   UNK N   1      28.201  21.245  -7.809  0.00  0.00     0.014 A 
HETATM    5  C   UNK N   1      30.036  21.838  -5.731  0.00  0.00     0.031 A 
HETATM    6  C   UNK N   1      26.219  23.820  -8.227  0.00  0.00     0.072 C 
HETATM    7  C   UNK N   1      26.436  26.650  -4.122  0.00  0.00     0.018 C 
HETATM    8  C   UNK N   1      25.118  26.937  -6.312  0.00  0.00     0.273 C 
HETATM    9  C   UNK N   1      25.562  25.207  -7.943  0.00  0.00     0.278 C 
HETATM   10  C   UNK N   1      28.863  26.038  -4.337  0.00  0.00     0.022 C 
HETATM   11  C   UNK N   1      28.210  22.480  -7.169  0.00  0.00    -0.001 A 
HETATM   12  C   UNK N   1      27.411  23.583  -7.338  0.00  0.00    -0.019 A 
HETATM   13  C   UNK N   1      29.103  22.784  -6.155  0.00  0.00     0.051 A 
HETATM   14  C   UNK N   1      29.461  24.864  -4.637  0.00  0.00     0.112 C 
HETATM   15  C   UNK N   1      27.859  24.514  -6.443  0.00  0.00     0.059 A 
HETATM   16  C   UNK N   1      27.273  25.863  -6.368  0.00  0.00     0.285 C 
HETATM   17  C   UNK N   1      27.656  26.633  -5.058  0.00  0.00     0.016 C 
HETATM   18  N   UNK N   1      25.818  25.685  -6.566  0.00  0.00     0.100 N 
HETATM   19  N   UNK N   1      28.877  24.049  -5.695  0.00  0.00    -0.307 N 
ENDROOT
BRANCH  14  20
HETATM   20  C   UNK N   1      30.693  24.450  -3.864  0.00  0.00     0.310 C 
HETATM   21  O   UNK N   1      31.789  24.609  -4.365  0.00  0.00    -0.258 OA
BRANCH  20  22
HETATM   22  O   UNK N   1      30.658  23.940  -2.599  0.00  0.00    -0.317 OA
BRANCH  22  23
HETATM   23  C   UNK N   1      29.986  22.813  -2.187  0.00  0.00     0.175 C 
HETATM   24  C   UNK N   1      28.564  23.181  -1.813  0.00  0.00     0.034 C 
ENDBRANCH  22  23
ENDBRANCH  20  22
ENDBRANCH  14  20
BRANCH  17  25
HETATM   25  C   UNK N   1      28.014  28.086  -5.438  0.00  0.00     0.011 C 
HETATM   26  C   UNK N   1      28.407  28.258  -6.901  0.00  0.00     0.006 C 
ENDBRANCH  17  25
TORSDOF 4
ENDMDL
MODEL 8
REMARK VINA RESULT:      -6.4      1.859      4.718
REMARK  4 active torsions:
REMARK  status: ('A' for Active; 'I' for Inactive)
REMARK    1  A    between atoms: C_22  and  C_3 
REMARK    2  A    between atoms: O_26  and  C_4 
REMARK    3  A    between atoms: C_21  and  C_18 
REMARK    4  A    between atoms: O_26  and  C_21 
ROOT
HETATM    1  C   UNK N   1      25.211  27.672  -4.516  0.00  0.00     0.001 A 
HETATM    2  C   UNK N   1      26.102  27.271  -3.498  0.00  0.00     0.002 A 
HETATM    3  C   UNK N   1      29.873  22.680  -9.454  0.00  0.00     0.031 C 
HETATM    4  C   UNK N   1      25.192  27.002  -5.749  0.00  0.00     0.014 A 
HETATM    5  C   UNK N   1      26.982  26.194  -3.705  0.00  0.00     0.031 A 
HETATM    6  C   UNK N   1      25.686  25.114  -8.382  0.00  0.00     0.072 C 
HETATM    7  C   UNK N   1      30.182  22.990  -7.970  0.00  0.00     0.018 C 
HETATM    8  C   UNK N   1      28.375  22.795  -9.790  0.00  0.00     0.273 C 
HETATM    9  C   UNK N   1      26.366  24.049  -9.297  0.00  0.00     0.278 C 
HETATM   10  C   UNK N   1      29.409  22.800  -5.587  0.00  0.00     0.022 C 
HETATM   11  C   UNK N   1      26.064  25.930  -5.918  0.00  0.00    -0.001 A 
HETATM   12  C   UNK N   1      26.275  25.108  -6.997  0.00  0.00    -0.019 A 
HETATM   13  C   UNK N   1      26.940  25.523  -4.927  0.00  0.00     0.051 A 
HETATM   14  C   UNK N   1      28.769  23.681  -4.787  0.00  0.00     0.112 C 
HETATM   15  C   UNK N   1      27.249  24.228  -6.615  0.00  0.00     0.059 A 
HETATM   16  C   UNK N   1      27.708  23.146  -7.502  0.00  0.00     0.285 C 
HETATM   17  C   UNK N   1      29.058  22.498  -7.042  0.00  0.00     0.016 C 
HETATM   18  N   UNK N   1      27.743  23.724  -8.863  0.00  0.00     0.100 N 
HETATM   19  N   UNK N   1      27.687  24.469  -5.365  0.00  0.00    -0.307 N 
ENDROOT
BRANCH  14  20
HETATM   20  C   UNK N   1      29.203  23.811  -3.345  0.00  0.00     0.310 C 
HETATM   21  O   UNK N   1      28.708  23.082  -2.508  0.00  0.00    -0.258 OA
BRANCH  20  22
HETATM   22  O   UNK N   1      30.164  24.682  -2.919  0.00  0.00    -0.317 OA
BRANCH  22  23
HETATM   23  C   UNK N   1      30.981  25.453  -3.711  0.00  0.00     0.175 C 
HETATM   24  C   UNK N   1      30.634  26.916  -3.522  0.00  0.00     0.034 C 
ENDBRANCH  22  23
ENDBRANCH  20  22
ENDBRANCH  14  20
BRANCH  17  25
HETATM   25  C   UNK N   1      28.932  20.966  -7.179  0.00  0.00     0.011 C 
HETATM   26  C   UNK N   1      30.167  20.204  -6.713  0.00  0.00     0.006 C 
ENDBRANCH  17  25
TORSDOF 4
ENDMDL
MODEL 9
REMARK VINA RESULT:      -6.4      2.276      5.634
REMARK  4 active torsions:
REMARK  status: ('A' for Active; 'I' for Inactive)
REMARK    1  A    between atoms: C_22  and  C_3 
REMARK    2  A    between atoms: O_26  and  C_4 
REMARK    3  A    between atoms: C_21  and  C_18 
REMARK    4  A    between atoms: O_26  and  C_21 
ROOT
HETATM    1  C   UNK N   1      25.577  28.081  -4.691  0.00  0.00     0.001 A 
HETATM    2  C   UNK N   1      24.843  27.126  -5.428  0.00  0.00     0.002 A 
HETATM    3  C   UNK N   1      31.280  21.922  -3.930  0.00  0.00     0.031 C 
HETATM    4  C   UNK N   1      26.925  27.850  -4.374  0.00  0.00     0.014 A 
HETATM    5  C   UNK N   1      25.451  25.933  -5.853  0.00  0.00     0.031 A 
HETATM    6  C   UNK N   1      29.956  26.702  -3.894  0.00  0.00     0.072 C 
HETATM    7  C   UNK N   1      29.894  21.763  -4.599  0.00  0.00     0.018 C 
HETATM    8  C   UNK N   1      31.812  23.365  -3.991  0.00  0.00     0.273 C 
HETATM    9  C   UNK N   1      31.141  25.687  -3.898  0.00  0.00     0.278 C 
HETATM   10  C   UNK N   1      28.383  22.472  -6.477  0.00  0.00     0.022 C 
HETATM   11  C   UNK N   1      27.503  26.667  -4.823  0.00  0.00    -0.001 A 
HETATM   12  C   UNK N   1      28.773  26.172  -4.658  0.00  0.00    -0.019 A 
HETATM   13  C   UNK N   1      26.796  25.723  -5.549  0.00  0.00     0.051 A 
HETATM   14  C   UNK N   1      27.388  23.386  -6.520  0.00  0.00     0.112 C 
HETATM   15  C   UNK N   1      28.794  24.966  -5.304  0.00  0.00     0.059 A 
HETATM   16  C   UNK N   1      30.019  24.154  -5.391  0.00  0.00     0.285 C 
HETATM   17  C   UNK N   1      29.751  22.674  -5.830  0.00  0.00     0.016 C 
HETATM   18  N   UNK N   1      30.690  24.289  -4.081  0.00  0.00     0.100 N 
HETATM   19  N   UNK N   1      27.598  24.658  -5.840  0.00  0.00    -0.307 N 
ENDROOT
BRANCH  14  20
HETATM   20  C   UNK N   1      26.115  23.049  -7.262  0.00  0.00     0.310 C 
HETATM   21  O   UNK N   1      25.169  22.601  -6.644  0.00  0.00    -0.258 OA
BRANCH  20  22
HETATM   22  O   UNK N   1      25.938  23.259  -8.599  0.00  0.00    -0.317 OA
BRANCH  22  23
HETATM   23  C   UNK N   1      25.293  24.323  -9.183  0.00  0.00     0.175 C 
HETATM   24  C   UNK N   1      26.272  25.464  -9.375  0.00  0.00     0.034 C 
ENDBRANCH  22  23
ENDBRANCH  20  22
ENDBRANCH  14  20
BRANCH  17  25
HETATM   25  C   UNK N   1      30.818  22.277  -6.872  0.00  0.00     0.011 C 
HETATM   26  C   UNK N   1      30.873  23.207  -8.079  0.00  0.00     0.006 C 
ENDBRANCH  17  25
TORSDOF 4
ENDMDL
