MODEL 1
REMARK VINA RESULT:      -5.2      0.000      0.000
REMARK  8 active torsions:
REMARK  status: ('A' for Active; 'I' for Inactive)
REMARK    1  A    between atoms: C_2  and  C_3 
REMARK    2  A    between atoms: C_3  and  C_4 
REMARK    3  A    between atoms: C_4  and  O_5 
REMARK    4  A    between atoms: O_5  and  C_6 
REMARK    5  A    between atoms: C_11  and  O_12 
REMARK    6  A    between atoms: O_12  and  C_13 
REMARK    7  A    between atoms: C_13  and  C_14 
REMARK    8  A    between atoms: C_14  and  C_15 
ROOT
HETATM    1  C   UNK N   1      21.091  19.841   3.571  0.00  0.00     0.161 A 
HETATM    2  C   UNK N   1      20.159  19.563   2.470  0.00  0.00     0.260 A 
HETATM    3  O   UNK N   1      19.105  18.967   2.347  0.00  0.00    -0.281 OA
HETATM    4  C   UNK N   1      21.055  20.313   1.603  0.00  0.00     0.260 A 
HETATM    5  O   UNK N   1      21.072  20.619   0.420  0.00  0.00    -0.281 OA
HETATM    6  C   UNK N   1      21.915  20.532   2.769  0.00  0.00     0.161 A 
ENDROOT
BRANCH   1   7
HETATM    7  O   UNK N   1      21.166  19.556   4.886  0.00  0.00    -0.345 OA
BRANCH   7   8
HETATM    8  C   UNK N   1      21.823  18.445   5.340  0.00  0.00     0.176 C 
BRANCH   8   9
HETATM    9  C   UNK N   1      21.084  17.888   6.538  0.00  0.00     0.026 C 
BRANCH   9  10
HETATM   10  C   UNK N   1      21.609  16.504   6.846  0.00  0.00    -0.002 C 
HETATM   11  C   UNK N   1      22.845  16.236   6.015  0.00  0.00     0.005 C 
ENDBRANCH   9  10
ENDBRANCH   8   9
ENDBRANCH   7   8
ENDBRANCH   1   7
BRANCH   6  12
HETATM   12  O   UNK N   1      23.087  21.167   3.016  0.00  0.00    -0.345 OA
BRANCH  12  13
HETATM   13  C   UNK N   1      24.269  20.551   2.677  0.00  0.00     0.176 C 
BRANCH  13  14
HETATM   14  C   UNK N   1      24.964  19.954   3.877  0.00  0.00     0.026 C 
BRANCH  14  15
HETATM   15  C   UNK N   1      26.421  20.363   3.789  0.00  0.00    -0.002 C 
HETATM   16  C   UNK N   1      26.920  20.837   5.135  0.00  0.00     0.005 C 
ENDBRANCH  14  15
ENDBRANCH  13  14
ENDBRANCH  12  13
ENDBRANCH   6  12
TORSDOF 8
ENDMDL
MODEL 2
REMARK VINA RESULT:      -5.1      1.017      4.017
REMARK  8 active torsions:
REMARK  status: ('A' for Active; 'I' for Inactive)
REMARK    1  A    between atoms: C_2  and  C_3 
REMARK    2  A    between atoms: C_3  and  C_4 
REMARK    3  A    between atoms: C_4  and  O_5 
REMARK    4  A    between atoms: O_5  and  C_6 
REMARK    5  A    between atoms: C_11  and  O_12 
REMARK    6  A    between atoms: O_12  and  C_13 
REMARK    7  A    between atoms: C_13  and  C_14 
REMARK    8  A    between atoms: C_14  and  C_15 
ROOT
HETATM    1  C   UNK N   1      22.046  20.484   2.680  0.00  0.00     0.161 A 
HETATM    2  C   UNK N   1      21.113  20.338   1.555  0.00  0.00     0.260 A 
HETATM    3  O   UNK N   1      21.067  20.724   0.402  0.00  0.00    -0.281 OA
HETATM    4  C   UNK N   1      20.277  19.530   2.432  0.00  0.00     0.260 A 
HETATM    5  O   UNK N   1      19.212  18.941   2.324  0.00  0.00    -0.281 OA
HETATM    6  C   UNK N   1      21.273  19.740   3.486  0.00  0.00     0.161 A 
ENDROOT
BRANCH   1   7
HETATM    7  O   UNK N   1      23.223  21.099   2.902  0.00  0.00    -0.345 OA
BRANCH   7   8
HETATM    8  C   UNK N   1      24.415  20.475   2.649  0.00  0.00     0.176 C 
BRANCH   8   9
HETATM    9  C   UNK N   1      25.269  20.514   3.897  0.00  0.00     0.026 C 
BRANCH   9  10
HETATM   10  C   UNK N   1      26.697  20.176   3.533  0.00  0.00    -0.002 C 
HETATM   11  C   UNK N   1      27.531  20.082   4.793  0.00  0.00     0.005 C 
ENDBRANCH   9  10
ENDBRANCH   8   9
ENDBRANCH   7   8
ENDBRANCH   1   7
BRANCH   6  12
HETATM   12  O   UNK N   1      21.423  19.364   4.780  0.00  0.00    -0.345 OA
BRANCH  12  13
HETATM   13  C   UNK N   1      21.466  18.025   5.090  0.00  0.00     0.176 C 
BRANCH  13  14
HETATM   14  C   UNK N   1      22.488  17.281   4.265  0.00  0.00     0.026 C 
BRANCH  14  15
HETATM   15  C   UNK N   1      23.801  17.357   5.019  0.00  0.00    -0.002 C 
HETATM   16  C   UNK N   1      24.931  16.823   4.168  0.00  0.00     0.005 C 
ENDBRANCH  14  15
ENDBRANCH  13  14
ENDBRANCH  12  13
ENDBRANCH   6  12
TORSDOF 8
ENDMDL
MODEL 3
REMARK VINA RESULT:      -4.9      2.177      4.050
REMARK  8 active torsions:
REMARK  status: ('A' for Active; 'I' for Inactive)
REMARK    1  A    between atoms: C_2  and  C_3 
REMARK    2  A    between atoms: C_3  and  C_4 
REMARK    3  A    between atoms: C_4  and  O_5 
REMARK    4  A    between atoms: O_5  and  C_6 
REMARK    5  A    between atoms: C_11  and  O_12 
REMARK    6  A    between atoms: O_12  and  C_13 
REMARK    7  A    between atoms: C_13  and  C_14 
REMARK    8  A    between atoms: C_14  and  C_15 
ROOT
HETATM    1  C   UNK N   1      21.103  19.618   3.248  0.00  0.00     0.161 A 
HETATM    2  C   UNK N   1      21.772  20.712   2.532  0.00  0.00     0.260 A 
HETATM    3  O   UNK N   1      22.539  21.609   2.827  0.00  0.00    -0.281 OA
HETATM    4  C   UNK N   1      21.110  20.245   1.322  0.00  0.00     0.260 A 
HETATM    5  O   UNK N   1      21.087  20.590   0.150  0.00  0.00    -0.281 OA
HETATM    6  C   UNK N   1      20.494  19.190   2.131  0.00  0.00     0.161 A 
ENDROOT
BRANCH   1   7
HETATM    7  O   UNK N   1      21.060  19.157   4.512  0.00  0.00    -0.345 OA
BRANCH   7   8
HETATM    8  C   UNK N   1      22.065  18.384   5.026  0.00  0.00     0.176 C 
BRANCH   8   9
HETATM    9  C   UNK N   1      21.560  17.669   6.260  0.00  0.00     0.026 C 
BRANCH   9  10
HETATM   10  C   UNK N   1      22.229  16.316   6.360  0.00  0.00    -0.002 C 
HETATM   11  C   UNK N   1      23.316  16.213   5.313  0.00  0.00     0.005 C 
ENDBRANCH   9  10
ENDBRANCH   8   9
ENDBRANCH   7   8
ENDBRANCH   1   7
BRANCH   6  12
HETATM   12  O   UNK N   1      19.642  18.158   1.910  0.00  0.00    -0.345 OA
BRANCH  12  13
HETATM   13  C   UNK N   1      20.153  16.905   1.667  0.00  0.00     0.176 C 
BRANCH  13  14
HETATM   14  C   UNK N   1      20.165  16.044   2.906  0.00  0.00     0.026 C 
BRANCH  14  15
HETATM   15  C   UNK N   1      21.051  14.851   2.604  0.00  0.00    -0.002 C 
HETATM   16  C   UNK N   1      21.556  14.915   1.179  0.00  0.00     0.005 C 
ENDBRANCH  14  15
ENDBRANCH  13  14
ENDBRANCH  12  13
ENDBRANCH   6  12
TORSDOF 8
ENDMDL
MODEL 4
REMARK VINA RESULT:      -4.8     10.673     13.513
REMARK  8 active torsions:
REMARK  status: ('A' for Active; 'I' for Inactive)
REMARK    1  A    between atoms: C_2  and  C_3 
REMARK    2  A    between atoms: C_3  and  C_4 
REMARK    3  A    between atoms: C_4  and  O_5 
REMARK    4  A    between atoms: O_5  and  C_6 
REMARK    5  A    between atoms: C_11  and  O_12 
REMARK    6  A    between atoms: O_12  and  C_13 
REMARK    7  A    between atoms: C_13  and  C_14 
REMARK    8  A    between atoms: C_14  and  C_15 
ROOT
HETATM    1  C   UNK N   1      33.894  16.438   7.974  0.00  0.00     0.161 A 
HETATM    2  C   UNK N   1      34.208  17.601   7.134  0.00  0.00     0.260 A 
HETATM    3  O   UNK N   1      34.058  17.901   5.965  0.00  0.00    -0.281 OA
HETATM    4  C   UNK N   1      34.774  18.228   8.320  0.00  0.00     0.260 A 
HETATM    5  O   UNK N   1      35.310  19.298   8.571  0.00  0.00    -0.281 OA
HETATM    6  C   UNK N   1      34.417  17.019   9.065  0.00  0.00     0.161 A 
ENDROOT
BRANCH   1   7
HETATM    7  O   UNK N   1      33.317  15.233   7.802  0.00  0.00    -0.345 OA
BRANCH   7   8
HETATM    8  C   UNK N   1      31.959  15.098   7.708  0.00  0.00     0.176 C 
BRANCH   8   9
HETATM    9  C   UNK N   1      31.569  15.011   6.249  0.00  0.00     0.026 C 
BRANCH   9  10
HETATM   10  C   UNK N   1      30.843  16.276   5.851  0.00  0.00    -0.002 C 
HETATM   11  C   UNK N   1      30.301  16.957   7.089  0.00  0.00     0.005 C 
ENDBRANCH   9  10
ENDBRANCH   8   9
ENDBRANCH   7   8
ENDBRANCH   1   7
BRANCH   6  12
HETATM   12  O   UNK N   1      34.534  16.586  10.345  0.00  0.00    -0.345 OA
BRANCH  12  13
HETATM   13  C   UNK N   1      35.788  16.373  10.869  0.00  0.00     0.176 C 
BRANCH  13  14
HETATM   14  C   UNK N   1      36.414  15.102  10.348  0.00  0.00     0.026 C 
BRANCH  14  15
HETATM   15  C   UNK N   1      36.158  14.028  11.386  0.00  0.00    -0.002 C 
HETATM   16  C   UNK N   1      36.085  14.636  12.769  0.00  0.00     0.005 C 
ENDBRANCH  14  15
ENDBRANCH  13  14
ENDBRANCH  12  13
ENDBRANCH   6  12
TORSDOF 8
ENDMDL
MODEL 5
REMARK VINA RESULT:      -4.7      9.930     12.660
REMARK  8 active torsions:
REMARK  status: ('A' for Active; 'I' for Inactive)
REMARK    1  A    between atoms: C_2  and  C_3 
REMARK    2  A    between atoms: C_3  and  C_4 
REMARK    3  A    between atoms: C_4  and  O_5 
REMARK    4  A    between atoms: O_5  and  C_6 
REMARK    5  A    between atoms: C_11  and  O_12 
REMARK    6  A    between atoms: O_12  and  C_13 
REMARK    7  A    between atoms: C_13  and  C_14 
REMARK    8  A    between atoms: C_14  and  C_15 
ROOT
HETATM    1  C   UNK N   1      34.387  17.492   7.184  0.00  0.00     0.161 A 
HETATM    2  C   UNK N   1      34.839  18.276   8.341  0.00  0.00     0.260 A 
HETATM    3  O   UNK N   1      35.283  19.395   8.519  0.00  0.00    -0.281 OA
HETATM    4  C   UNK N   1      34.520  17.123   9.170  0.00  0.00     0.260 A 
HETATM    5  O   UNK N   1      34.584  16.860  10.362  0.00  0.00    -0.281 OA
HETATM    6  C   UNK N   1      34.094  16.431   7.951  0.00  0.00     0.161 A 
ENDROOT
BRANCH   1   7
HETATM    7  O   UNK N   1      34.277  17.682   5.855  0.00  0.00    -0.345 OA
BRANCH   7   8
HETATM    8  C   UNK N   1      33.058  17.686   5.232  0.00  0.00     0.176 C 
BRANCH   8   9
HETATM    9  C   UNK N   1      33.017  16.565   4.217  0.00  0.00     0.026 C 
BRANCH   9  10
HETATM   10  C   UNK N   1      32.210  17.010   3.018  0.00  0.00    -0.002 C 
HETATM   11  C   UNK N   1      30.819  16.420   3.098  0.00  0.00     0.005 C 
ENDBRANCH   9  10
ENDBRANCH   8   9
ENDBRANCH   7   8
ENDBRANCH   1   7
BRANCH   6  12
HETATM   12  O   UNK N   1      33.594  15.209   7.643  0.00  0.00    -0.345 OA
BRANCH  12  13
HETATM   13  C   UNK N   1      32.270  14.941   7.900  0.00  0.00     0.176 C 
BRANCH  13  14
HETATM   14  C   UNK N   1      31.457  16.200   8.074  0.00  0.00     0.026 C 
BRANCH  14  15
HETATM   15  C   UNK N   1      30.457  16.238   6.935  0.00  0.00    -0.002 C 
HETATM   16  C   UNK N   1      29.638  17.509   6.992  0.00  0.00     0.005 C 
ENDBRANCH  14  15
ENDBRANCH  13  14
ENDBRANCH  12  13
ENDBRANCH   6  12
TORSDOF 8
ENDMDL
MODEL 6
REMARK VINA RESULT:      -4.7      2.139      3.655
REMARK  8 active torsions:
REMARK  status: ('A' for Active; 'I' for Inactive)
REMARK    1  A    between atoms: C_2  and  C_3 
REMARK    2  A    between atoms: C_3  and  C_4 
REMARK    3  A    between atoms: C_4  and  O_5 
REMARK    4  A    between atoms: O_5  and  C_6 
REMARK    5  A    between atoms: C_11  and  O_12 
REMARK    6  A    between atoms: O_12  and  C_13 
REMARK    7  A    between atoms: C_13  and  C_14 
REMARK    8  A    between atoms: C_14  and  C_15 
ROOT
HETATM    1  C   UNK N   1      23.794  19.227   3.787  0.00  0.00     0.161 A 
HETATM    2  C   UNK N   1      23.634  20.492   3.058  0.00  0.00     0.260 A 
HETATM    3  O   UNK N   1      22.714  21.250   2.813  0.00  0.00    -0.281 OA
HETATM    4  C   UNK N   1      25.059  20.431   2.763  0.00  0.00     0.260 A 
HETATM    5  O   UNK N   1      25.855  21.130   2.153  0.00  0.00    -0.281 OA
HETATM    6  C   UNK N   1      25.106  19.174   3.514  0.00  0.00     0.161 A 
ENDROOT
BRANCH   1   7
HETATM    7  O   UNK N   1      22.999  18.390   4.481  0.00  0.00    -0.345 OA
BRANCH   7   8
HETATM    8  C   UNK N   1      22.308  17.384   3.862  0.00  0.00     0.176 C 
BRANCH   8   9
HETATM    9  C   UNK N   1      20.824  17.605   4.062  0.00  0.00     0.026 C 
BRANCH   9  10
HETATM   10  C   UNK N   1      20.187  17.936   2.731  0.00  0.00    -0.002 C 
HETATM   11  C   UNK N   1      19.755  19.386   2.725  0.00  0.00     0.005 C 
ENDBRANCH   9  10
ENDBRANCH   8   9
ENDBRANCH   7   8
ENDBRANCH   1   7
BRANCH   6  12
HETATM   12  O   UNK N   1      26.058  18.266   3.843  0.00  0.00    -0.345 OA
BRANCH  12  13
HETATM   13  C   UNK N   1      26.756  18.420   5.017  0.00  0.00     0.176 C 
BRANCH  13  14
HETATM   14  C   UNK N   1      27.755  19.549   4.942  0.00  0.00     0.026 C 
BRANCH  14  15
HETATM   15  C   UNK N   1      27.648  20.318   6.245  0.00  0.00    -0.002 C 
HETATM   16  C   UNK N   1      26.654  21.451   6.110  0.00  0.00     0.005 C 
ENDBRANCH  14  15
ENDBRANCH  13  14
ENDBRANCH  12  13
ENDBRANCH   6  12
TORSDOF 8
ENDMDL
MODEL 7
REMARK VINA RESULT:      -4.7     12.764     14.670
REMARK  8 active torsions:
REMARK  status: ('A' for Active; 'I' for Inactive)
REMARK    1  A    between atoms: C_2  and  C_3 
REMARK    2  A    between atoms: C_3  and  C_4 
REMARK    3  A    between atoms: C_4  and  O_5 
REMARK    4  A    between atoms: O_5  and  C_6 
REMARK    5  A    between atoms: C_11  and  O_12 
REMARK    6  A    between atoms: O_12  and  C_13 
REMARK    7  A    between atoms: C_13  and  C_14 
REMARK    8  A    between atoms: C_14  and  C_15 
ROOT
HETATM    1  C   UNK N   1      34.623  17.177   9.293  0.00  0.00     0.161 A 
HETATM    2  C   UNK N   1      34.850  18.324   8.403  0.00  0.00     0.260 A 
HETATM    3  O   UNK N   1      35.295  19.450   8.524  0.00  0.00    -0.281 OA
HETATM    4  C   UNK N   1      34.310  17.514   7.321  0.00  0.00     0.260 A 
HETATM    5  O   UNK N   1      34.105  17.676   6.127  0.00  0.00    -0.281 OA
HETATM    6  C   UNK N   1      34.125  16.433   8.293  0.00  0.00     0.161 A 
ENDROOT
BRANCH   1   7
HETATM    7  O   UNK N   1      34.809  16.898  10.597  0.00  0.00    -0.345 OA
BRANCH   7   8
HETATM    8  C   UNK N   1      35.779  16.026  11.010  0.00  0.00     0.176 C 
BRANCH   8   9
HETATM    9  C   UNK N   1      35.123  14.826  11.657  0.00  0.00     0.026 C 
BRANCH   9  10
HETATM   10  C   UNK N   1      35.956  14.380  12.838  0.00  0.00    -0.002 C 
HETATM   11  C   UNK N   1      36.738  13.139  12.464  0.00  0.00     0.005 C 
ENDBRANCH   9  10
ENDBRANCH   8   9
ENDBRANCH   7   8
ENDBRANCH   1   7
BRANCH   6  12
HETATM   12  O   UNK N   1      33.649  15.164   8.268  0.00  0.00    -0.345 OA
BRANCH  12  13
HETATM   13  C   UNK N   1      34.330  14.205   7.556  0.00  0.00     0.176 C 
BRANCH  13  14
HETATM   14  C   UNK N   1      35.826  14.375   7.657  0.00  0.00     0.026 C 
BRANCH  14  15
HETATM   15  C   UNK N   1      36.345  13.214   8.482  0.00  0.00    -0.002 C 
HETATM   16  C   UNK N   1      37.764  13.480   8.936  0.00  0.00     0.005 C 
ENDBRANCH  14  15
ENDBRANCH  13  14
ENDBRANCH  12  13
ENDBRANCH   6  12
TORSDOF 8
ENDMDL
MODEL 8
REMARK VINA RESULT:      -4.7      8.140     11.188
REMARK  8 active torsions:
REMARK  status: ('A' for Active; 'I' for Inactive)
REMARK    1  A    between atoms: C_2  and  C_3 
REMARK    2  A    between atoms: C_3  and  C_4 
REMARK    3  A    between atoms: C_4  and  O_5 
REMARK    4  A    between atoms: O_5  and  C_6 
REMARK    5  A    between atoms: C_11  and  O_12 
REMARK    6  A    between atoms: O_12  and  C_13 
REMARK    7  A    between atoms: C_13  and  C_14 
REMARK    8  A    between atoms: C_14  and  C_15 
ROOT
HETATM    1  C   UNK N   1      32.009  17.240   6.765  0.00  0.00     0.161 A 
HETATM    2  C   UNK N   1      33.448  17.532   6.728  0.00  0.00     0.260 A 
HETATM    3  O   UNK N   1      34.313  17.557   5.872  0.00  0.00    -0.281 OA
HETATM    4  C   UNK N   1      33.375  17.774   8.161  0.00  0.00     0.260 A 
HETATM    5  O   UNK N   1      34.167  18.095   9.034  0.00  0.00    -0.281 OA
HETATM    6  C   UNK N   1      31.945  17.464   8.086  0.00  0.00     0.161 A 
ENDROOT
BRANCH   1   7
HETATM    7  O   UNK N   1      31.059  16.884   5.879  0.00  0.00    -0.345 OA
BRANCH   7   8
HETATM    8  C   UNK N   1      30.880  17.571   4.709  0.00  0.00     0.176 C 
BRANCH   8   9
HETATM    9  C   UNK N   1      31.073  16.624   3.544  0.00  0.00     0.026 C 
BRANCH   9  10
HETATM   10  C   UNK N   1      32.369  16.957   2.841  0.00  0.00    -0.002 C 
HETATM   11  C   UNK N   1      33.326  15.792   2.967  0.00  0.00     0.005 C 
ENDBRANCH   9  10
ENDBRANCH   8   9
ENDBRANCH   7   8
ENDBRANCH   1   7
BRANCH   6  12
HETATM   12  O   UNK N   1      30.908  17.406   8.959  0.00  0.00    -0.345 OA
BRANCH  12  13
HETATM   13  C   UNK N   1      30.246  18.565   9.293  0.00  0.00     0.176 C 
BRANCH  13  14
HETATM   14  C   UNK N   1      28.751  18.369   9.355  0.00  0.00     0.026 C 
BRANCH  14  15
HETATM   15  C   UNK N   1      28.192  18.834   8.025  0.00  0.00    -0.002 C 
HETATM   16  C   UNK N   1      27.965  17.655   7.105  0.00  0.00     0.005 C 
ENDBRANCH  14  15
ENDBRANCH  13  14
ENDBRANCH  12  13
ENDBRANCH   6  12
TORSDOF 8
ENDMDL
MODEL 9
REMARK VINA RESULT:      -4.7      9.677     12.088
REMARK  8 active torsions:
REMARK  status: ('A' for Active; 'I' for Inactive)
REMARK    1  A    between atoms: C_2  and  C_3 
REMARK    2  A    between atoms: C_3  and  C_4 
REMARK    3  A    between atoms: C_4  and  O_5 
REMARK    4  A    between atoms: O_5  and  C_6 
REMARK    5  A    between atoms: C_11  and  O_12 
REMARK    6  A    between atoms: O_12  and  C_13 
REMARK    7  A    between atoms: C_13  and  C_14 
REMARK    8  A    between atoms: C_14  and  C_15 
ROOT
HETATM    1  C   UNK N   1      33.677  16.652   8.266  0.00  0.00     0.161 A 
HETATM    2  C   UNK N   1      34.561  17.187   9.311  0.00  0.00     0.260 A 
HETATM    3  O   UNK N   1      34.931  16.826  10.412  0.00  0.00    -0.281 OA
HETATM    4  C   UNK N   1      34.791  18.333   8.444  0.00  0.00     0.260 A 
HETATM    5  O   UNK N   1      35.449  19.361   8.511  0.00  0.00    -0.281 OA
HETATM    6  C   UNK N   1      33.892  17.710   7.469  0.00  0.00     0.161 A 
ENDROOT
BRANCH   1   7
HETATM    7  O   UNK N   1      32.919  15.552   8.094  0.00  0.00    -0.345 OA
BRANCH   7   8
HETATM    8  C   UNK N   1      31.570  15.640   7.880  0.00  0.00     0.176 C 
BRANCH   8   9
HETATM    9  C   UNK N   1      30.946  16.466   8.984  0.00  0.00     0.026 C 
BRANCH   9  10
HETATM   10  C   UNK N   1      30.145  17.592   8.371  0.00  0.00    -0.002 C 
HETATM   11  C   UNK N   1      29.626  18.497   9.467  0.00  0.00     0.005 C 
ENDBRANCH   9  10
ENDBRANCH   8   9
ENDBRANCH   7   8
ENDBRANCH   1   7
BRANCH   6  12
HETATM   12  O   UNK N   1      33.418  18.018   6.237  0.00  0.00    -0.345 OA
BRANCH  12  13
HETATM   13  C   UNK N   1      33.692  17.178   5.183  0.00  0.00     0.176 C 
BRANCH  13  14
HETATM   14  C   UNK N   1      32.702  17.336   4.055  0.00  0.00     0.026 C 
BRANCH  14  15
HETATM   15  C   UNK N   1      31.438  16.611   4.476  0.00  0.00    -0.002 C 
HETATM   16  C   UNK N   1      30.286  17.584   4.595  0.00  0.00     0.005 C 
ENDBRANCH  14  15
ENDBRANCH  13  14
ENDBRANCH  12  13
ENDBRANCH   6  12
TORSDOF 8
ENDMDL
