REMARK  1 active torsions:
REMARK  status: ('A' for Active; 'I' for Inactive)
REMARK    1  A    between atoms: N_13  and  C_10 
ROOT
HETATM    1  C   UNK N   1       4.776  -1.174   0.000  0.00  0.00     0.004 A 
HETATM    2  C   UNK N   1       4.822   0.224   0.000  0.00  0.00     0.024 A 
HETATM    3  C   UNK N   1       3.542  -1.833   0.000  0.00  0.00     0.029 A 
HETATM    4  C   UNK N   1       2.408   0.305   0.000  0.00  0.00     0.053 A 
HETATM    5  C   UNK N   1       3.636   0.961   0.000  0.00  0.00     0.036 A 
HETATM    6  C   UNK N   1       2.343  -1.099   0.000  0.00  0.00     0.031 A 
HETATM    7 Cl   UNK N   1       3.678   2.709   0.000  0.00  0.00    -0.084 Cl
ENDROOT
BRANCH   6   8
HETATM    8  N   UNK N   1       1.072  -1.755  -0.000  0.00  0.00    -0.378 N 
HETATM    9  C   UNK N   1       1.038  -3.201   0.000  0.00  0.00     0.142 A 
HETATM   10  C   UNK N   1      -0.322  -3.882  -0.000  0.00  0.00     0.133 A 
HETATM   11  N   UNK N   1      -1.540  -3.075   0.000  0.00  0.00    -0.418 N 
HETATM   12  C   UNK N   1      -1.470  -1.618  -0.000  0.00  0.00     0.133 A 
HETATM   13  H   UNK N   1      -2.450  -3.536   0.000  0.00  0.00     0.153 HD
HETATM   14  C   UNK N   1      -0.116  -0.934   0.000  0.00  0.00     0.142 A 
ENDBRANCH   6   8
TORSDOF 1
