REMARK  13 active torsions:
REMARK  status: ('A' for Active; 'I' for Inactive)
REMARK    1  A    between atoms: C_3  and  O_26 
REMARK    2  A    between atoms: C_6  and  C_7 
REMARK    3  A    between atoms: C_7  and  C_8 
REMARK    4  A    between atoms: C_15  and  C_10 
REMARK    5  A    between atoms: C_16  and  O_25 
REMARK    6  A    between atoms: C_17  and  O_24 
REMARK    7  A    between atoms: C_18  and  O_23 
REMARK    8  A    between atoms: C_19  and  C_21 
REMARK    9  A    between atoms: C_21  and  O_22 
REMARK   10  A    between atoms: O_26  and  C_27 
REMARK   11  A    between atoms: C_27  and  C_28 
REMARK   12  A    between atoms: C_28  and  O_29 
REMARK   13  A    between atoms: O_29  and  C_30 
ROOT
HETATM    1  C   UNK N   1      -8.084   6.851   0.014  0.00  0.00    -0.032 A 
HETATM    2  C   UNK N   1      -9.266   6.103  -0.003  0.00  0.00     0.019 A 
HETATM    3  C   UNK N   1     -10.522   6.695  -0.062  0.00  0.00    -0.026 A 
HETATM    4  C   UNK N   1     -10.608   8.092  -0.098  0.00  0.00     0.011 A 
HETATM    5  C   UNK N   1      -9.437   8.866  -0.097  0.00  0.00     0.025 A 
HETATM    6  C   UNK N   1      -8.175   8.253  -0.042  0.00  0.00     0.040 A 
HETATM    7 Cl   UNK N   1      -6.735   9.260  -0.033  0.00  0.00    -0.084 Cl
ENDROOT
BRANCH   3   8
HETATM    8  C   UNK N   1     -11.760   5.829  -0.031  0.00  0.00     0.186 C 
HETATM    9  C   UNK N   1     -11.502   4.296  -0.023  0.00  0.00     0.182 C 
HETATM   10  C   UNK N   1     -12.816   3.536  -0.208  0.00  0.00     0.181 C 
HETATM   11  C   UNK N   1     -13.992   4.400   0.222  0.00  0.00     0.180 C 
HETATM   12  C   UNK N   1     -13.982   5.704  -0.624  0.00  0.00     0.177 C 
HETATM   13  O   UNK N   1     -12.689   6.147  -1.038  0.00  0.00    -0.368 OA
BRANCH   9  14
HETATM   14  O   UNK N   1     -10.645   3.914  -1.059  0.00  0.00    -0.390 OA
HETATM   15  H   UNK N   1     -10.578   3.266  -1.778  0.00  0.00     0.210 HD
ENDBRANCH   9  14
BRANCH  10  16
HETATM   16  O   UNK N   1     -12.773   2.338   0.506  0.00  0.00    -0.390 OA
HETATM   17  H   UNK N   1     -13.480   1.896   1.003  0.00  0.00     0.210 HD
ENDBRANCH  10  16
BRANCH  11  18
HETATM   18  O   UNK N   1     -15.196   3.716   0.045  0.00  0.00    -0.390 OA
HETATM   19  H   UNK N   1     -16.026   4.203  -0.077  0.00  0.00     0.210 HD
ENDBRANCH  11  18
BRANCH  12  20
HETATM   20  C   UNK N   1     -14.752   6.828   0.059  0.00  0.00     0.198 C 
BRANCH  20  21
HETATM   21  O   UNK N   1     -16.085   6.461   0.247  0.00  0.00    -0.398 OA
HETATM   22  H   UNK N   1     -16.769   7.137   0.378  0.00  0.00     0.209 HD
ENDBRANCH  20  21
ENDBRANCH  12  20
ENDBRANCH   3   8
BRANCH   1  23
HETATM   23  C   UNK N   1      -6.748   6.134   0.089  0.00  0.00     0.078 C 
BRANCH  23  24
HETATM   24  C   UNK N   1      -6.934   4.650   0.243  0.00  0.00    -0.054 A 
HETATM   25  C   UNK N   1      -7.383   4.127   1.464  0.00  0.00     0.010 A 
HETATM   26  C   UNK N   1      -7.741   2.780   1.562  0.00  0.00     0.037 A 
HETATM   27  C   UNK N   1      -7.674   1.949   0.440  0.00  0.00     0.068 A 
HETATM   28  C   UNK N   1      -7.203   2.471  -0.779  0.00  0.00     0.037 A 
HETATM   29  C   UNK N   1      -6.839   3.818  -0.876  0.00  0.00     0.010 A 
BRANCH  27  30
HETATM   30  O   UNK N   1      -8.100   0.668   0.548  0.00  0.00    -0.349 OA
BRANCH  30  31
HETATM   31  C   UNK N   1      -8.246  -0.171  -0.535  0.00  0.00     0.201 C 
BRANCH  31  32
HETATM   32  C   UNK N   1      -7.564  -1.498  -0.273  0.00  0.00     0.195 C 
BRANCH  32  33
HETATM   33  O   UNK N   1      -6.183  -1.373  -0.446  0.00  0.00    -0.384 OA
BRANCH  33  34
HETATM   34  C   UNK N   1      -5.612  -2.199   0.526  0.00  0.00     0.121 A 
HETATM   35  C   UNK N   1      -4.251  -2.660   0.040  0.00  0.00     0.034 A 
HETATM   36  C   UNK N   1      -5.427  -3.604  -0.029  0.00  0.00     0.034 A 
ENDBRANCH  33  34
ENDBRANCH  32  33
ENDBRANCH  31  32
ENDBRANCH  30  31
ENDBRANCH  27  30
ENDBRANCH  23  24
ENDBRANCH   1  23
TORSDOF 13
