REMARK  3 active torsions:
REMARK  status: ('A' for Active; 'I' for Inactive)
REMARK    1  A    between atoms: O_21  and  C_11 
REMARK    2  A    between atoms: O_21  and  C_12 
REMARK    3  A    between atoms: S_22  and  C_14 
ROOT
HETATM    1  C   UNK N   1       1.438  -0.767   0.001  0.00  0.00     0.058 A 
HETATM    2  C   UNK N   1       0.957   2.009  -0.002  0.00  0.00     0.071 A 
HETATM    3  C   UNK N   1       2.518   0.150   0.001  0.00  0.00     0.070 A 
HETATM    4  C   UNK N   1       0.150  -0.241   0.000  0.00  0.00     0.062 A 
HETATM    5  C   UNK N   1      -0.072   1.092  -0.001  0.00  0.00     0.064 A 
HETATM    6  C   UNK N   1       2.275   1.559  -0.000  0.00  0.00     0.100 A 
HETATM    7  C   UNK N   1      -1.947   0.114  -0.001  0.00  0.00     0.144 A 
HETATM    8 Cl   UNK N   1       4.159  -0.475   0.003  0.00  0.00    -0.081 Cl
HETATM    9  N   UNK N   1      -1.027  -0.890   0.000  0.00  0.00    -0.335 N 
HETATM   10  N   UNK N   1      -1.383   1.345  -0.002  0.00  0.00    -0.335 N 
ATOM     11  HN  UNK N   1      -1.850   2.252  -0.003  1.00  0.00     0.168 HD
HETATM   12  H   UNK N   1      -1.187  -1.861   0.001  0.00  0.00     0.168 HD
ENDROOT
BRANCH   6  13
HETATM   13  O   UNK N   1       3.336   2.415  -0.000  0.00  0.00    -0.307 OA
BRANCH  13  14
HETATM   14  C   UNK N   1       3.599   3.765  -0.000  0.00  0.00     0.099 A 
HETATM   15  C   UNK N   1       4.966   4.076  -0.002  0.00  0.00     0.039 A 
HETATM   16  C   UNK N   1       5.430   5.386  -0.003  0.00  0.00     0.005 A 
HETATM   17  C   UNK N   1       4.530   6.439  -0.002  0.00  0.00     0.026 A 
HETATM   18  C   UNK N   1       3.163   6.194   0.001  0.00  0.00     0.058 A 
HETATM   19  C   UNK N   1       2.662   4.870   0.001  0.00  0.00     0.089 A 
HETATM   20 Cl   UNK N   1       2.086   7.591   0.002  0.00  0.00    -0.082 Cl
HETATM   21 Cl   UNK N   1       0.905   4.754   0.005  0.00  0.00    -0.080 Cl
ENDBRANCH  13  14
ENDBRANCH   6  13
BRANCH   7  22
HETATM   22  S   UNK N   1      -3.730  -0.114  -0.001  0.00  0.00    -0.098 SA
HETATM   23  C   UNK N   1      -3.691  -1.928  -0.001  0.00  0.00     0.099 C 
ENDBRANCH   7  22
TORSDOF 3
