REMARK  9 active torsions:
REMARK  status: ('A' for Active; 'I' for Inactive)
REMARK    1  A    between atoms: C_2  and  C_3 
REMARK    2  A    between atoms: C_3  and  C_4 
REMARK    3  A    between atoms: C_3  and  C_6 
REMARK    4  A    between atoms: C_6  and  O_7 
REMARK    5  A    between atoms: O_7  and  C_8 
REMARK    6  A    between atoms: C_10  and  C_8 
REMARK    7  A    between atoms: C_14  and  O_20 
REMARK    8  A    between atoms: O_20  and  C_21 
REMARK    9  A    between atoms: C_26  and  C_27 
ROOT
HETATM    1  C   UNK N   1       6.156  -4.090  -0.092  0.00  0.00     0.177 C 
HETATM    2  C   UNK N   1       6.910  -4.530   1.137  0.00  0.00     0.040 C 
HETATM    3  C   UNK N   1       7.562  -5.792   0.638  0.00  0.00    -0.004 C 
HETATM    4  C   UNK N   1       8.700  -6.328   1.471  0.00  0.00     0.037 C 
HETATM    5  C   UNK N   1       9.552  -7.149   0.506  0.00  0.00     0.129 C 
HETATM    6  C   UNK N   1       8.714  -8.344   0.018  0.00  0.00     0.033 C 
HETATM    7  C   UNK N   1       7.406  -7.904  -0.665  0.00  0.00     0.009 C 
HETATM    8  C   UNK N   1       6.602  -6.884   0.155  0.00  0.00     0.007 C 
HETATM    9  C   UNK N   1       5.556  -6.272  -0.793  0.00  0.00     0.119 C 
HETATM   10  N   UNK N   1       5.028  -4.996  -0.303  0.00  0.00    -0.408 N 
HETATM   11  H   UNK N   1       4.045  -4.778  -0.138  0.00  0.00     0.154 HD
ENDROOT
BRANCH   5  12
HETATM   12  O   UNK N   1       9.957  -6.368  -0.574  0.00  0.00    -0.345 OA
BRANCH  12  13
HETATM   13  C   UNK N   1      10.625  -5.196  -0.413  0.00  0.00     0.085 A 
HETATM   14  C   UNK N   1       9.897  -4.003  -0.509  0.00  0.00     0.038 A 
HETATM   15  C   UNK N   1      10.512  -2.771  -0.322  0.00  0.00     0.004 A 
HETATM   16  C   UNK N   1      11.872  -2.713  -0.046  0.00  0.00     0.025 A 
HETATM   17  C   UNK N   1      12.636  -3.880   0.039  0.00  0.00     0.050 A 
HETATM   18  C   UNK N   1      12.021  -5.154  -0.147  0.00  0.00     0.065 A 
HETATM   19 Cl   UNK N   1      14.349  -3.670   0.380  0.00  0.00    -0.083 Cl
BRANCH  18  20
HETATM   20  C   UNK N   1      12.810  -6.422  -0.082  0.00  0.00     0.145 A 
HETATM   21  N   UNK N   1      14.132  -6.506   0.143  0.00  0.00    -0.270 N 
HETATM   22  N   UNK N   1      14.421  -7.797   0.104  0.00  0.00    -0.007 NA
HETATM   23  H   UNK N   1      14.757  -5.762   0.303  0.00  0.00     0.185 HD
HETATM   24  N   UNK N   1      13.320  -8.487  -0.138  0.00  0.00    -0.007 NA
HETATM   25  N   UNK N   1      12.300  -7.654  -0.262  0.00  0.00    -0.270 N 
ATOM     26  HN  UNK N   1      11.328  -7.896  -0.454  1.00  0.00     0.185 HD
ENDBRANCH  18  20
ENDBRANCH  12  13
ENDBRANCH   5  12
BRANCH   1  27
HETATM   27  C   UNK N   1       5.728  -2.671  -0.091  0.00  0.00     0.281 C 
HETATM   28  O   UNK N   1       6.195  -1.907  -0.924  0.00  0.00    -0.263 OA
BRANCH  27  29
HETATM   29  O   UNK N   1       4.749  -2.270   0.745  0.00  0.00    -0.319 OA
BRANCH  29  30
HETATM   30  C   UNK N   1       3.892  -1.258   0.389  0.00  0.00     0.183 C 
BRANCH  30  31
HETATM   31  C   UNK N   1       2.475  -1.815   0.339  0.00  0.00     0.009 C 
BRANCH  31  32
HETATM   32  C   UNK N   1       1.545  -0.747  -0.213  0.00  0.00     0.002 C 
HETATM   33  C   UNK N   1       0.092  -1.109   0.033  0.00  0.00     0.005 C 
ENDBRANCH  31  32
BRANCH  31  34
HETATM   34  C   UNK N   1       2.420  -3.080  -0.519  0.00  0.00     0.002 C 
HETATM   35  C   UNK N   1       1.348  -4.024  -0.009  0.00  0.00     0.005 C 
ENDBRANCH  31  34
ENDBRANCH  30  31
ENDBRANCH  29  30
ENDBRANCH  27  29
ENDBRANCH   1  27
TORSDOF 9
