REMARK  15 active torsions:
REMARK  status: ('A' for Active; 'I' for Inactive)
REMARK    1  A    between atoms: C_2  and  C_4 
REMARK    2  A    between atoms: C_4  and  O_6 
REMARK    3  A    between atoms: O_6  and  C_7 
REMARK    4  A    between atoms: C_8  and  C_7 
REMARK    5  A    between atoms: C_8  and  N_34 
REMARK    6  A    between atoms: C_9  and  O_28 
REMARK    7  A    between atoms: C_10  and  O_22 
REMARK    8  A    between atoms: C_11  and  N_13 
REMARK    9  A    between atoms: C_16  and  N_21 
REMARK   10  A    between atoms: O_22  and  C_23 
REMARK   11  A    between atoms: C_23  and  C_25 
REMARK   12  A    between atoms: O_28  and  C_29 
REMARK   13  A    between atoms: C_29  and  C_31 
REMARK   14  A    between atoms: N_34  and  N_36 
REMARK   15  A    between atoms: N_36  and  N_37 
ROOT
HETATM    1  C   UNK N   1       4.961  -1.975  -0.435  0.00  0.00     0.213 C 
HETATM    2  C   UNK N   1       6.442  -2.408  -0.686  0.00  0.00     0.225 C 
HETATM    3  C   UNK N   1       6.664  -3.369   0.475  0.00  0.00     0.215 C 
HETATM    4  C   UNK N   1       5.427  -4.044   0.028  0.00  0.00     0.267 C 
HETATM    5  O   UNK N   1       4.397  -3.124   0.130  0.00  0.00    -0.326 OA
ENDROOT
BRANCH   1   6
HETATM    6  C   UNK N   1       4.077  -1.625  -1.653  0.00  0.00     0.245 C 
BRANCH   6   7
HETATM    7  O   UNK N   1       2.765  -2.102  -1.473  0.00  0.00    -0.316 OA
BRANCH   7   8
HETATM    8  C   UNK N   1       1.931  -1.876  -0.398  0.00  0.00     0.262 C 
HETATM    9  O   UNK N   1       2.158  -0.986   0.403  0.00  0.00    -0.265 OA
BRANCH   8  10
HETATM   10  C   UNK N   1       0.691  -2.705  -0.187  0.00  0.00     0.077 C 
HETATM   11  C   UNK N   1       0.140  -3.336  -1.444  0.00  0.00     0.020 C 
HETATM   12  C   UNK N   1       0.725  -3.654   1.012  0.00  0.00     0.020 C 
ENDBRANCH   8  10
ENDBRANCH   7   8
ENDBRANCH   6   7
ENDBRANCH   1   6
BRANCH   1  13
HETATM   13  N   UNK N   1       4.910  -0.920   0.559  0.00  0.00    -0.212 N 
ATOM     14  HN  UNK N   1       5.242  -1.105   1.506  1.00  0.00     0.201 HD
BRANCH  13  15
HETATM   15  N   UNK N   1       4.477   0.187   0.281  0.00  0.00    -0.245 NA
BRANCH  15  16
HETATM   16  N   UNK N   1       4.032   1.288   0.017  0.00  0.00    -0.261 N 
HETATM   17  H   UNK N   1       4.623   2.046  -0.197  0.00  0.00     0.193 HD
ATOM     18  HN  UNK N   1       3.022   1.430   0.017  1.00  0.00     0.193 HD
ENDBRANCH  15  16
ENDBRANCH  13  15
ENDBRANCH   1  13
BRANCH   2  19
HETATM   19  O   UNK N   1       7.408  -1.459  -0.940  0.00  0.00    -0.308 OA
BRANCH  19  20
HETATM   20  C   UNK N   1       7.897  -0.536  -0.084  0.00  0.00     0.262 C 
HETATM   21  O   UNK N   1       7.353  -0.298   0.984  0.00  0.00    -0.265 OA
BRANCH  20  22
HETATM   22  C   UNK N   1       9.163   0.147  -0.445  0.00  0.00     0.077 C 
HETATM   23  C   UNK N   1       8.935   1.633  -0.618  0.00  0.00     0.020 C 
HETATM   24  C   UNK N   1      10.202  -0.121   0.627  0.00  0.00     0.020 C 
ENDBRANCH  20  22
ENDBRANCH  19  20
ENDBRANCH   2  19
BRANCH   3  25
HETATM   25  O   UNK N   1       7.723  -4.249   0.553  0.00  0.00    -0.308 OA
BRANCH  25  26
HETATM   26  C   UNK N   1       8.924  -4.247  -0.057  0.00  0.00     0.262 C 
HETATM   27  O   UNK N   1       9.197  -3.429  -0.921  0.00  0.00    -0.265 OA
BRANCH  26  28
HETATM   28  C   UNK N   1       9.918  -5.287   0.371  0.00  0.00     0.077 C 
HETATM   29  C   UNK N   1      11.290  -5.099  -0.247  0.00  0.00     0.020 C 
HETATM   30  C   UNK N   1       9.387  -6.668   0.034  0.00  0.00     0.020 C 
ENDBRANCH  26  28
ENDBRANCH  25  26
ENDBRANCH   3  25
BRANCH   4  31
HETATM   31  N   UNK N   1       5.066  -5.460   0.121  0.00  0.00    -0.280 N 
HETATM   32  C   UNK N   1       6.024  -6.418  -0.021  0.00  0.00     0.102 A 
HETATM   33  C   UNK N   1       5.666  -7.763  -0.114  0.00  0.00     0.065 A 
HETATM   34  C   UNK N   1       4.315  -8.101  -0.075  0.00  0.00     0.103 A 
HETATM   35  N   UNK N   1       3.383  -7.138   0.059  0.00  0.00    -0.295 N 
HETATM   36  C   UNK N   1       3.736  -5.830   0.146  0.00  0.00     0.330 A 
ATOM     37  HN  UNK N   1       2.396  -7.396   0.095  1.00  0.00     0.172 HD
HETATM   38  O   UNK N   1       2.860  -4.997   0.191  0.00  0.00    -0.246 OA
BRANCH  34  39
HETATM   39  N   UNK N   1       3.909  -9.438  -0.223  0.00  0.00    -0.385 N 
HETATM   40  H   UNK N   1       2.956  -9.659  -0.327  0.00  0.00     0.157 HD
HETATM   41  H   UNK N   1       4.582 -10.157  -0.223  0.00  0.00     0.157 HD
ENDBRANCH  34  39
ENDBRANCH   4  31
TORSDOF 15
