MODEL 1
REMARK VINA RESULT:      -8.9      0.000      0.000
REMARK  5 active torsions:
REMARK  status: ('A' for Active; 'I' for Inactive)
REMARK    1  A    between atoms: C_3  and  C_19 
REMARK    2  A    between atoms: C_5  and  O_7 
REMARK    3  A    between atoms: O_7  and  C_8 
REMARK    4  A    between atoms: C_11  and  C_15 
REMARK       I    between atoms: N_23  and  C_26 
REMARK       I    between atoms: C_26  and  N_28 
REMARK    5  A    between atoms: N_28  and  C_29 
ROOT
HETATM    1  C   UNK N   1      34.475  14.661   7.482  0.00  0.00     0.014 C 
HETATM    2  C   UNK N   1      34.935  13.714   8.336  0.00  0.00    -0.076 C 
HETATM    3  C   UNK N   1      34.784  13.902   9.794  0.00  0.00     0.054 C 
HETATM    4  C   UNK N   1      35.947  14.817  10.073  0.00  0.00     0.132 C 
HETATM    5  N   UNK N   1      37.052  13.912  10.034  0.00  0.00    -0.333 N 
HETATM    6  C   UNK N   1      37.388  13.293   8.746  0.00  0.00     0.132 C 
HETATM    7  C   UNK N   1      36.102  12.837   7.952  0.00  0.00     0.054 C 
HETATM    8  C   UNK N   1      37.426  13.412  11.237  0.00  0.00     0.324 C 
HETATM    9  O   UNK N   1      38.163  12.437  11.306  0.00  0.00    -0.247 OA
HETATM   10  N   UNK N   1      36.851  13.945  12.350  0.00  0.00    -0.294 N 
HETATM   11  H   UNK N   1      36.542  14.876  12.279  0.00  0.00     0.172 HD
ENDROOT
BRANCH   1  12
HETATM   12  C   UNK N   1      33.740  15.873   7.968  0.00  0.00    -0.033 A 
HETATM   13  C   UNK N   1      34.397  17.114   8.092  0.00  0.00     0.011 A 
HETATM   14  C   UNK N   1      33.718  18.305   8.151  0.00  0.00     0.004 A 
HETATM   15  C   UNK N   1      32.349  18.272   8.164  0.00  0.00     0.037 A 
HETATM   16  C   UNK N   1      31.647  17.046   8.195  0.00  0.00     0.078 A 
HETATM   17  C   UNK N   1      32.343  15.842   8.043  0.00  0.00     0.048 A 
BRANCH  16  18
HETATM   18  O   UNK N   1      30.329  17.055   8.514  0.00  0.00    -0.294 OA
BRANCH  18  19
HETATM   19  C   UNK N   1      29.484  17.733   7.689  0.00  0.00     0.147 A 
HETATM   20  C   UNK N   1      29.410  17.461   6.324  0.00  0.00     0.057 A 
HETATM   21  C   UNK N   1      28.595  18.279   5.522  0.00  0.00     0.022 A 
HETATM   22  C   UNK N   1      27.888  19.352   6.098  0.00  0.00     0.063 A 
HETATM   23  C   UNK N   1      27.954  19.545   7.464  0.00  0.00     0.106 A 
HETATM   24  N   UNK N   1      28.719  18.737   8.212  0.00  0.00    -0.346 N 
ATOM     25  HN  UNK N   1      28.730  18.879   9.221  1.00  0.00     0.167 HD
BRANCH  22  26
HETATM   26  C   UNK N   1      27.087  20.304   5.278  0.00  0.00     0.418 C 
HETATM   27  F   UNK N   1      27.258  21.583   5.772  0.00  0.00    -0.166 F 
HETATM   28  F   UNK N   1      27.504  20.245   3.965  0.00  0.00    -0.166 F 
HETATM   29  F   UNK N   1      25.736  19.987   5.337  0.00  0.00    -0.166 F 
ENDBRANCH  22  26
ENDBRANCH  18  19
ENDBRANCH  16  18
ENDBRANCH   1  12
BRANCH  10  30
HETATM   30  C   UNK N   1      36.648  13.315  13.591  0.00  0.00     0.123 A 
HETATM   31  C   UNK N   1      35.419  13.475  14.228  0.00  0.00     0.051 A 
HETATM   32  C   UNK N   1      35.131  12.708  15.350  0.00  0.00     0.022 A 
HETATM   33  C   UNK N   1      36.071  11.782  15.792  0.00  0.00     0.107 A 
HETATM   34  N   UNK N   1      37.251  11.650  15.128  0.00  0.00    -0.310 N 
HETATM   35  N   UNK N   1      37.527  12.388  14.052  0.00  0.00    -0.286 N 
ATOM     36  HN  UNK N   1      37.938  10.974  15.461  1.00  0.00     0.186 HD
ATOM     37  HN  UNK N   1      38.414  12.252  13.565  1.00  0.00     0.188 HD
ENDBRANCH  10  30
TORSDOF 5
ENDMDL
MODEL 2
REMARK VINA RESULT:      -8.8      4.010      6.427
REMARK  5 active torsions:
REMARK  status: ('A' for Active; 'I' for Inactive)
REMARK    1  A    between atoms: C_3  and  C_19 
REMARK    2  A    between atoms: C_5  and  O_7 
REMARK    3  A    between atoms: O_7  and  C_8 
REMARK    4  A    between atoms: C_11  and  C_15 
REMARK       I    between atoms: N_23  and  C_26 
REMARK       I    between atoms: C_26  and  N_28 
REMARK    5  A    between atoms: N_28  and  C_29 
ROOT
HETATM    1  C   UNK N   1      30.011  16.054   3.245  0.00  0.00     0.014 C 
HETATM    2  C   UNK N   1      31.174  15.835   3.908  0.00  0.00    -0.076 C 
HETATM    3  C   UNK N   1      31.176  15.760   5.383  0.00  0.00     0.054 C 
HETATM    4  C   UNK N   1      31.173  17.226   5.731  0.00  0.00     0.132 C 
HETATM    5  N   UNK N   1      32.530  17.593   5.481  0.00  0.00    -0.333 N 
HETATM    6  C   UNK N   1      33.006  17.559   4.093  0.00  0.00     0.132 C 
HETATM    7  C   UNK N   1      32.488  16.285   3.318  0.00  0.00     0.054 C 
HETATM    8  C   UNK N   1      33.344  17.552   6.563  0.00  0.00     0.324 C 
HETATM    9  O   UNK N   1      34.561  17.575   6.431  0.00  0.00    -0.247 OA
HETATM   10  N   UNK N   1      32.770  17.349   7.781  0.00  0.00    -0.294 N 
HETATM   11  H   UNK N   1      31.836  17.646   7.877  0.00  0.00     0.172 HD
ENDROOT
BRANCH   1  12
HETATM   12  C   UNK N   1      28.699  16.146   3.962  0.00  0.00    -0.033 A 
HETATM   13  C   UNK N   1      28.066  14.989   4.461  0.00  0.00     0.011 A 
HETATM   14  C   UNK N   1      27.098  15.039   5.433  0.00  0.00     0.004 A 
HETATM   15  C   UNK N   1      26.685  16.267   5.875  0.00  0.00     0.037 A 
HETATM   16  C   UNK N   1      27.180  17.457   5.297  0.00  0.00     0.078 A 
HETATM   17  C   UNK N   1      28.230  17.398   4.373  0.00  0.00     0.048 A 
BRANCH  16  18
HETATM   18  O   UNK N   1      26.532  18.623   5.542  0.00  0.00    -0.294 OA
BRANCH  18  19
HETATM   19  C   UNK N   1      25.390  18.869   4.842  0.00  0.00     0.147 A 
HETATM   20  C   UNK N   1      25.373  19.706   3.728  0.00  0.00     0.057 A 
HETATM   21  C   UNK N   1      24.135  19.996   3.128  0.00  0.00     0.022 A 
HETATM   22  C   UNK N   1      22.949  19.457   3.661  0.00  0.00     0.063 A 
HETATM   23  C   UNK N   1      23.026  18.591   4.734  0.00  0.00     0.106 A 
HETATM   24  N   UNK N   1      24.220  18.310   5.274  0.00  0.00    -0.346 N 
ATOM     25  HN  UNK N   1      24.257  17.645   6.046  1.00  0.00     0.167 HD
BRANCH  22  26
HETATM   26  C   UNK N   1      21.606  19.809   3.120  0.00  0.00     0.418 C 
HETATM   27  F   UNK N   1      21.695  21.001   2.427  0.00  0.00    -0.166 F 
HETATM   28  F   UNK N   1      21.170  18.806   2.280  0.00  0.00    -0.166 F 
HETATM   29  F   UNK N   1      20.687  19.967   4.149  0.00  0.00    -0.166 F 
ENDBRANCH  22  26
ENDBRANCH  18  19
ENDBRANCH  16  18
ENDBRANCH   1  12
BRANCH  10  30
HETATM   30  C   UNK N   1      33.357  16.762   8.916  0.00  0.00     0.123 A 
HETATM   31  C   UNK N   1      33.165  15.401   9.140  0.00  0.00     0.051 A 
HETATM   32  C   UNK N   1      33.891  14.768  10.140  0.00  0.00     0.022 A 
HETATM   33  C   UNK N   1      34.812  15.509  10.875  0.00  0.00     0.107 A 
HETATM   34  N   UNK N   1      34.977  16.832  10.609  0.00  0.00    -0.310 N 
HETATM   35  N   UNK N   1      34.278  17.440   9.650  0.00  0.00    -0.286 N 
ATOM     36  HN  UNK N   1      35.649  17.371  11.156  1.00  0.00     0.186 HD
ATOM     37  HN  UNK N   1      34.438  18.430   9.463  1.00  0.00     0.188 HD
ENDBRANCH  10  30
TORSDOF 5
ENDMDL
MODEL 3
REMARK VINA RESULT:      -8.4      8.346     11.456
REMARK  5 active torsions:
REMARK  status: ('A' for Active; 'I' for Inactive)
REMARK    1  A    between atoms: C_3  and  C_19 
REMARK    2  A    between atoms: C_5  and  O_7 
REMARK    3  A    between atoms: O_7  and  C_8 
REMARK    4  A    between atoms: C_11  and  C_15 
REMARK       I    between atoms: N_23  and  C_26 
REMARK       I    between atoms: C_26  and  N_28 
REMARK    5  A    between atoms: N_28  and  C_29 
ROOT
HETATM    1  C   UNK N   1      22.558  16.683   4.300  0.00  0.00     0.014 C 
HETATM    2  C   UNK N   1      22.248  16.433   5.596  0.00  0.00    -0.076 C 
HETATM    3  C   UNK N   1      22.998  15.405   6.347  0.00  0.00     0.054 C 
HETATM    4  C   UNK N   1      22.303  14.157   5.868  0.00  0.00     0.132 C 
HETATM    5  N   UNK N   1      21.084  14.192   6.611  0.00  0.00    -0.333 N 
HETATM    6  C   UNK N   1      20.129  15.267   6.313  0.00  0.00     0.132 C 
HETATM    7  C   UNK N   1      20.845  16.658   6.106  0.00  0.00     0.054 C 
HETATM    8  C   UNK N   1      21.098  13.489   7.769  0.00  0.00     0.324 C 
HETATM    9  O   UNK N   1      20.229  13.661   8.614  0.00  0.00    -0.247 OA
HETATM   10  N   UNK N   1      22.174  12.693   8.014  0.00  0.00    -0.294 N 
HETATM   11  H   UNK N   1      22.653  12.352   7.225  0.00  0.00     0.172 HD
ENDROOT
BRANCH   1  12
HETATM   12  C   UNK N   1      23.701  15.998   3.615  0.00  0.00    -0.033 A 
HETATM   13  C   UNK N   1      23.468  15.002   2.645  0.00  0.00     0.011 A 
HETATM   14  C   UNK N   1      24.421  14.628   1.730  0.00  0.00     0.004 A 
HETATM   15  C   UNK N   1      25.664  15.196   1.817  0.00  0.00     0.037 A 
HETATM   16  C   UNK N   1      25.989  16.085   2.866  0.00  0.00     0.078 A 
HETATM   17  C   UNK N   1      24.989  16.530   3.738  0.00  0.00     0.048 A 
BRANCH  16  18
HETATM   18  O   UNK N   1      27.294  16.379   3.092  0.00  0.00    -0.294 OA
BRANCH  18  19
HETATM   19  C   UNK N   1      27.630  16.846   4.327  0.00  0.00     0.147 A 
HETATM   20  C   UNK N   1      27.730  16.003   5.432  0.00  0.00     0.057 A 
HETATM   21  C   UNK N   1      27.973  16.579   6.691  0.00  0.00     0.022 A 
HETATM   22  C   UNK N   1      28.097  17.976   6.817  0.00  0.00     0.063 A 
HETATM   23  C   UNK N   1      28.043  18.761   5.683  0.00  0.00     0.106 A 
HETATM   24  N   UNK N   1      27.834  18.188   4.489  0.00  0.00    -0.346 N 
ATOM     25  HN  UNK N   1      27.828  18.782   3.661  1.00  0.00     0.167 HD
BRANCH  22  26
HETATM   26  C   UNK N   1      28.261  18.640   8.141  0.00  0.00     0.418 C 
HETATM   27  F   UNK N   1      27.769  17.809   9.129  0.00  0.00    -0.166 F 
HETATM   28  F   UNK N   1      29.596  18.901   8.365  0.00  0.00    -0.166 F 
HETATM   29  F   UNK N   1      27.555  19.836   8.182  0.00  0.00    -0.166 F 
ENDBRANCH  22  26
ENDBRANCH  18  19
ENDBRANCH  16  18
ENDBRANCH   1  12
BRANCH  10  30
HETATM   30  C   UNK N   1      22.683  12.304   9.266  0.00  0.00     0.123 A 
HETATM   31  C   UNK N   1      24.050  12.435   9.503  0.00  0.00     0.051 A 
HETATM   32  C   UNK N   1      24.538  12.243  10.789  0.00  0.00     0.022 A 
HETATM   33  C   UNK N   1      23.641  11.947  11.812  0.00  0.00     0.107 A 
HETATM   34  N   UNK N   1      22.313  11.845  11.536  0.00  0.00    -0.310 N 
HETATM   35  N   UNK N   1      21.846  12.028  10.300  0.00  0.00    -0.286 N 
ATOM     36  HN  UNK N   1      21.662  11.622  12.289  1.00  0.00     0.186 HD
ATOM     37  HN  UNK N   1      20.842  11.962  10.129  1.00  0.00     0.188 HD
ENDBRANCH  10  30
TORSDOF 5
ENDMDL
MODEL 4
REMARK VINA RESULT:      -8.3      5.498     11.092
REMARK  5 active torsions:
REMARK  status: ('A' for Active; 'I' for Inactive)
REMARK    1  A    between atoms: C_3  and  C_19 
REMARK    2  A    between atoms: C_5  and  O_7 
REMARK    3  A    between atoms: O_7  and  C_8 
REMARK    4  A    between atoms: C_11  and  C_15 
REMARK       I    between atoms: N_23  and  C_26 
REMARK       I    between atoms: C_26  and  N_28 
REMARK    5  A    between atoms: N_28  and  C_29 
ROOT
HETATM    1  C   UNK N   1      30.572  17.792   8.626  0.00  0.00     0.014 C 
HETATM    2  C   UNK N   1      29.377  17.549   8.033  0.00  0.00    -0.076 C 
HETATM    3  C   UNK N   1      29.312  16.680   6.840  0.00  0.00     0.054 C 
HETATM    4  C   UNK N   1      29.723  17.657   5.769  0.00  0.00     0.132 C 
HETATM    5  N   UNK N   1      28.533  18.431   5.601  0.00  0.00    -0.333 N 
HETATM    6  C   UNK N   1      28.106  19.284   6.716  0.00  0.00     0.132 C 
HETATM    7  C   UNK N   1      28.262  18.563   8.111  0.00  0.00     0.054 C 
HETATM    8  C   UNK N   1      27.711  18.010   4.609  0.00  0.00     0.324 C 
HETATM    9  O   UNK N   1      26.555  18.409   4.545  0.00  0.00    -0.247 OA
HETATM   10  N   UNK N   1      28.170  17.036   3.777  0.00  0.00    -0.294 N 
HETATM   11  H   UNK N   1      29.146  16.984   3.663  0.00  0.00     0.172 HD
ENDROOT
BRANCH   1  12
HETATM   12  C   UNK N   1      31.835  17.141   8.154  0.00  0.00    -0.033 A 
HETATM   13  C   UNK N   1      32.654  17.767   7.191  0.00  0.00     0.011 A 
HETATM   14  C   UNK N   1      33.971  17.427   7.011  0.00  0.00     0.004 A 
HETATM   15  C   UNK N   1      34.482  16.390   7.746  0.00  0.00     0.037 A 
HETATM   16  C   UNK N   1      33.660  15.634   8.612  0.00  0.00     0.078 A 
HETATM   17  C   UNK N   1      32.344  16.043   8.857  0.00  0.00     0.048 A 
BRANCH  16  18
HETATM   18  O   UNK N   1      34.119  14.445   9.077  0.00  0.00    -0.294 OA
BRANCH  18  19
HETATM   19  C   UNK N   1      34.582  14.405  10.357  0.00  0.00     0.147 A 
HETATM   20  C   UNK N   1      35.248  15.485  10.934  0.00  0.00     0.057 A 
HETATM   21  C   UNK N   1      35.792  15.324  12.221  0.00  0.00     0.022 A 
HETATM   22  C   UNK N   1      35.669  14.091  12.890  0.00  0.00     0.063 A 
HETATM   23  C   UNK N   1      34.954  13.071  12.295  0.00  0.00     0.106 A 
HETATM   24  N   UNK N   1      34.424  13.255  11.078  0.00  0.00    -0.346 N 
ATOM     25  HN  UNK N   1      33.874  12.500  10.670  1.00  0.00     0.167 HD
BRANCH  22  26
HETATM   26  C   UNK N   1      36.309  13.841  14.213  0.00  0.00     0.418 C 
HETATM   27  F   UNK N   1      35.330  13.533  15.138  0.00  0.00    -0.166 F 
HETATM   28  F   UNK N   1      37.201  12.796  14.104  0.00  0.00    -0.166 F 
HETATM   29  F   UNK N   1      36.988  14.971  14.651  0.00  0.00    -0.166 F 
ENDBRANCH  22  26
ENDBRANCH  18  19
ENDBRANCH  16  18
ENDBRANCH   1  12
BRANCH  10  30
HETATM   30  C   UNK N   1      27.409  16.094   3.061  0.00  0.00     0.123 A 
HETATM   31  C   UNK N   1      28.013  14.898   2.681  0.00  0.00     0.051 A 
HETATM   32  C   UNK N   1      27.230  13.881   2.150  0.00  0.00     0.022 A 
HETATM   33  C   UNK N   1      25.856  14.078   2.036  0.00  0.00     0.107 A 
HETATM   34  N   UNK N   1      25.309  15.257   2.437  0.00  0.00    -0.310 N 
HETATM   35  N   UNK N   1      26.063  16.234   2.945  0.00  0.00    -0.286 N 
ATOM     36  HN  UNK N   1      24.303  15.398   2.346  1.00  0.00     0.186 HD
ATOM     37  HN  UNK N   1      25.620  17.100   3.252  1.00  0.00     0.188 HD
ENDBRANCH  10  30
TORSDOF 5
ENDMDL
MODEL 5
REMARK VINA RESULT:      -8.2      3.607      5.799
REMARK  5 active torsions:
REMARK  status: ('A' for Active; 'I' for Inactive)
REMARK    1  A    between atoms: C_3  and  C_19 
REMARK    2  A    between atoms: C_5  and  O_7 
REMARK    3  A    between atoms: O_7  and  C_8 
REMARK    4  A    between atoms: C_11  and  C_15 
REMARK       I    between atoms: N_23  and  C_26 
REMARK       I    between atoms: C_26  and  N_28 
REMARK    5  A    between atoms: N_28  and  C_29 
ROOT
HETATM    1  C   UNK N   1      31.201  15.069   2.765  0.00  0.00     0.014 C 
HETATM    2  C   UNK N   1      32.265  15.250   3.586  0.00  0.00    -0.076 C 
HETATM    3  C   UNK N   1      32.106  15.078   5.045  0.00  0.00     0.054 C 
HETATM    4  C   UNK N   1      31.508  16.411   5.413  0.00  0.00     0.132 C 
HETATM    5  N   UNK N   1      32.648  17.270   5.369  0.00  0.00    -0.333 N 
HETATM    6  C   UNK N   1      33.277  17.510   4.064  0.00  0.00     0.132 C 
HETATM    7  C   UNK N   1      33.379  16.193   3.201  0.00  0.00     0.054 C 
HETATM    8  C   UNK N   1      33.272  17.456   6.557  0.00  0.00     0.324 C 
HETATM    9  O   UNK N   1      34.397  17.936   6.604  0.00  0.00    -0.247 OA
HETATM   10  N   UNK N   1      32.664  16.971   7.675  0.00  0.00    -0.294 N 
HETATM   11  H   UNK N   1      31.683  16.895   7.639  0.00  0.00     0.172 HD
ENDROOT
BRANCH   1  12
HETATM   12  C   UNK N   1      29.870  14.620   3.285  0.00  0.00    -0.033 A 
HETATM   13  C   UNK N   1      29.735  13.386   3.953  0.00  0.00     0.011 A 
HETATM   14  C   UNK N   1      28.668  13.103   4.769  0.00  0.00     0.004 A 
HETATM   15  C   UNK N   1      27.666  14.031   4.873  0.00  0.00     0.037 A 
HETATM   16  C   UNK N   1      27.683  15.216   4.104  0.00  0.00     0.078 A 
HETATM   17  C   UNK N   1      28.815  15.538   3.346  0.00  0.00     0.048 A 
BRANCH  16  18
HETATM   18  O   UNK N   1      26.545  15.948   4.004  0.00  0.00    -0.294 OA
BRANCH  18  19
HETATM   19  C   UNK N   1      26.543  17.190   4.561  0.00  0.00     0.147 A 
HETATM   20  C   UNK N   1      26.006  18.294   3.900  0.00  0.00     0.057 A 
HETATM   21  C   UNK N   1      26.143  19.560   4.495  0.00  0.00     0.022 A 
HETATM   22  C   UNK N   1      26.820  19.695   5.722  0.00  0.00     0.063 A 
HETATM   23  C   UNK N   1      27.287  18.563   6.360  0.00  0.00     0.106 A 
HETATM   24  N   UNK N   1      27.124  17.363   5.786  0.00  0.00    -0.346 N 
ATOM     25  HN  UNK N   1      27.449  16.538   6.288  1.00  0.00     0.167 HD
BRANCH  22  26
HETATM   26  C   UNK N   1      27.073  21.025   6.345  0.00  0.00     0.418 C 
HETATM   27  F   UNK N   1      28.431  21.180   6.547  0.00  0.00    -0.166 F 
HETATM   28  F   UNK N   1      26.603  22.020   5.515  0.00  0.00    -0.166 F 
HETATM   29  F   UNK N   1      26.432  21.122   7.573  0.00  0.00    -0.166 F 
ENDBRANCH  22  26
ENDBRANCH  18  19
ENDBRANCH  16  18
ENDBRANCH   1  12
BRANCH  10  30
HETATM   30  C   UNK N   1      33.276  16.565   8.873  0.00  0.00     0.123 A 
HETATM   31  C   UNK N   1      33.170  15.230   9.259  0.00  0.00     0.051 A 
HETATM   32  C   UNK N   1      33.927  14.770  10.329  0.00  0.00     0.022 A 
HETATM   33  C   UNK N   1      34.791  15.653  10.972  0.00  0.00     0.107 A 
HETATM   34  N   UNK N   1      34.873  16.943  10.548  0.00  0.00    -0.310 N 
HETATM   35  N   UNK N   1      34.145  17.384   9.522  0.00  0.00    -0.286 N 
ATOM     36  HN  UNK N   1      35.504  17.586  11.027  1.00  0.00     0.186 HD
ATOM     37  HN  UNK N   1      34.243  18.353   9.217  1.00  0.00     0.188 HD
ENDBRANCH  10  30
TORSDOF 5
ENDMDL
MODEL 6
REMARK VINA RESULT:      -8.1      4.541      7.064
REMARK  5 active torsions:
REMARK  status: ('A' for Active; 'I' for Inactive)
REMARK    1  A    between atoms: C_3  and  C_19 
REMARK    2  A    between atoms: C_5  and  O_7 
REMARK    3  A    between atoms: O_7  and  C_8 
REMARK    4  A    between atoms: C_11  and  C_15 
REMARK       I    between atoms: N_23  and  C_26 
REMARK       I    between atoms: C_26  and  N_28 
REMARK    5  A    between atoms: N_28  and  C_29 
ROOT
HETATM    1  C   UNK N   1      29.487  16.520   3.419  0.00  0.00     0.014 C 
HETATM    2  C   UNK N   1      30.563  16.010   4.068  0.00  0.00    -0.076 C 
HETATM    3  C   UNK N   1      30.687  16.177   5.530  0.00  0.00     0.054 C 
HETATM    4  C   UNK N   1      31.226  17.583   5.599  0.00  0.00     0.132 C 
HETATM    5  N   UNK N   1      32.594  17.395   5.235  0.00  0.00    -0.333 N 
HETATM    6  C   UNK N   1      32.887  16.969   3.861  0.00  0.00     0.132 C 
HETATM    7  C   UNK N   1      31.885  15.858   3.356  0.00  0.00     0.054 C 
HETATM    8  C   UNK N   1      33.448  17.239   6.275  0.00  0.00     0.324 C 
HETATM    9  O   UNK N   1      34.578  16.804   6.096  0.00  0.00    -0.247 OA
HETATM   10  N   UNK N   1      32.964  17.455   7.529  0.00  0.00    -0.294 N 
HETATM   11  H   UNK N   1      32.206  18.077   7.603  0.00  0.00     0.172 HD
ENDROOT
BRANCH   1  12
HETATM   12  C   UNK N   1      28.366  17.190   4.154  0.00  0.00    -0.033 A 
HETATM   13  C   UNK N   1      28.263  18.595   4.187  0.00  0.00     0.011 A 
HETATM   14  C   UNK N   1      27.092  19.242   4.495  0.00  0.00     0.004 A 
HETATM   15  C   UNK N   1      26.008  18.485   4.854  0.00  0.00     0.037 A 
HETATM   16  C   UNK N   1      26.106  17.082   4.983  0.00  0.00     0.078 A 
HETATM   17  C   UNK N   1      27.275  16.425   4.581  0.00  0.00     0.048 A 
BRANCH  16  18
HETATM   18  O   UNK N   1      25.117  16.414   5.628  0.00  0.00    -0.294 OA
BRANCH  18  19
HETATM   19  C   UNK N   1      23.860  16.497   5.113  0.00  0.00     0.147 A 
HETATM   20  C   UNK N   1      23.518  15.901   3.900  0.00  0.00     0.057 A 
HETATM   21  C   UNK N   1      22.230  16.127   3.384  0.00  0.00     0.022 A 
HETATM   22  C   UNK N   1      21.324  16.947   4.082  0.00  0.00     0.063 A 
HETATM   23  C   UNK N   1      21.693  17.470   5.305  0.00  0.00     0.106 A 
HETATM   24  N   UNK N   1      22.918  17.222   5.789  0.00  0.00    -0.346 N 
ATOM     25  HN  UNK N   1      23.160  17.592   6.708  1.00  0.00     0.167 HD
BRANCH  22  26
HETATM   26  C   UNK N   1      19.982  17.293   3.531  0.00  0.00     0.418 C 
HETATM   27  F   UNK N   1      19.007  16.687   4.300  0.00  0.00    -0.166 F 
HETATM   28  F   UNK N   1      19.815  18.661   3.548  0.00  0.00    -0.166 F 
HETATM   29  F   UNK N   1      19.856  16.839   2.224  0.00  0.00    -0.166 F 
ENDBRANCH  22  26
ENDBRANCH  18  19
ENDBRANCH  16  18
ENDBRANCH   1  12
BRANCH  10  30
HETATM   30  C   UNK N   1      33.423  16.888   8.732  0.00  0.00     0.123 A 
HETATM   31  C   UNK N   1      33.064  15.576   9.033  0.00  0.00     0.051 A 
HETATM   32  C   UNK N   1      33.663  14.938  10.111  0.00  0.00     0.022 A 
HETATM   33  C   UNK N   1      34.627  15.621  10.847  0.00  0.00     0.107 A 
HETATM   34  N   UNK N   1      34.958  16.895  10.505  0.00  0.00    -0.310 N 
HETATM   35  N   UNK N   1      34.380  17.508   9.471  0.00  0.00    -0.286 N 
ATOM     36  HN  UNK N   1      35.660  17.393  11.052  1.00  0.00     0.186 HD
ATOM     37  HN  UNK N   1      34.663  18.458   9.229  1.00  0.00     0.188 HD
ENDBRANCH  10  30
TORSDOF 5
ENDMDL
MODEL 7
REMARK VINA RESULT:      -8.0      8.237     12.083
REMARK  5 active torsions:
REMARK  status: ('A' for Active; 'I' for Inactive)
REMARK    1  A    between atoms: C_3  and  C_19 
REMARK    2  A    between atoms: C_5  and  O_7 
REMARK    3  A    between atoms: O_7  and  C_8 
REMARK    4  A    between atoms: C_11  and  C_15 
REMARK       I    between atoms: N_23  and  C_26 
REMARK       I    between atoms: C_26  and  N_28 
REMARK    5  A    between atoms: N_28  and  C_29 
ROOT
HETATM    1  C   UNK N   1      25.887  12.965   5.270  0.00  0.00     0.014 C 
HETATM    2  C   UNK N   1      24.571  13.288   5.317  0.00  0.00    -0.076 C 
HETATM    3  C   UNK N   1      24.066  14.430   4.528  0.00  0.00     0.054 C 
HETATM    4  C   UNK N   1      24.450  15.575   5.429  0.00  0.00     0.132 C 
HETATM    5  N   UNK N   1      23.454  15.495   6.450  0.00  0.00    -0.333 N 
HETATM    6  C   UNK N   1      23.471  14.325   7.336  0.00  0.00     0.132 C 
HETATM    7  C   UNK N   1      23.752  12.987   6.548  0.00  0.00     0.054 C 
HETATM    8  C   UNK N   1      22.370  16.285   6.257  0.00  0.00     0.324 C 
HETATM    9  O   UNK N   1      21.345  16.107   6.902  0.00  0.00    -0.247 OA
HETATM   10  N   UNK N   1      22.416  17.185   5.236  0.00  0.00    -0.294 N 
HETATM   11  H   UNK N   1      23.310  17.503   4.974  0.00  0.00     0.172 HD
ENDROOT
BRANCH   1  12
HETATM   12  C   UNK N   1      26.847  13.687   4.375  0.00  0.00    -0.033 A 
HETATM   13  C   UNK N   1      26.800  13.513   2.977  0.00  0.00     0.011 A 
HETATM   14  C   UNK N   1      27.366  14.408   2.103  0.00  0.00     0.004 A 
HETATM   15  C   UNK N   1      28.063  15.468   2.620  0.00  0.00     0.037 A 
HETATM   16  C   UNK N   1      28.266  15.601   4.012  0.00  0.00     0.078 A 
HETATM   17  C   UNK N   1      27.611  14.737   4.897  0.00  0.00     0.048 A 
BRANCH  16  18
HETATM   18  O   UNK N   1      29.205  16.474   4.455  0.00  0.00    -0.294 OA
BRANCH  18  19
HETATM   19  C   UNK N   1      28.770  17.632   5.025  0.00  0.00     0.147 A 
HETATM   20  C   UNK N   1      28.612  17.762   6.403  0.00  0.00     0.057 A 
HETATM   21  C   UNK N   1      28.054  18.952   6.903  0.00  0.00     0.022 A 
HETATM   22  C   UNK N   1      27.657  19.972   6.017  0.00  0.00     0.063 A 
HETATM   23  C   UNK N   1      27.885  19.815   4.665  0.00  0.00     0.106 A 
HETATM   24  N   UNK N   1      28.441  18.681   4.213  0.00  0.00    -0.346 N 
ATOM     25  HN  UNK N   1      28.628  18.598   3.214  1.00  0.00     0.167 HD
BRANCH  22  26
HETATM   26  C   UNK N   1      26.975  21.210   6.490  0.00  0.00     0.418 C 
HETATM   27  F   UNK N   1      27.884  22.251   6.504  0.00  0.00    -0.166 F 
HETATM   28  F   UNK N   1      25.928  21.510   5.646  0.00  0.00    -0.166 F 
HETATM   29  F   UNK N   1      26.483  21.039   7.777  0.00  0.00    -0.166 F 
ENDBRANCH  22  26
ENDBRANCH  18  19
ENDBRANCH  16  18
ENDBRANCH   1  12
BRANCH  10  30
HETATM   30  C   UNK N   1      21.332  17.711   4.511  0.00  0.00     0.123 A 
HETATM   31  C   UNK N   1      21.401  19.031   4.069  0.00  0.00     0.051 A 
HETATM   32  C   UNK N   1      20.435  19.504   3.190  0.00  0.00     0.022 A 
HETATM   33  C   UNK N   1      19.437  18.636   2.756  0.00  0.00     0.107 A 
HETATM   34  N   UNK N   1      19.420  17.351   3.201  0.00  0.00    -0.310 N 
HETATM   35  N   UNK N   1      20.347  16.898   4.046  0.00  0.00    -0.286 N 
ATOM     36  HN  UNK N   1      18.683  16.722   2.884  1.00  0.00     0.186 HD
ATOM     37  HN  UNK N   1      20.317  15.924   4.348  1.00  0.00     0.188 HD
ENDBRANCH  10  30
TORSDOF 5
ENDMDL
MODEL 8
REMARK VINA RESULT:      -8.0      2.734      3.857
REMARK  5 active torsions:
REMARK  status: ('A' for Active; 'I' for Inactive)
REMARK    1  A    between atoms: C_3  and  C_19 
REMARK    2  A    between atoms: C_5  and  O_7 
REMARK    3  A    between atoms: O_7  and  C_8 
REMARK    4  A    between atoms: C_11  and  C_15 
REMARK       I    between atoms: N_23  and  C_26 
REMARK       I    between atoms: C_26  and  N_28 
REMARK    5  A    between atoms: N_28  and  C_29 
ROOT
HETATM    1  C   UNK N   1      33.981  17.640   8.611  0.00  0.00     0.014 C 
HETATM    2  C   UNK N   1      34.821  16.659   9.023  0.00  0.00    -0.076 C 
HETATM    3  C   UNK N   1      34.912  15.399   8.256  0.00  0.00     0.054 C 
HETATM    4  C   UNK N   1      33.699  14.674   8.778  0.00  0.00     0.132 C 
HETATM    5  N   UNK N   1      34.144  14.237  10.063  0.00  0.00    -0.333 N 
HETATM    6  C   UNK N   1      34.413  15.259  11.081  0.00  0.00     0.132 C 
HETATM    7  C   UNK N   1      35.168  16.510  10.484  0.00  0.00     0.054 C 
HETATM    8  C   UNK N   1      34.651  12.981  10.097  0.00  0.00     0.324 C 
HETATM    9  O   UNK N   1      35.306  12.598  11.058  0.00  0.00    -0.247 OA
HETATM   10  N   UNK N   1      34.522  12.215   8.979  0.00  0.00    -0.294 N 
HETATM   11  H   UNK N   1      33.758  12.422   8.394  0.00  0.00     0.172 HD
ENDROOT
BRANCH   1  12
HETATM   12  C   UNK N   1      33.187  17.521   7.346  0.00  0.00    -0.033 A 
HETATM   13  C   UNK N   1      33.820  17.591   6.088  0.00  0.00     0.011 A 
HETATM   14  C   UNK N   1      33.235  17.115   4.942  0.00  0.00     0.004 A 
HETATM   15  C   UNK N   1      31.959  16.623   5.019  0.00  0.00     0.037 A 
HETATM   16  C   UNK N   1      31.229  16.673   6.228  0.00  0.00     0.078 A 
HETATM   17  C   UNK N   1      31.863  17.075   7.409  0.00  0.00     0.048 A 
BRANCH  16  18
HETATM   18  O   UNK N   1      29.888  16.466   6.191  0.00  0.00    -0.294 OA
BRANCH  18  19
HETATM   19  C   UNK N   1      29.081  17.562   6.186  0.00  0.00     0.147 A 
HETATM   20  C   UNK N   1      28.745  18.226   5.007  0.00  0.00     0.057 A 
HETATM   21  C   UNK N   1      27.998  19.413   5.099  0.00  0.00     0.022 A 
HETATM   22  C   UNK N   1      27.617  19.913   6.359  0.00  0.00     0.063 A 
HETATM   23  C   UNK N   1      27.929  19.189   7.492  0.00  0.00     0.106 A 
HETATM   24  N   UNK N   1      28.622  18.047   7.379  0.00  0.00    -0.346 N 
ATOM     25  HN  UNK N   1      28.815  17.512   8.225  1.00  0.00     0.167 HD
BRANCH  22  26
HETATM   26  C   UNK N   1      26.907  21.214   6.513  0.00  0.00     0.418 C 
HETATM   27  F   UNK N   1      26.265  21.238   7.737  0.00  0.00    -0.166 F 
HETATM   28  F   UNK N   1      27.816  22.248   6.436  0.00  0.00    -0.166 F 
HETATM   29  F   UNK N   1      25.955  21.376   5.515  0.00  0.00    -0.166 F 
ENDBRANCH  22  26
ENDBRANCH  18  19
ENDBRANCH  16  18
ENDBRANCH   1  12
BRANCH  10  30
HETATM   30  C   UNK N   1      35.357  11.163   8.562  0.00  0.00     0.123 A 
HETATM   31  C   UNK N   1      36.340  11.425   7.610  0.00  0.00     0.051 A 
HETATM   32  C   UNK N   1      37.293  10.455   7.333  0.00  0.00     0.022 A 
HETATM   33  C   UNK N   1      37.254   9.252   8.034  0.00  0.00     0.107 A 
HETATM   34  N   UNK N   1      36.285   9.047   8.966  0.00  0.00    -0.310 N 
HETATM   35  N   UNK N   1      35.369   9.980   9.230  0.00  0.00    -0.286 N 
ATOM     36  HN  UNK N   1      36.258   8.162   9.472  1.00  0.00     0.186 HD
ATOM     37  HN  UNK N   1      34.666   9.802   9.948  1.00  0.00     0.188 HD
ENDBRANCH  10  30
TORSDOF 5
ENDMDL
MODEL 9
REMARK VINA RESULT:      -8.0      4.957      8.409
REMARK  5 active torsions:
REMARK  status: ('A' for Active; 'I' for Inactive)
REMARK    1  A    between atoms: C_3  and  C_19 
REMARK    2  A    between atoms: C_5  and  O_7 
REMARK    3  A    between atoms: O_7  and  C_8 
REMARK    4  A    between atoms: C_11  and  C_15 
REMARK       I    between atoms: N_23  and  C_26 
REMARK       I    between atoms: C_26  and  N_28 
REMARK    5  A    between atoms: N_28  and  C_29 
ROOT
HETATM    1  C   UNK N   1      26.962  18.592   4.487  0.00  0.00     0.014 C 
HETATM    2  C   UNK N   1      27.988  19.046   5.249  0.00  0.00    -0.076 C 
HETATM    3  C   UNK N   1      29.139  18.164   5.532  0.00  0.00     0.054 C 
HETATM    4  C   UNK N   1      28.577  17.337   6.659  0.00  0.00     0.132 C 
HETATM    5  N   UNK N   1      28.657  18.243   7.761  0.00  0.00    -0.333 N 
HETATM    6  C   UNK N   1      27.801  19.435   7.734  0.00  0.00     0.132 C 
HETATM    7  C   UNK N   1      27.752  20.100   6.303  0.00  0.00     0.054 C 
HETATM    8  C   UNK N   1      29.778  18.131   8.515  0.00  0.00     0.324 C 
HETATM    9  O   UNK N   1      30.090  19.013   9.304  0.00  0.00    -0.247 OA
HETATM   10  N   UNK N   1      30.605  17.078   8.268  0.00  0.00    -0.294 N 
HETATM   11  H   UNK N   1      30.185  16.273   7.887  0.00  0.00     0.172 HD
ENDROOT
BRANCH   1  12
HETATM   12  C   UNK N   1      26.990  17.237   3.851  0.00  0.00    -0.033 A 
HETATM   13  C   UNK N   1      25.794  16.591   3.475  0.00  0.00     0.011 A 
HETATM   14  C   UNK N   1      25.766  15.563   2.566  0.00  0.00     0.004 A 
HETATM   15  C   UNK N   1      26.956  15.106   2.065  0.00  0.00     0.037 A 
HETATM   16  C   UNK N   1      28.189  15.619   2.527  0.00  0.00     0.078 A 
HETATM   17  C   UNK N   1      28.206  16.725   3.383  0.00  0.00     0.048 A 
BRANCH  16  18
HETATM   18  O   UNK N   1      29.328  14.939   2.242  0.00  0.00    -0.294 OA
BRANCH  18  19
HETATM   19  C   UNK N   1      30.416  15.176   3.025  0.00  0.00     0.147 A 
HETATM   20  C   UNK N   1      31.191  16.326   2.884  0.00  0.00     0.057 A 
HETATM   21  C   UNK N   1      32.361  16.442   3.655  0.00  0.00     0.022 A 
HETATM   22  C   UNK N   1      32.733  15.408   4.535  0.00  0.00     0.063 A 
HETATM   23  C   UNK N   1      31.902  14.314   4.677  0.00  0.00     0.106 A 
HETATM   24  N   UNK N   1      30.779  14.236   3.948  0.00  0.00    -0.346 N 
ATOM     25  HN  UNK N   1      30.165  13.435   4.091  1.00  0.00     0.167 HD
BRANCH  22  26
HETATM   26  C   UNK N   1      34.010  15.442   5.302  0.00  0.00     0.418 C 
HETATM   27  F   UNK N   1      34.459  16.746   5.376  0.00  0.00    -0.166 F 
HETATM   28  F   UNK N   1      33.799  14.942   6.570  0.00  0.00    -0.166 F 
HETATM   29  F   UNK N   1      34.983  14.676   4.672  0.00  0.00    -0.166 F 
ENDBRANCH  22  26
ENDBRANCH  18  19
ENDBRANCH  16  18
ENDBRANCH   1  12
BRANCH  10  30
HETATM   30  C   UNK N   1      31.991  17.008   8.493  0.00  0.00     0.123 A 
HETATM   31  C   UNK N   1      32.811  17.977   7.919  0.00  0.00     0.051 A 
HETATM   32  C   UNK N   1      34.149  18.039   8.287  0.00  0.00     0.022 A 
HETATM   33  C   UNK N   1      34.627  17.145   9.242  0.00  0.00     0.107 A 
HETATM   34  N   UNK N   1      33.784  16.228   9.787  0.00  0.00    -0.310 N 
HETATM   35  N   UNK N   1      32.500  16.168   9.431  0.00  0.00    -0.286 N 
ATOM     36  HN  UNK N   1      34.142  15.572  10.481  1.00  0.00     0.186 HD
ATOM     37  HN  UNK N   1      31.890  15.479   9.872  1.00  0.00     0.188 HD
ENDBRANCH  10  30
TORSDOF 5
ENDMDL
