MODEL 1
REMARK VINA RESULT:      -7.9      0.000      0.000
REMARK  4 active torsions:
REMARK  status: ('A' for Active; 'I' for Inactive)
REMARK    1  A    between atoms: C_22  and  C_16 
REMARK    2  A    between atoms: N_24  and  C_17 
REMARK    3  A    between atoms: O_28  and  C_19 
REMARK    4  A    between atoms: O_29  and  C_20 
REMARK       I    between atoms: N_25  and  C_22 
ROOT
HETATM    1  C   UNK N   1      36.344  14.940  10.346  0.00  0.00     0.143 C 
HETATM    2  C   UNK N   1      33.898  14.950  10.839  0.00  0.00     0.143 C 
HETATM    3  C   UNK N   1      36.012  14.561   8.878  0.00  0.00     0.146 C 
HETATM    4  C   UNK N   1      33.653  14.307   9.506  0.00  0.00     0.146 C 
HETATM    5  C   UNK N   1      34.240  15.694   7.566  0.00  0.00     0.254 C 
HETATM    6  N   UNK N   1      35.238  14.605  11.241  0.00  0.00    -0.378 N 
HETATM    7  N   UNK N   1      34.619  14.873   8.605  0.00  0.00    -0.345 N 
HETATM    8  O   UNK N   1      35.077  16.076   6.762  0.00  0.00    -0.267 OA
ENDROOT
BRANCH   6   9
HETATM    9  C   UNK N   1      35.421  13.957  12.499  0.00  0.00     0.030 A 
HETATM   10  C   UNK N   1      36.306  14.517  13.436  0.00  0.00     0.031 A 
HETATM   11  C   UNK N   1      36.540  13.901  14.658  0.00  0.00     0.032 A 
HETATM   12  C   UNK N   1      35.893  12.711  14.972  0.00  0.00     0.041 A 
HETATM   13  C   UNK N   1      34.994  12.136  14.054  0.00  0.00    -0.029 A 
HETATM   14  N   UNK N   1      36.162  12.100  16.215  0.00  0.00    -0.327 N 
HETATM   15  C   UNK N   1      34.280  10.857  14.367  0.00  0.00     0.050 A 
HETATM   16  C   UNK N   1      34.763  12.759  12.818  0.00  0.00     0.038 A 
HETATM   17  C   UNK N   1      34.589  10.223  15.731  0.00  0.00     0.108 A 
HETATM   18  C   UNK N   1      35.581  10.943  16.603  0.00  0.00     0.222 A 
HETATM   19  O   UNK N   1      35.867  10.470  17.690  0.00  0.00    -0.273 OA
HETATM   20  H   UNK N   1      36.800  12.535  16.827  0.00  0.00     0.169 HD
ENDBRANCH   6   9
BRANCH   5  21
HETATM   21  C   UNK N   1      32.814  16.155   7.400  0.00  0.00     0.035 A 
HETATM   22  C   UNK N   1      31.975  15.573   6.444  0.00  0.00     0.020 A 
HETATM   23  C   UNK N   1      30.655  16.021   6.301  0.00  0.00     0.040 A 
HETATM   24  C   UNK N   1      30.147  17.071   7.085  0.00  0.00     0.101 A 
HETATM   25  C   UNK N   1      31.005  17.672   8.054  0.00  0.00     0.102 A 
HETATM   26  C   UNK N   1      32.306  17.205   8.172  0.00  0.00     0.056 A 
BRANCH  24  27
HETATM   27  O   UNK N   1      28.871  17.466   6.835  0.00  0.00    -0.353 OA
HETATM   28  C   UNK N   1      28.476  18.319   5.831  0.00  0.00     0.210 C 
ENDBRANCH  24  27
BRANCH  25  29
HETATM   29  O   UNK N   1      30.643  18.676   8.891  0.00  0.00    -0.353 OA
HETATM   30  C   UNK N   1      29.684  18.540   9.866  0.00  0.00     0.210 C 
ENDBRANCH  25  29
ENDBRANCH   5  21
TORSDOF 4
ENDMDL
MODEL 2
REMARK VINA RESULT:      -7.7      3.767     10.548
REMARK  4 active torsions:
REMARK  status: ('A' for Active; 'I' for Inactive)
REMARK    1  A    between atoms: C_22  and  C_16 
REMARK    2  A    between atoms: N_24  and  C_17 
REMARK    3  A    between atoms: O_28  and  C_19 
REMARK    4  A    between atoms: O_29  and  C_20 
REMARK       I    between atoms: N_25  and  C_22 
ROOT
HETATM    1  C   UNK N   1      31.502  16.796   4.805  0.00  0.00     0.143 C 
HETATM    2  C   UNK N   1      30.857  16.449   7.190  0.00  0.00     0.143 C 
HETATM    3  C   UNK N   1      32.830  17.434   5.293  0.00  0.00     0.146 C 
HETATM    4  C   UNK N   1      32.004  17.324   7.602  0.00  0.00     0.146 C 
HETATM    5  C   UNK N   1      34.228  16.426   7.075  0.00  0.00     0.254 C 
HETATM    6  N   UNK N   1      30.483  16.832   5.853  0.00  0.00    -0.378 N 
HETATM    7  N   UNK N   1      33.068  17.051   6.675  0.00  0.00    -0.345 N 
HETATM    8  O   UNK N   1      35.150  16.301   6.283  0.00  0.00    -0.267 OA
ENDROOT
BRANCH   6   9
HETATM    9  C   UNK N   1      29.132  17.224   5.614  0.00  0.00     0.030 A 
HETATM   10  C   UNK N   1      28.089  16.445   6.144  0.00  0.00     0.031 A 
HETATM   11  C   UNK N   1      26.761  16.769   5.907  0.00  0.00     0.032 A 
HETATM   12  C   UNK N   1      26.444  17.882   5.135  0.00  0.00     0.041 A 
HETATM   13  C   UNK N   1      27.470  18.684   4.602  0.00  0.00    -0.029 A 
HETATM   14  N   UNK N   1      25.084  18.179   4.900  0.00  0.00    -0.327 N 
HETATM   15  C   UNK N   1      27.158  19.890   3.771  0.00  0.00     0.050 A 
HETATM   16  C   UNK N   1      28.813  18.350   4.840  0.00  0.00     0.038 A 
HETATM   17  C   UNK N   1      25.670  20.189   3.540  0.00  0.00     0.108 A 
HETATM   18  C   UNK N   1      24.684  19.238   4.161  0.00  0.00     0.222 A 
HETATM   19  O   UNK N   1      23.492  19.429   3.994  0.00  0.00    -0.273 OA
HETATM   20  H   UNK N   1      24.398  17.591   5.290  0.00  0.00     0.169 HD
ENDBRANCH   6   9
BRANCH   5  21
HETATM   21  C   UNK N   1      34.391  15.873   8.468  0.00  0.00     0.035 A 
HETATM   22  C   UNK N   1      34.784  16.696   9.529  0.00  0.00     0.020 A 
HETATM   23  C   UNK N   1      34.936  16.160  10.815  0.00  0.00     0.040 A 
HETATM   24  C   UNK N   1      34.726  14.794  11.071  0.00  0.00     0.101 A 
HETATM   25  C   UNK N   1      34.334  13.952   9.988  0.00  0.00     0.102 A 
HETATM   26  C   UNK N   1      34.191  14.514   8.727  0.00  0.00     0.056 A 
BRANCH  24  27
HETATM   27  O   UNK N   1      34.949  14.363  12.341  0.00  0.00    -0.353 OA
HETATM   28  C   UNK N   1      36.139  14.454  13.022  0.00  0.00     0.210 C 
ENDBRANCH  24  27
BRANCH  25  29
HETATM   29  O   UNK N   1      34.077  12.625  10.093  0.00  0.00    -0.353 OA
HETATM   30  C   UNK N   1      35.051  11.658  10.037  0.00  0.00     0.210 C 
ENDBRANCH  25  29
ENDBRANCH   5  21
TORSDOF 4
ENDMDL
MODEL 3
REMARK VINA RESULT:      -7.7      1.185      2.076
REMARK  4 active torsions:
REMARK  status: ('A' for Active; 'I' for Inactive)
REMARK    1  A    between atoms: C_22  and  C_16 
REMARK    2  A    between atoms: N_24  and  C_17 
REMARK    3  A    between atoms: O_28  and  C_19 
REMARK    4  A    between atoms: O_29  and  C_20 
REMARK       I    between atoms: N_25  and  C_22 
ROOT
HETATM    1  C   UNK N   1      36.666  14.676   9.852  0.00  0.00     0.143 C 
HETATM    2  C   UNK N   1      34.325  14.794  10.707  0.00  0.00     0.143 C 
HETATM    3  C   UNK N   1      36.097  14.496   8.419  0.00  0.00     0.146 C 
HETATM    4  C   UNK N   1      33.838  14.330   9.366  0.00  0.00     0.146 C 
HETATM    5  C   UNK N   1      34.258  15.893   7.518  0.00  0.00     0.254 C 
HETATM    6  N   UNK N   1      35.674  14.314  10.863  0.00  0.00    -0.378 N 
HETATM    7  N   UNK N   1      34.710  14.932   8.394  0.00  0.00    -0.345 N 
HETATM    8  O   UNK N   1      35.001  16.309   6.642  0.00  0.00    -0.267 OA
ENDROOT
BRANCH   6   9
HETATM    9  C   UNK N   1      35.979  13.511  12.003  0.00  0.00     0.030 A 
HETATM   10  C   UNK N   1      36.943  12.495  11.887  0.00  0.00     0.031 A 
HETATM   11  C   UNK N   1      37.245  11.669  12.961  0.00  0.00     0.032 A 
HETATM   12  C   UNK N   1      36.590  11.840  14.176  0.00  0.00     0.041 A 
HETATM   13  C   UNK N   1      35.628  12.857  14.319  0.00  0.00    -0.029 A 
HETATM   14  N   UNK N   1      36.908  10.975  15.245  0.00  0.00    -0.327 N 
HETATM   15  C   UNK N   1      34.910  13.066  15.617  0.00  0.00     0.050 A 
HETATM   16  C   UNK N   1      35.322  13.688  13.230  0.00  0.00     0.038 A 
HETATM   17  C   UNK N   1      35.284  12.114  16.761  0.00  0.00     0.108 A 
HETATM   18  C   UNK N   1      36.321  11.066  16.459  0.00  0.00     0.222 A 
HETATM   19  O   UNK N   1      36.641  10.280  17.334  0.00  0.00    -0.273 OA
HETATM   20  H   UNK N   1      37.586  10.275  15.101  0.00  0.00     0.169 HD
ENDBRANCH   6   9
BRANCH   5  21
HETATM   21  C   UNK N   1      32.867  16.466   7.620  0.00  0.00     0.035 A 
HETATM   22  C   UNK N   1      32.585  17.522   8.492  0.00  0.00     0.020 A 
HETATM   23  C   UNK N   1      31.283  18.035   8.576  0.00  0.00     0.040 A 
HETATM   24  C   UNK N   1      30.231  17.497   7.816  0.00  0.00     0.101 A 
HETATM   25  C   UNK N   1      30.516  16.413   6.933  0.00  0.00     0.102 A 
HETATM   26  C   UNK N   1      31.815  15.929   6.872  0.00  0.00     0.056 A 
BRANCH  24  27
HETATM   27  O   UNK N   1      28.996  18.031   8.008  0.00  0.00    -0.353 OA
HETATM   28  C   UNK N   1      28.269  17.977   9.174  0.00  0.00     0.210 C 
ENDBRANCH  24  27
BRANCH  25  29
HETATM   29  O   UNK N   1      29.607  15.812   6.127  0.00  0.00    -0.353 OA
HETATM   30  C   UNK N   1      29.470  16.103   4.791  0.00  0.00     0.210 C 
ENDBRANCH  25  29
ENDBRANCH   5  21
TORSDOF 4
ENDMDL
MODEL 4
REMARK VINA RESULT:      -7.6      2.831      9.592
REMARK  4 active torsions:
REMARK  status: ('A' for Active; 'I' for Inactive)
REMARK    1  A    between atoms: C_22  and  C_16 
REMARK    2  A    between atoms: N_24  and  C_17 
REMARK    3  A    between atoms: O_28  and  C_19 
REMARK    4  A    between atoms: O_29  and  C_20 
REMARK       I    between atoms: N_25  and  C_22 
ROOT
HETATM    1  C   UNK N   1      34.325  17.473   7.587  0.00  0.00     0.143 C 
HETATM    2  C   UNK N   1      33.189  15.314   8.108  0.00  0.00     0.143 C 
HETATM    3  C   UNK N   1      34.713  17.592   9.085  0.00  0.00     0.146 C 
HETATM    4  C   UNK N   1      33.334  15.620   9.570  0.00  0.00     0.146 C 
HETATM    5  C   UNK N   1      35.650  15.699  10.384  0.00  0.00     0.254 C 
HETATM    6  N   UNK N   1      33.190  16.571   7.405  0.00  0.00    -0.378 N 
HETATM    7  N   UNK N   1      34.599  16.287   9.716  0.00  0.00    -0.345 N 
HETATM    8  O   UNK N   1      36.675  16.336  10.575  0.00  0.00    -0.267 OA
ENDROOT
BRANCH   6   9
HETATM    9  C   UNK N   1      32.081  16.873   6.559  0.00  0.00     0.030 A 
HETATM   10  C   UNK N   1      32.317  17.208   5.214  0.00  0.00     0.031 A 
HETATM   11  C   UNK N   1      31.271  17.542   4.365  0.00  0.00     0.032 A 
HETATM   12  C   UNK N   1      29.964  17.548   4.841  0.00  0.00     0.041 A 
HETATM   13  C   UNK N   1      29.702  17.206   6.181  0.00  0.00    -0.029 A 
HETATM   14  N   UNK N   1      28.923  17.907   3.958  0.00  0.00    -0.327 N 
HETATM   15  C   UNK N   1      28.304  17.200   6.718  0.00  0.00     0.050 A 
HETATM   16  C   UNK N   1      30.762  16.873   7.037  0.00  0.00     0.038 A 
HETATM   17  C   UNK N   1      27.194  17.587   5.731  0.00  0.00     0.108 A 
HETATM   18  C   UNK N   1      27.625  17.941   4.333  0.00  0.00     0.222 A 
HETATM   19  O   UNK N   1      26.780  18.267   3.517  0.00  0.00    -0.273 OA
HETATM   20  H   UNK N   1      29.151  18.141   3.029  0.00  0.00     0.169 HD
ENDBRANCH   6   9
BRANCH   5  21
HETATM   21  C   UNK N   1      35.579  14.276  10.877  0.00  0.00     0.035 A 
HETATM   22  C   UNK N   1      35.959  13.209  10.057  0.00  0.00     0.020 A 
HETATM   23  C   UNK N   1      35.879  11.893  10.532  0.00  0.00     0.040 A 
HETATM   24  C   UNK N   1      35.397  11.607  11.820  0.00  0.00     0.101 A 
HETATM   25  C   UNK N   1      34.999  12.693  12.655  0.00  0.00     0.102 A 
HETATM   26  C   UNK N   1      35.092  13.984  12.155  0.00  0.00     0.056 A 
BRANCH  24  27
HETATM   27  O   UNK N   1      35.310  10.295  12.168  0.00  0.00    -0.353 OA
HETATM   28  C   UNK N   1      35.971   9.256  11.557  0.00  0.00     0.210 C 
ENDBRANCH  24  27
BRANCH  25  29
HETATM   29  O   UNK N   1      34.537  12.566  13.923  0.00  0.00    -0.353 OA
HETATM   30  C   UNK N   1      35.210  13.036  15.025  0.00  0.00     0.210 C 
ENDBRANCH  25  29
ENDBRANCH   5  21
TORSDOF 4
ENDMDL
MODEL 5
REMARK VINA RESULT:      -7.5      2.949      4.922
REMARK  4 active torsions:
REMARK  status: ('A' for Active; 'I' for Inactive)
REMARK    1  A    between atoms: C_22  and  C_16 
REMARK    2  A    between atoms: N_24  and  C_17 
REMARK    3  A    between atoms: O_28  and  C_19 
REMARK    4  A    between atoms: O_29  and  C_20 
REMARK       I    between atoms: N_25  and  C_22 
ROOT
HETATM    1  C   UNK N   1      37.567  11.882  14.364  0.00  0.00     0.143 C 
HETATM    2  C   UNK N   1      35.683  13.515  14.269  0.00  0.00     0.143 C 
HETATM    3  C   UNK N   1      37.242  11.474  12.902  0.00  0.00     0.146 C 
HETATM    4  C   UNK N   1      35.234  12.884  12.983  0.00  0.00     0.146 C 
HETATM    5  C   UNK N   1      36.804  13.130  11.110  0.00  0.00     0.254 C 
HETATM    6  N   UNK N   1      36.416  12.516  15.004  0.00  0.00    -0.378 N 
HETATM    7  N   UNK N   1      36.432  12.510  12.282  0.00  0.00    -0.345 N 
HETATM    8  O   UNK N   1      37.773  12.718  10.491  0.00  0.00    -0.267 OA
ENDROOT
BRANCH   6   9
HETATM    9  C   UNK N   1      35.985  12.197  16.326  0.00  0.00     0.030 A 
HETATM   10  C   UNK N   1      35.526  13.227  17.164  0.00  0.00     0.031 A 
HETATM   11  C   UNK N   1      35.130  12.967  18.469  0.00  0.00     0.032 A 
HETATM   12  C   UNK N   1      35.183  11.668  18.965  0.00  0.00     0.041 A 
HETATM   13  C   UNK N   1      35.629  10.618  18.142  0.00  0.00    -0.029 A 
HETATM   14  N   UNK N   1      34.787  11.437  20.301  0.00  0.00    -0.327 N 
HETATM   15  C   UNK N   1      35.692   9.210  18.649  0.00  0.00     0.050 A 
HETATM   16  C   UNK N   1      36.032  10.886  16.824  0.00  0.00     0.038 A 
HETATM   17  C   UNK N   1      35.248   8.991  20.102  0.00  0.00     0.108 A 
HETATM   18  C   UNK N   1      34.807  10.210  20.866  0.00  0.00     0.222 A 
HETATM   19  O   UNK N   1      34.458  10.086  22.028  0.00  0.00    -0.273 OA
HETATM   20  H   UNK N   1      34.484  12.201  20.842  0.00  0.00     0.169 HD
ENDBRANCH   6   9
BRANCH   5  21
HETATM   21  C   UNK N   1      36.054  14.323  10.572  0.00  0.00     0.035 A 
HETATM   22  C   UNK N   1      36.241  15.597  11.117  0.00  0.00     0.020 A 
HETATM   23  C   UNK N   1      35.528  16.691  10.608  0.00  0.00     0.040 A 
HETATM   24  C   UNK N   1      34.599  16.540   9.564  0.00  0.00     0.101 A 
HETATM   25  C   UNK N   1      34.400  15.239   9.014  0.00  0.00     0.102 A 
HETATM   26  C   UNK N   1      35.122  14.177   9.540  0.00  0.00     0.056 A 
BRANCH  24  27
HETATM   27  O   UNK N   1      33.923  17.653   9.175  0.00  0.00    -0.353 OA
HETATM   28  C   UNK N   1      34.325  18.540   8.205  0.00  0.00     0.210 C 
ENDBRANCH  24  27
BRANCH  25  29
HETATM   29  O   UNK N   1      33.556  14.951   7.993  0.00  0.00    -0.353 OA
HETATM   30  C   UNK N   1      32.868  13.766   7.890  0.00  0.00     0.210 C 
ENDBRANCH  25  29
ENDBRANCH   5  21
TORSDOF 4
ENDMDL
MODEL 6
REMARK VINA RESULT:      -7.5      2.112      9.288
REMARK  4 active torsions:
REMARK  status: ('A' for Active; 'I' for Inactive)
REMARK    1  A    between atoms: C_22  and  C_16 
REMARK    2  A    between atoms: N_24  and  C_17 
REMARK    3  A    between atoms: O_28  and  C_19 
REMARK    4  A    between atoms: O_29  and  C_20 
REMARK       I    between atoms: N_25  and  C_22 
ROOT
HETATM    1  C   UNK N   1      34.612  14.476   8.162  0.00  0.00     0.143 C 
HETATM    2  C   UNK N   1      33.255  14.655  10.249  0.00  0.00     0.143 C 
HETATM    3  C   UNK N   1      35.874  14.828   8.994  0.00  0.00     0.146 C 
HETATM    4  C   UNK N   1      34.439  15.268  10.936  0.00  0.00     0.146 C 
HETATM    5  C   UNK N   1      36.375  13.778  11.183  0.00  0.00     0.254 C 
HETATM    6  N   UNK N   1      33.394  14.918   8.839  0.00  0.00    -0.378 N 
HETATM    7  N   UNK N   1      35.598  14.605  10.404  0.00  0.00    -0.345 N 
HETATM    8  O   UNK N   1      37.408  13.312  10.725  0.00  0.00    -0.267 OA
ENDROOT
BRANCH   6   9
HETATM    9  C   UNK N   1      32.330  15.594   8.169  0.00  0.00     0.030 A 
HETATM   10  C   UNK N   1      32.169  15.415   6.785  0.00  0.00     0.031 A 
HETATM   11  C   UNK N   1      31.170  16.081   6.088  0.00  0.00     0.032 A 
HETATM   12  C   UNK N   1      30.307  16.940   6.760  0.00  0.00     0.041 A 
HETATM   13  C   UNK N   1      30.443  17.128   8.148  0.00  0.00    -0.029 A 
HETATM   14  N   UNK N   1      29.310  17.614   6.022  0.00  0.00    -0.327 N 
HETATM   15  C   UNK N   1      29.525  18.044   8.899  0.00  0.00     0.050 A 
HETATM   16  C   UNK N   1      31.457  16.456   8.849  0.00  0.00     0.038 A 
HETATM   17  C   UNK N   1      28.447  18.755   8.068  0.00  0.00     0.108 A 
HETATM   18  C   UNK N   1      28.431  18.467   6.591  0.00  0.00     0.222 A 
HETATM   19  O   UNK N   1      27.601  19.019   5.890  0.00  0.00    -0.273 OA
HETATM   20  H   UNK N   1      29.253  17.455   5.052  0.00  0.00     0.169 HD
ENDBRANCH   6   9
BRANCH   5  21
HETATM   21  C   UNK N   1      35.979  13.413  12.591  0.00  0.00     0.035 A 
HETATM   22  C   UNK N   1      35.008  12.437  12.837  0.00  0.00     0.020 A 
HETATM   23  C   UNK N   1      34.649  12.118  14.153  0.00  0.00     0.040 A 
HETATM   24  C   UNK N   1      35.227  12.776  15.252  0.00  0.00     0.101 A 
HETATM   25  C   UNK N   1      36.210  13.779  15.003  0.00  0.00     0.102 A 
HETATM   26  C   UNK N   1      36.545  14.070  13.688  0.00  0.00     0.056 A 
BRANCH  24  27
HETATM   27  O   UNK N   1      34.774  12.430  16.486  0.00  0.00    -0.353 OA
HETATM   28  C   UNK N   1      35.395  11.567  17.357  0.00  0.00     0.210 C 
ENDBRANCH  24  27
BRANCH  25  29
HETATM   29  O   UNK N   1      36.865  14.476  15.964  0.00  0.00    -0.353 OA
HETATM   30  C   UNK N   1      37.383  15.733  15.767  0.00  0.00     0.210 C 
ENDBRANCH  25  29
ENDBRANCH   5  21
TORSDOF 4
ENDMDL
MODEL 7
REMARK VINA RESULT:      -7.5      2.790      9.778
REMARK  4 active torsions:
REMARK  status: ('A' for Active; 'I' for Inactive)
REMARK    1  A    between atoms: C_22  and  C_16 
REMARK    2  A    between atoms: N_24  and  C_17 
REMARK    3  A    between atoms: O_28  and  C_19 
REMARK    4  A    between atoms: O_29  and  C_20 
REMARK       I    between atoms: N_25  and  C_22 
ROOT
HETATM    1  C   UNK N   1      32.882  15.587   6.539  0.00  0.00     0.143 C 
HETATM    2  C   UNK N   1      32.272  15.875   8.941  0.00  0.00     0.143 C 
HETATM    3  C   UNK N   1      34.363  15.858   6.918  0.00  0.00     0.146 C 
HETATM    4  C   UNK N   1      33.649  16.411   9.201  0.00  0.00     0.146 C 
HETATM    5  C   UNK N   1      35.467  14.794   8.866  0.00  0.00     0.254 C 
HETATM    6  N   UNK N   1      31.972  16.117   7.553  0.00  0.00    -0.378 N 
HETATM    7  N   UNK N   1      34.536  15.667   8.349  0.00  0.00    -0.345 N 
HETATM    8  O   UNK N   1      36.269  14.255   8.119  0.00  0.00    -0.267 OA
ENDROOT
BRANCH   6   9
HETATM    9  C   UNK N   1      30.796  16.858   7.235  0.00  0.00     0.030 A 
HETATM   10  C   UNK N   1      30.107  17.526   8.262  0.00  0.00     0.031 A 
HETATM   11  C   UNK N   1      28.940  18.229   8.002  0.00  0.00     0.032 A 
HETATM   12  C   UNK N   1      28.433  18.283   6.708  0.00  0.00     0.041 A 
HETATM   13  C   UNK N   1      29.110  17.631   5.660  0.00  0.00    -0.029 A 
HETATM   14  N   UNK N   1      27.236  18.995   6.477  0.00  0.00    -0.327 N 
HETATM   15  C   UNK N   1      28.590  17.676   4.256  0.00  0.00     0.050 A 
HETATM   16  C   UNK N   1      30.289  16.917   5.928  0.00  0.00     0.038 A 
HETATM   17  C   UNK N   1      27.291  18.464   4.038  0.00  0.00     0.108 A 
HETATM   18  C   UNK N   1      26.671  19.098   5.254  0.00  0.00     0.222 A 
HETATM   19  O   UNK N   1      25.632  19.723   5.131  0.00  0.00    -0.273 OA
HETATM   20  H   UNK N   1      26.794  19.434   7.239  0.00  0.00     0.169 HD
ENDBRANCH   6   9
BRANCH   5  21
HETATM   21  C   UNK N   1      35.517  14.469  10.338  0.00  0.00     0.035 A 
HETATM   22  C   UNK N   1      36.062  15.370  11.257  0.00  0.00     0.020 A 
HETATM   23  C   UNK N   1      36.105  15.045  12.620  0.00  0.00     0.040 A 
HETATM   24  C   UNK N   1      35.631  13.810  13.095  0.00  0.00     0.101 A 
HETATM   25  C   UNK N   1      35.083  12.886  12.157  0.00  0.00     0.102 A 
HETATM   26  C   UNK N   1      35.054  13.238  10.815  0.00  0.00     0.056 A 
BRANCH  24  27
HETATM   27  O   UNK N   1      35.764  13.570  14.426  0.00  0.00    -0.353 OA
HETATM   28  C   UNK N   1      36.906  13.131  15.053  0.00  0.00     0.210 C 
ENDBRANCH  24  27
BRANCH  25  29
HETATM   29  O   UNK N   1      34.571  11.672  12.475  0.00  0.00    -0.353 OA
HETATM   30  C   UNK N   1      35.331  10.531  12.577  0.00  0.00     0.210 C 
ENDBRANCH  25  29
ENDBRANCH   5  21
TORSDOF 4
ENDMDL
MODEL 8
REMARK VINA RESULT:      -7.4      5.451     12.027
REMARK  4 active torsions:
REMARK  status: ('A' for Active; 'I' for Inactive)
REMARK    1  A    between atoms: C_22  and  C_16 
REMARK    2  A    between atoms: N_24  and  C_17 
REMARK    3  A    between atoms: O_28  and  C_19 
REMARK    4  A    between atoms: O_29  and  C_20 
REMARK       I    between atoms: N_25  and  C_22 
ROOT
HETATM    1  C   UNK N   1      27.436  15.436   4.619  0.00  0.00     0.143 C 
HETATM    2  C   UNK N   1      28.644  17.390   5.594  0.00  0.00     0.143 C 
HETATM    3  C   UNK N   1      28.807  14.843   4.195  0.00  0.00     0.146 C 
HETATM    4  C   UNK N   1      29.897  16.922   4.913  0.00  0.00     0.146 C 
HETATM    5  C   UNK N   1      30.765  14.769   5.713  0.00  0.00     0.254 C 
HETATM    6  N   UNK N   1      27.529  16.878   4.838  0.00  0.00    -0.378 N 
HETATM    7  N   UNK N   1      29.865  15.486   4.958  0.00  0.00    -0.345 N 
HETATM    8  O   UNK N   1      30.771  13.549   5.648  0.00  0.00    -0.267 OA
ENDROOT
BRANCH   6   9
HETATM    9  C   UNK N   1      26.565  17.806   4.343  0.00  0.00     0.030 A 
HETATM   10  C   UNK N   1      26.999  19.052   3.859  0.00  0.00     0.031 A 
HETATM   11  C   UNK N   1      26.092  19.998   3.401  0.00  0.00     0.032 A 
HETATM   12  C   UNK N   1      24.729  19.719   3.416  0.00  0.00     0.041 A 
HETATM   13  C   UNK N   1      24.271  18.475   3.887  0.00  0.00    -0.029 A 
HETATM   14  N   UNK N   1      23.830  20.706   2.958  0.00  0.00    -0.327 N 
HETATM   15  C   UNK N   1      22.810  18.146   3.911  0.00  0.00     0.050 A 
HETATM   16  C   UNK N   1      25.191  17.522   4.353  0.00  0.00     0.038 A 
HETATM   17  C   UNK N   1      21.860  19.238   3.399  0.00  0.00     0.108 A 
HETATM   18  C   UNK N   1      22.492  20.523   2.938  0.00  0.00     0.222 A 
HETATM   19  O   UNK N   1      21.775  21.424   2.535  0.00  0.00    -0.273 OA
HETATM   20  H   UNK N   1      24.193  21.564   2.639  0.00  0.00     0.169 HD
ENDBRANCH   6   9
BRANCH   5  21
HETATM   21  C   UNK N   1      31.742  15.449   6.639  0.00  0.00     0.035 A 
HETATM   22  C   UNK N   1      31.302  16.110   7.790  0.00  0.00     0.020 A 
HETATM   23  C   UNK N   1      32.226  16.742   8.634  0.00  0.00     0.040 A 
HETATM   24  C   UNK N   1      33.600  16.753   8.341  0.00  0.00     0.101 A 
HETATM   25  C   UNK N   1      34.049  16.087   7.162  0.00  0.00     0.102 A 
HETATM   26  C   UNK N   1      33.109  15.469   6.348  0.00  0.00     0.056 A 
BRANCH  24  27
HETATM   27  O   UNK N   1      34.407  17.436   9.194  0.00  0.00    -0.353 OA
HETATM   28  C   UNK N   1      35.194  16.880  10.176  0.00  0.00     0.210 C 
ENDBRANCH  24  27
BRANCH  25  29
HETATM   29  O   UNK N   1      35.343  15.998   6.768  0.00  0.00    -0.353 OA
HETATM   30  C   UNK N   1      35.874  14.890   6.153  0.00  0.00     0.210 C 
ENDBRANCH  25  29
ENDBRANCH   5  21
TORSDOF 4
ENDMDL
MODEL 9
REMARK VINA RESULT:      -7.4      6.344     11.440
REMARK  4 active torsions:
REMARK  status: ('A' for Active; 'I' for Inactive)
REMARK    1  A    between atoms: C_22  and  C_16 
REMARK    2  A    between atoms: N_24  and  C_17 
REMARK    3  A    between atoms: O_28  and  C_19 
REMARK    4  A    between atoms: O_29  and  C_20 
REMARK       I    between atoms: N_25  and  C_22 
ROOT
HETATM    1  C   UNK N   1      26.855  20.255   4.541  0.00  0.00     0.143 C 
HETATM    2  C   UNK N   1      25.756  18.055   4.958  0.00  0.00     0.143 C 
HETATM    3  C   UNK N   1      25.951  20.432   3.291  0.00  0.00     0.146 C 
HETATM    4  C   UNK N   1      25.126  18.141   3.599  0.00  0.00     0.146 C 
HETATM    5  C   UNK N   1      23.515  19.973   3.320  0.00  0.00     0.254 C 
HETATM    6  N   UNK N   1      26.957  18.849   4.925  0.00  0.00    -0.378 N 
HETATM    7  N   UNK N   1      24.816  19.528   3.388  0.00  0.00    -0.345 N 
HETATM    8  O   UNK N   1      23.290  21.141   3.041  0.00  0.00    -0.267 OA
ENDROOT
BRANCH   6   9
HETATM    9  C   UNK N   1      28.191  18.223   5.274  0.00  0.00     0.030 A 
HETATM   10  C   UNK N   1      28.995  17.679   4.258  0.00  0.00     0.031 A 
HETATM   11  C   UNK N   1      30.185  17.030   4.556  0.00  0.00     0.032 A 
HETATM   12  C   UNK N   1      30.601  16.913   5.879  0.00  0.00     0.041 A 
HETATM   13  C   UNK N   1      29.818  17.459   6.913  0.00  0.00    -0.029 A 
HETATM   14  N   UNK N   1      31.809  16.235   6.152  0.00  0.00    -0.327 N 
HETATM   15  C   UNK N   1      30.243  17.350   8.345  0.00  0.00     0.050 A 
HETATM   16  C   UNK N   1      28.612  18.110   6.608  0.00  0.00     0.038 A 
HETATM   17  C   UNK N   1      31.564  16.615   8.608  0.00  0.00     0.108 A 
HETATM   18  C   UNK N   1      32.288  16.072   7.405  0.00  0.00     0.222 A 
HETATM   19  O   UNK N   1      33.335  15.470   7.566  0.00  0.00    -0.273 OA
HETATM   20  H   UNK N   1      32.324  15.867   5.399  0.00  0.00     0.169 HD
ENDBRANCH   6   9
BRANCH   5  21
HETATM   21  C   UNK N   1      22.349  19.059   3.600  0.00  0.00     0.035 A 
HETATM   22  C   UNK N   1      22.132  18.540   4.880  0.00  0.00     0.020 A 
HETATM   23  C   UNK N   1      21.047  17.686   5.118  0.00  0.00     0.040 A 
HETATM   24  C   UNK N   1      20.169  17.310   4.086  0.00  0.00     0.101 A 
HETATM   25  C   UNK N   1      20.396  17.831   2.778  0.00  0.00     0.102 A 
HETATM   26  C   UNK N   1      21.478  18.675   2.576  0.00  0.00     0.056 A 
BRANCH  24  27
HETATM   27  O   UNK N   1      19.178  16.437   4.408  0.00  0.00    -0.353 OA
HETATM   28  C   UNK N   1      19.235  15.070   4.269  0.00  0.00     0.210 C 
ENDBRANCH  24  27
BRANCH  25  29
HETATM   29  O   UNK N   1      19.620  17.571   1.697  0.00  0.00    -0.353 OA
HETATM   30  C   UNK N   1      20.038  16.816   0.628  0.00  0.00     0.210 C 
ENDBRANCH  25  29
ENDBRANCH   5  21
TORSDOF 4
ENDMDL
