MODEL 1
REMARK VINA RESULT:      -7.2      0.000      0.000
REMARK  5 active torsions:
REMARK  status: ('A' for Active; 'I' for Inactive)
REMARK    1  A    between atoms: C_2  and  C_3 
REMARK    2  A    between atoms: C_3  and  C_4 
REMARK    3  A    between atoms: C_4  and  N_5 
REMARK    4  A    between atoms: C_8  and  N_13 
REMARK    5  A    between atoms: C_16  and  C_19 
ROOT
HETATM    1  N   UNK N   1      34.335  14.868   9.838  0.00  0.00    -0.323 N 
HETATM    2  C   UNK N   1      33.094  14.406   9.540  0.00  0.00     0.096 A 
HETATM    3  C   UNK N   1      32.180  15.212   8.866  0.00  0.00     0.048 A 
HETATM    4  C   UNK N   1      32.517  16.519   8.485  0.00  0.00     0.059 A 
HETATM    5  C   UNK N   1      33.831  16.987   8.785  0.00  0.00     0.128 A 
HETATM    6  C   UNK N   1      34.724  16.137   9.461  0.00  0.00     0.271 A 
HETATM    7  O   UNK N   1      35.850  16.532   9.715  0.00  0.00    -0.266 OA
HETATM    8 Cl   UNK N   1      34.432  18.592   8.340  0.00  0.00    -0.076 Cl
ENDROOT
BRANCH   4   9
HETATM    9  N   UNK N   1      31.513  17.328   7.840  0.00  0.00    -0.379 N 
HETATM   10  C   UNK N   1      31.221  17.161   6.431  0.00  0.00     0.123 C 
HETATM   11  C   UNK N   1      29.807  16.595   6.267  0.00  0.00     0.029 C 
HETATM   12  C   UNK N   1      28.757  17.360   7.097  0.00  0.00     0.021 C 
HETATM   13  C   UNK N   1      29.230  17.565   8.545  0.00  0.00     0.029 C 
HETATM   14  C   UNK N   1      30.622  18.184   8.580  0.00  0.00     0.123 C 
BRANCH  12  15
HETATM   15  C   UNK N   1      28.252  18.616   6.429  0.00  0.00    -0.054 A 
HETATM   16  C   UNK N   1      28.223  18.683   5.029  0.00  0.00     0.007 A 
HETATM   17  C   UNK N   1      27.704  19.811   4.387  0.00  0.00     0.001 A 
HETATM   18  C   UNK N   1      27.200  20.875   5.139  0.00  0.00     0.000 A 
HETATM   19  C   UNK N   1      27.220  20.816   6.534  0.00  0.00     0.001 A 
HETATM   20  C   UNK N   1      27.739  19.690   7.177  0.00  0.00     0.007 A 
ENDBRANCH  12  15
ENDBRANCH   4   9
BRANCH   1  21
HETATM   21  C   UNK N   1      35.257  13.977  10.541  0.00  0.00     0.131 C 
BRANCH  21  22
HETATM   22  C   UNK N   1      34.984  13.990  12.041  0.00  0.00     0.020 C 
BRANCH  22  23
HETATM   23  C   UNK N   1      36.111  14.693  12.778  0.00  0.00    -0.003 C 
HETATM   24  C   UNK N   1      36.420  13.983  14.084  0.00  0.00     0.005 C 
ENDBRANCH  22  23
ENDBRANCH  21  22
ENDBRANCH   1  21
TORSDOF 5
ENDMDL
MODEL 2
REMARK VINA RESULT:      -6.6      3.150      4.642
REMARK  5 active torsions:
REMARK  status: ('A' for Active; 'I' for Inactive)
REMARK    1  A    between atoms: C_2  and  C_3 
REMARK    2  A    between atoms: C_3  and  C_4 
REMARK    3  A    between atoms: C_4  and  N_5 
REMARK    4  A    between atoms: C_8  and  N_13 
REMARK    5  A    between atoms: C_16  and  C_19 
ROOT
HETATM    1  N   UNK N   1      35.868  13.265  12.702  0.00  0.00    -0.323 N 
HETATM    2  C   UNK N   1      35.674  14.601  12.560  0.00  0.00     0.096 A 
HETATM    3  C   UNK N   1      35.065  15.111  11.416  0.00  0.00     0.048 A 
HETATM    4  C   UNK N   1      34.645  14.260  10.383  0.00  0.00     0.059 A 
HETATM    5  C   UNK N   1      34.836  12.856  10.553  0.00  0.00     0.128 A 
HETATM    6  C   UNK N   1      35.448  12.384  11.726  0.00  0.00     0.271 A 
HETATM    7  O   UNK N   1      35.610  11.184  11.877  0.00  0.00    -0.266 OA
HETATM    8 Cl   UNK N   1      34.328  11.642   9.368  0.00  0.00    -0.076 Cl
ENDROOT
BRANCH   4   9
HETATM    9  N   UNK N   1      34.073  14.847   9.197  0.00  0.00    -0.379 N 
HETATM   10  C   UNK N   1      32.642  14.819   8.975  0.00  0.00     0.123 C 
HETATM   11  C   UNK N   1      32.085  16.244   9.049  0.00  0.00     0.029 C 
HETATM   12  C   UNK N   1      32.891  17.244   8.196  0.00  0.00     0.021 C 
HETATM   13  C   UNK N   1      34.401  17.103   8.445  0.00  0.00     0.029 C 
HETATM   14  C   UNK N   1      34.845  15.654   8.288  0.00  0.00     0.123 C 
BRANCH  12  15
HETATM   15  C   UNK N   1      32.503  17.249   6.737  0.00  0.00    -0.054 A 
HETATM   16  C   UNK N   1      31.157  17.077   6.385  0.00  0.00     0.007 A 
HETATM   17  C   UNK N   1      30.764  17.137   5.045  0.00  0.00     0.001 A 
HETATM   18  C   UNK N   1      31.713  17.379   4.047  0.00  0.00     0.000 A 
HETATM   19  C   UNK N   1      33.055  17.556   4.388  0.00  0.00     0.001 A 
HETATM   20  C   UNK N   1      33.449  17.495   5.727  0.00  0.00     0.007 A 
ENDBRANCH  12  15
ENDBRANCH   4   9
BRANCH   1  21
HETATM   21  C   UNK N   1      36.507  12.783  13.926  0.00  0.00     0.131 C 
BRANCH  21  22
HETATM   22  C   UNK N   1      36.045  13.592  15.133  0.00  0.00     0.020 C 
BRANCH  22  23
HETATM   23  C   UNK N   1      34.876  12.903  15.815  0.00  0.00    -0.003 C 
HETATM   24  C   UNK N   1      35.020  12.977  17.325  0.00  0.00     0.005 C 
ENDBRANCH  22  23
ENDBRANCH  21  22
ENDBRANCH   1  21
TORSDOF 5
ENDMDL
MODEL 3
REMARK VINA RESULT:      -6.6      4.930     10.220
REMARK  5 active torsions:
REMARK  status: ('A' for Active; 'I' for Inactive)
REMARK    1  A    between atoms: C_2  and  C_3 
REMARK    2  A    between atoms: C_3  and  C_4 
REMARK    3  A    between atoms: C_4  and  N_5 
REMARK    4  A    between atoms: C_8  and  N_13 
REMARK    5  A    between atoms: C_16  and  C_19 
ROOT
HETATM    1  N   UNK N   1      23.829  18.835   4.082  0.00  0.00    -0.323 N 
HETATM    2  C   UNK N   1      24.763  19.786   3.824  0.00  0.00     0.096 A 
HETATM    3  C   UNK N   1      26.081  19.617   4.239  0.00  0.00     0.048 A 
HETATM    4  C   UNK N   1      26.474  18.465   4.938  0.00  0.00     0.059 A 
HETATM    5  C   UNK N   1      25.488  17.463   5.185  0.00  0.00     0.128 A 
HETATM    6  C   UNK N   1      24.171  17.672   4.742  0.00  0.00     0.271 A 
HETATM    7  O   UNK N   1      23.327  16.816   4.948  0.00  0.00    -0.266 OA
HETATM    8 Cl   UNK N   1      25.823  15.935   6.014  0.00  0.00    -0.076 Cl
ENDROOT
BRANCH   4   9
HETATM    9  N   UNK N   1      27.838  18.368   5.393  0.00  0.00    -0.379 N 
HETATM   10  C   UNK N   1      28.194  18.741   6.747  0.00  0.00     0.123 C 
HETATM   11  C   UNK N   1      28.629  17.494   7.523  0.00  0.00     0.029 C 
HETATM   12  C   UNK N   1      29.658  16.642   6.754  0.00  0.00     0.021 C 
HETATM   13  C   UNK N   1      29.216  16.404   5.302  0.00  0.00     0.029 C 
HETATM   14  C   UNK N   1      28.864  17.720   4.618  0.00  0.00     0.123 C 
BRANCH  12  15
HETATM   15  C   UNK N   1      31.079  17.132   6.895  0.00  0.00    -0.054 A 
HETATM   16  C   UNK N   1      31.508  17.644   8.127  0.00  0.00     0.007 A 
HETATM   17  C   UNK N   1      32.835  18.049   8.300  0.00  0.00     0.001 A 
HETATM   18  C   UNK N   1      33.745  17.937   7.245  0.00  0.00     0.000 A 
HETATM   19  C   UNK N   1      33.328  17.424   6.015  0.00  0.00     0.001 A 
HETATM   20  C   UNK N   1      32.002  17.019   5.841  0.00  0.00     0.007 A 
ENDBRANCH  12  15
ENDBRANCH   4   9
BRANCH   1  21
HETATM   21  C   UNK N   1      22.461  19.062   3.618  0.00  0.00     0.131 C 
BRANCH  21  22
HETATM   22  C   UNK N   1      22.371  20.347   2.804  0.00  0.00     0.020 C 
BRANCH  22  23
HETATM   23  C   UNK N   1      21.085  20.371   1.994  0.00  0.00    -0.003 C 
HETATM   24  C   UNK N   1      20.397  19.019   2.047  0.00  0.00     0.005 C 
ENDBRANCH  22  23
ENDBRANCH  21  22
ENDBRANCH   1  21
TORSDOF 5
ENDMDL
MODEL 4
REMARK VINA RESULT:      -6.6      5.655     10.630
REMARK  5 active torsions:
REMARK  status: ('A' for Active; 'I' for Inactive)
REMARK    1  A    between atoms: C_2  and  C_3 
REMARK    2  A    between atoms: C_3  and  C_4 
REMARK    3  A    between atoms: C_4  and  N_5 
REMARK    4  A    between atoms: C_8  and  N_13 
REMARK    5  A    between atoms: C_16  and  C_19 
ROOT
HETATM    1  N   UNK N   1      23.013  18.897   3.986  0.00  0.00    -0.323 N 
HETATM    2  C   UNK N   1      23.513  17.917   4.780  0.00  0.00     0.096 A 
HETATM    3  C   UNK N   1      24.886  17.800   4.983  0.00  0.00     0.048 A 
HETATM    4  C   UNK N   1      25.783  18.686   4.368  0.00  0.00     0.059 A 
HETATM    5  C   UNK N   1      25.245  19.724   3.551  0.00  0.00     0.128 A 
HETATM    6  C   UNK N   1      23.852  19.810   3.379  0.00  0.00     0.271 A 
HETATM    7  O   UNK N   1      23.388  20.699   2.685  0.00  0.00    -0.266 OA
HETATM    8 Cl   UNK N   1      26.230  20.949   2.736  0.00  0.00    -0.076 Cl
ENDROOT
BRANCH   4   9
HETATM    9  N   UNK N   1      27.196  18.483   4.567  0.00  0.00    -0.379 N 
HETATM   10  C   UNK N   1      27.867  19.039   5.725  0.00  0.00     0.123 C 
HETATM   11  C   UNK N   1      28.330  17.903   6.641  0.00  0.00     0.029 C 
HETATM   12  C   UNK N   1      29.083  16.792   5.882  0.00  0.00     0.021 C 
HETATM   13  C   UNK N   1      28.321  16.362   4.619  0.00  0.00     0.029 C 
HETATM   14  C   UNK N   1      27.965  17.570   3.761  0.00  0.00     0.123 C 
BRANCH  12  15
HETATM   15  C   UNK N   1      30.543  17.098   5.649  0.00  0.00    -0.054 A 
HETATM   16  C   UNK N   1      31.416  17.147   6.744  0.00  0.00     0.007 A 
HETATM   17  C   UNK N   1      32.782  17.369   6.549  0.00  0.00     0.001 A 
HETATM   18  C   UNK N   1      33.287  17.534   5.256  0.00  0.00     0.000 A 
HETATM   19  C   UNK N   1      32.426  17.482   4.158  0.00  0.00     0.001 A 
HETATM   20  C   UNK N   1      31.060  17.261   4.352  0.00  0.00     0.007 A 
ENDBRANCH  12  15
ENDBRANCH   4   9
BRANCH   1  21
HETATM   21  C   UNK N   1      21.564  18.978   3.812  0.00  0.00     0.131 C 
BRANCH  21  22
HETATM   22  C   UNK N   1      21.044  17.776   3.031  0.00  0.00     0.020 C 
BRANCH  22  23
HETATM   23  C   UNK N   1      20.287  18.235   1.796  0.00  0.00    -0.003 C 
HETATM   24  C   UNK N   1      20.075  17.075   0.839  0.00  0.00     0.005 C 
ENDBRANCH  22  23
ENDBRANCH  21  22
ENDBRANCH   1  21
TORSDOF 5
ENDMDL
MODEL 5
REMARK VINA RESULT:      -6.5      4.379     11.292
REMARK  5 active torsions:
REMARK  status: ('A' for Active; 'I' for Inactive)
REMARK    1  A    between atoms: C_2  and  C_3 
REMARK    2  A    between atoms: C_3  and  C_4 
REMARK    3  A    between atoms: C_4  and  N_5 
REMARK    4  A    between atoms: C_8  and  N_13 
REMARK    5  A    between atoms: C_16  and  C_19 
ROOT
HETATM    1  N   UNK N   1      35.437  14.584  10.643  0.00  0.00    -0.323 N 
HETATM    2  C   UNK N   1      35.897  15.307  11.694  0.00  0.00     0.096 A 
HETATM    3  C   UNK N   1      36.008  14.731  12.957  0.00  0.00     0.048 A 
HETATM    4  C   UNK N   1      35.640  13.395  13.174  0.00  0.00     0.059 A 
HETATM    5  C   UNK N   1      35.177  12.638  12.057  0.00  0.00     0.128 A 
HETATM    6  C   UNK N   1      35.088  13.257  10.798  0.00  0.00     0.271 A 
HETATM    7  O   UNK N   1      34.696  12.612   9.840  0.00  0.00    -0.266 OA
HETATM    8 Cl   UNK N   1      34.713  10.932  12.146  0.00  0.00    -0.076 Cl
ENDROOT
BRANCH   4   9
HETATM    9  N   UNK N   1      35.722  12.867  14.513  0.00  0.00    -0.379 N 
HETATM   10  C   UNK N   1      34.522  12.649  15.296  0.00  0.00     0.123 C 
HETATM   11  C   UNK N   1      34.320  11.146  15.513  0.00  0.00     0.029 C 
HETATM   12  C   UNK N   1      35.598  10.437  16.006  0.00  0.00     0.021 C 
HETATM   13  C   UNK N   1      36.819  10.831  15.160  0.00  0.00     0.029 C 
HETATM   14  C   UNK N   1      36.947  12.347  15.063  0.00  0.00     0.123 C 
BRANCH  12  15
HETATM   15  C   UNK N   1      35.817  10.547  17.496  0.00  0.00    -0.054 A 
HETATM   16  C   UNK N   1      36.663   9.629  18.133  0.00  0.00     0.007 A 
HETATM   17  C   UNK N   1      36.930   9.746  19.500  0.00  0.00     0.001 A 
HETATM   18  C   UNK N   1      36.359  10.786  20.239  0.00  0.00     0.000 A 
HETATM   19  C   UNK N   1      35.519  11.709  19.612  0.00  0.00     0.001 A 
HETATM   20  C   UNK N   1      35.251  11.593  18.245  0.00  0.00     0.007 A 
ENDBRANCH  12  15
ENDBRANCH   4   9
BRANCH   1  21
HETATM   21  C   UNK N   1      35.346  15.236   9.338  0.00  0.00     0.131 C 
BRANCH  21  22
HETATM   22  C   UNK N   1      34.749  16.633   9.470  0.00  0.00     0.020 C 
BRANCH  22  23
HETATM   23  C   UNK N   1      34.435  17.206   8.098  0.00  0.00    -0.003 C 
HETATM   24  C   UNK N   1      33.227  18.123   8.168  0.00  0.00     0.005 C 
ENDBRANCH  22  23
ENDBRANCH  21  22
ENDBRANCH   1  21
TORSDOF 5
ENDMDL
MODEL 6
REMARK VINA RESULT:      -6.2      2.767      8.678
REMARK  5 active torsions:
REMARK  status: ('A' for Active; 'I' for Inactive)
REMARK    1  A    between atoms: C_2  and  C_3 
REMARK    2  A    between atoms: C_3  and  C_4 
REMARK    3  A    between atoms: C_4  and  N_5 
REMARK    4  A    between atoms: C_8  and  N_13 
REMARK    5  A    between atoms: C_16  and  C_19 
ROOT
HETATM    1  N   UNK N   1      28.001  18.380   5.644  0.00  0.00    -0.323 N 
HETATM    2  C   UNK N   1      28.909  17.562   5.054  0.00  0.00     0.096 A 
HETATM    3  C   UNK N   1      29.990  17.064   5.777  0.00  0.00     0.048 A 
HETATM    4  C   UNK N   1      30.170  17.400   7.127  0.00  0.00     0.059 A 
HETATM    5  C   UNK N   1      29.198  18.245   7.742  0.00  0.00     0.128 A 
HETATM    6  C   UNK N   1      28.119  18.719   6.977  0.00  0.00     0.271 A 
HETATM    7  O   UNK N   1      27.283  19.438   7.500  0.00  0.00    -0.266 OA
HETATM    8 Cl   UNK N   1      29.251  18.732   9.443  0.00  0.00    -0.076 Cl
ENDROOT
BRANCH   4   9
HETATM    9  N   UNK N   1      31.337  16.903   7.811  0.00  0.00    -0.379 N 
HETATM   10  C   UNK N   1      31.813  15.555   7.575  0.00  0.00     0.123 C 
HETATM   11  C   UNK N   1      33.168  15.608   6.863  0.00  0.00     0.029 C 
HETATM   12  C   UNK N   1      34.160  16.577   7.538  0.00  0.00     0.021 C 
HETATM   13  C   UNK N   1      33.504  17.936   7.830  0.00  0.00     0.029 C 
HETATM   14  C   UNK N   1      32.195  17.756   8.590  0.00  0.00     0.123 C 
BRANCH  12  15
HETATM   15  C   UNK N   1      34.888  15.976   8.716  0.00  0.00    -0.054 A 
HETATM   16  C   UNK N   1      35.402  14.676   8.614  0.00  0.00     0.007 A 
HETATM   17  C   UNK N   1      36.132  14.120   9.669  0.00  0.00     0.001 A 
HETATM   18  C   UNK N   1      36.361  14.863  10.830  0.00  0.00     0.000 A 
HETATM   19  C   UNK N   1      35.857  16.161  10.940  0.00  0.00     0.001 A 
HETATM   20  C   UNK N   1      35.127  16.717   9.887  0.00  0.00     0.007 A 
ENDBRANCH  12  15
ENDBRANCH   4   9
BRANCH   1  21
HETATM   21  C   UNK N   1      26.882  18.869   4.840  0.00  0.00     0.131 C 
BRANCH  21  22
HETATM   22  C   UNK N   1      27.315  20.039   3.964  0.00  0.00     0.020 C 
BRANCH  22  23
HETATM   23  C   UNK N   1      26.154  20.518   3.109  0.00  0.00    -0.003 C 
HETATM   24  C   UNK N   1      24.838  19.987   3.650  0.00  0.00     0.005 C 
ENDBRANCH  22  23
ENDBRANCH  21  22
ENDBRANCH   1  21
TORSDOF 5
ENDMDL
MODEL 7
REMARK VINA RESULT:      -6.2      4.330     10.699
REMARK  5 active torsions:
REMARK  status: ('A' for Active; 'I' for Inactive)
REMARK    1  A    between atoms: C_2  and  C_3 
REMARK    2  A    between atoms: C_3  and  C_4 
REMARK    3  A    between atoms: C_4  and  N_5 
REMARK    4  A    between atoms: C_8  and  N_13 
REMARK    5  A    between atoms: C_16  and  C_19 
ROOT
HETATM    1  N   UNK N   1      35.287  14.707   9.579  0.00  0.00    -0.323 N 
HETATM    2  C   UNK N   1      34.869  13.417   9.521  0.00  0.00     0.096 A 
HETATM    3  C   UNK N   1      34.930  12.600  10.647  0.00  0.00     0.048 A 
HETATM    4  C   UNK N   1      35.430  13.089  11.864  0.00  0.00     0.059 A 
HETATM    5  C   UNK N   1      35.847  14.452  11.918  0.00  0.00     0.128 A 
HETATM    6  C   UNK N   1      35.762  15.242  10.759  0.00  0.00     0.271 A 
HETATM    7  O   UNK N   1      36.114  16.409  10.802  0.00  0.00    -0.266 OA
HETATM    8 Cl   UNK N   1      36.462  15.237  13.381  0.00  0.00    -0.076 Cl
ENDROOT
BRANCH   4   9
HETATM    9  N   UNK N   1      35.523  12.184  12.982  0.00  0.00    -0.379 N 
HETATM   10  C   UNK N   1      36.750  11.460  13.248  0.00  0.00     0.123 C 
HETATM   11  C   UNK N   1      37.365  11.962  14.558  0.00  0.00     0.029 C 
HETATM   12  C   UNK N   1      36.344  12.026  15.711  0.00  0.00     0.021 C 
HETATM   13  C   UNK N   1      35.047  12.723  15.273  0.00  0.00     0.029 C 
HETATM   14  C   UNK N   1      34.501  12.101  13.993  0.00  0.00     0.123 C 
BRANCH  12  15
HETATM   15  C   UNK N   1      36.130  10.703  16.407  0.00  0.00    -0.054 A 
HETATM   16  C   UNK N   1      34.982  10.517  17.188  0.00  0.00     0.007 A 
HETATM   17  C   UNK N   1      34.731   9.282  17.793  0.00  0.00     0.001 A 
HETATM   18  C   UNK N   1      35.622   8.221  17.614  0.00  0.00     0.000 A 
HETATM   19  C   UNK N   1      36.767   8.394  16.833  0.00  0.00     0.001 A 
HETATM   20  C   UNK N   1      37.019   9.628  16.229  0.00  0.00     0.007 A 
ENDBRANCH  12  15
ENDBRANCH   4   9
BRANCH   1  21
HETATM   21  C   UNK N   1      35.196  15.521   8.368  0.00  0.00     0.131 C 
BRANCH  21  22
HETATM   22  C   UNK N   1      33.754  15.940   8.104  0.00  0.00     0.020 C 
BRANCH  22  23
HETATM   23  C   UNK N   1      33.713  17.310   7.449  0.00  0.00    -0.003 C 
HETATM   24  C   UNK N   1      34.556  18.302   8.232  0.00  0.00     0.005 C 
ENDBRANCH  22  23
ENDBRANCH  21  22
ENDBRANCH   1  21
TORSDOF 5
ENDMDL
MODEL 8
REMARK VINA RESULT:      -6.0      3.720      4.732
REMARK  5 active torsions:
REMARK  status: ('A' for Active; 'I' for Inactive)
REMARK    1  A    between atoms: C_2  and  C_3 
REMARK    2  A    between atoms: C_3  and  C_4 
REMARK    3  A    between atoms: C_4  and  N_5 
REMARK    4  A    between atoms: C_8  and  N_13 
REMARK    5  A    between atoms: C_16  and  C_19 
ROOT
HETATM    1  N   UNK N   1      36.269  13.319  12.115  0.00  0.00    -0.323 N 
HETATM    2  C   UNK N   1      34.978  13.711  11.973  0.00  0.00     0.096 A 
HETATM    3  C   UNK N   1      34.494  14.121  10.734  0.00  0.00     0.048 A 
HETATM    4  C   UNK N   1      35.328  14.144   9.606  0.00  0.00     0.059 A 
HETATM    5  C   UNK N   1      36.678  13.710   9.763  0.00  0.00     0.128 A 
HETATM    6  C   UNK N   1      37.123  13.298  11.031  0.00  0.00     0.271 A 
HETATM    7  O   UNK N   1      38.276  12.923  11.169  0.00  0.00    -0.266 OA
HETATM    8 Cl   UNK N   1      37.851  13.637   8.438  0.00  0.00    -0.076 Cl
ENDROOT
BRANCH   4   9
HETATM    9  N   UNK N   1      34.789  14.630   8.361  0.00  0.00    -0.379 N 
HETATM   10  C   UNK N   1      34.274  13.710   7.368  0.00  0.00     0.123 C 
HETATM   11  C   UNK N   1      32.759  13.893   7.238  0.00  0.00     0.029 C 
HETATM   12  C   UNK N   1      32.348  15.371   7.080  0.00  0.00     0.021 C 
HETATM   13  C   UNK N   1      33.041  16.260   8.125  0.00  0.00     0.029 C 
HETATM   14  C   UNK N   1      34.548  16.030   8.121  0.00  0.00     0.123 C 
BRANCH  12  15
HETATM   15  C   UNK N   1      32.456  15.883   5.664  0.00  0.00    -0.054 A 
HETATM   16  C   UNK N   1      32.548  17.264   5.440  0.00  0.00     0.007 A 
HETATM   17  C   UNK N   1      32.709  17.760   4.142  0.00  0.00     0.001 A 
HETATM   18  C   UNK N   1      32.788  16.878   3.061  0.00  0.00     0.000 A 
HETATM   19  C   UNK N   1      32.701  15.501   3.274  0.00  0.00     0.001 A 
HETATM   20  C   UNK N   1      32.540  15.004   4.570  0.00  0.00     0.007 A 
ENDBRANCH  12  15
ENDBRANCH   4   9
BRANCH   1  21
HETATM   21  C   UNK N   1      36.724  12.894  13.438  0.00  0.00     0.131 C 
BRANCH  21  22
HETATM   22  C   UNK N   1      36.147  13.793  14.525  0.00  0.00     0.020 C 
BRANCH  22  23
HETATM   23  C   UNK N   1      35.153  13.023  15.377  0.00  0.00    -0.003 C 
HETATM   24  C   UNK N   1      35.377  13.312  16.851  0.00  0.00     0.005 C 
ENDBRANCH  22  23
ENDBRANCH  21  22
ENDBRANCH   1  21
TORSDOF 5
ENDMDL
MODEL 9
REMARK VINA RESULT:      -5.9      3.646     10.887
REMARK  5 active torsions:
REMARK  status: ('A' for Active; 'I' for Inactive)
REMARK    1  A    between atoms: C_2  and  C_3 
REMARK    2  A    between atoms: C_3  and  C_4 
REMARK    3  A    between atoms: C_4  and  N_5 
REMARK    4  A    between atoms: C_8  and  N_13 
REMARK    5  A    between atoms: C_16  and  C_19 
ROOT
HETATM    1  N   UNK N   1      34.481  14.621   9.844  0.00  0.00    -0.323 N 
HETATM    2  C   UNK N   1      34.780  15.219  11.025  0.00  0.00     0.096 A 
HETATM    3  C   UNK N   1      35.113  14.455  12.141  0.00  0.00     0.048 A 
HETATM    4  C   UNK N   1      35.141  13.054  12.073  0.00  0.00     0.059 A 
HETATM    5  C   UNK N   1      34.845  12.438  10.821  0.00  0.00     0.128 A 
HETATM    6  C   UNK N   1      34.521  13.247   9.718  0.00  0.00     0.271 A 
HETATM    7  O   UNK N   1      34.271  12.724   8.645  0.00  0.00    -0.266 OA
HETATM    8 Cl   UNK N   1      34.876  10.689  10.551  0.00  0.00    -0.076 Cl
ENDROOT
BRANCH   4   9
HETATM    9  N   UNK N   1      35.437  12.313  13.274  0.00  0.00    -0.379 N 
HETATM   10  C   UNK N   1      36.790  12.248  13.789  0.00  0.00     0.123 C 
HETATM   11  C   UNK N   1      36.866  12.997  15.122  0.00  0.00     0.029 C 
HETATM   12  C   UNK N   1      35.742  12.595  16.098  0.00  0.00     0.021 C 
HETATM   13  C   UNK N   1      34.370  12.602  15.405  0.00  0.00     0.029 C 
HETATM   14  C   UNK N   1      34.404  11.778  14.123  0.00  0.00     0.123 C 
BRANCH  12  15
HETATM   15  C   UNK N   1      36.035  11.335  16.876  0.00  0.00    -0.054 A 
HETATM   16  C   UNK N   1      35.529  11.198  18.175  0.00  0.00     0.007 A 
HETATM   17  C   UNK N   1      35.736  10.017  18.893  0.00  0.00     0.001 A 
HETATM   18  C   UNK N   1      36.443   8.960  18.314  0.00  0.00     0.000 A 
HETATM   19  C   UNK N   1      36.949   9.085  17.018  0.00  0.00     0.001 A 
HETATM   20  C   UNK N   1      36.743  10.265  16.300  0.00  0.00     0.007 A 
ENDBRANCH  12  15
ENDBRANCH   4   9
BRANCH   1  21
HETATM   21  C   UNK N   1      34.143  15.470   8.703  0.00  0.00     0.131 C 
BRANCH  21  22
HETATM   22  C   UNK N   1      32.704  15.964   8.801  0.00  0.00     0.020 C 
BRANCH  22  23
HETATM   23  C   UNK N   1      32.624  17.436   8.432  0.00  0.00    -0.003 C 
HETATM   24  C   UNK N   1      31.209  17.955   8.614  0.00  0.00     0.005 C 
ENDBRANCH  22  23
ENDBRANCH  21  22
ENDBRANCH   1  21
TORSDOF 5
ENDMDL
