MODEL 1
REMARK VINA RESULT:      -7.2      0.000      0.000
REMARK  13 active torsions:
REMARK  status: ('A' for Active; 'I' for Inactive)
REMARK    1  A    between atoms: C_3  and  O_26 
REMARK    2  A    between atoms: C_6  and  C_7 
REMARK    3  A    between atoms: C_7  and  C_8 
REMARK    4  A    between atoms: C_15  and  C_10 
REMARK    5  A    between atoms: C_16  and  O_25 
REMARK    6  A    between atoms: C_17  and  O_24 
REMARK    7  A    between atoms: C_18  and  O_23 
REMARK    8  A    between atoms: C_19  and  C_21 
REMARK    9  A    between atoms: C_21  and  O_22 
REMARK   10  A    between atoms: O_26  and  C_27 
REMARK   11  A    between atoms: C_27  and  C_28 
REMARK   12  A    between atoms: C_28  and  O_29 
REMARK   13  A    between atoms: O_29  and  C_30 
ROOT
HETATM    1  C   UNK N   1      27.022  23.770  -6.760  0.00  0.00    -0.032 A 
HETATM    2  C   UNK N   1      27.927  23.394  -5.762  0.00  0.00     0.019 A 
HETATM    3  C   UNK N   1      29.236  23.023  -6.044  0.00  0.00    -0.026 A 
HETATM    4  C   UNK N   1      29.662  23.017  -7.378  0.00  0.00     0.011 A 
HETATM    5  C   UNK N   1      28.778  23.403  -8.397  0.00  0.00     0.025 A 
HETATM    6  C   UNK N   1      27.460  23.781  -8.095  0.00  0.00     0.040 A 
HETATM    7 Cl   UNK N   1      26.384  24.248  -9.403  0.00  0.00    -0.084 Cl
ENDROOT
BRANCH   3   8
HETATM    8  C   UNK N   1      30.149  22.584  -4.922  0.00  0.00     0.186 C 
HETATM    9  C   UNK N   1      29.942  23.319  -3.568  0.00  0.00     0.182 C 
HETATM   10  C   UNK N   1      31.053  22.945  -2.587  0.00  0.00     0.181 C 
HETATM   11  C   UNK N   1      31.666  21.605  -2.966  0.00  0.00     0.180 C 
HETATM   12  C   UNK N   1      32.217  21.707  -4.416  0.00  0.00     0.177 C 
HETATM   13  O   UNK N   1      31.511  22.608  -5.270  0.00  0.00    -0.368 OA
BRANCH   9  14
HETATM   14  O   UNK N   1      29.969  24.707  -3.727  0.00  0.00    -0.390 OA
HETATM   15  H   UNK N   1      30.305  25.507  -3.292  0.00  0.00     0.210 HD
ENDBRANCH   9  14
BRANCH  10  16
HETATM   16  O   UNK N   1      30.549  22.928  -1.286  0.00  0.00    -0.390 OA
HETATM   17  H   UNK N   1      30.810  23.465  -0.521  0.00  0.00     0.210 HD
ENDBRANCH  10  16
BRANCH  11  18
HETATM   18  O   UNK N   1      32.689  21.264  -2.080  0.00  0.00    -0.390 OA
HETATM   19  H   UNK N   1      33.429  20.709  -2.373  0.00  0.00     0.210 HD
ENDBRANCH  11  18
BRANCH  12  20
HETATM   20  C   UNK N   1      32.358  20.336  -5.065  0.00  0.00     0.198 C 
BRANCH  20  21
HETATM   21  O   UNK N   1      31.830  19.347  -4.234  0.00  0.00    -0.398 OA
HETATM   22  H   UNK N   1      31.129  19.559  -3.598  0.00  0.00     0.209 HD
ENDBRANCH  20  21
ENDBRANCH  12  20
ENDBRANCH   3   8
BRANCH   1  23
HETATM   23  C   UNK N   1      25.604  24.154  -6.375  0.00  0.00     0.078 C 
BRANCH  23  24
HETATM   24  C   UNK N   1      25.594  25.321  -5.427  0.00  0.00    -0.054 A 
HETATM   25  C   UNK N   1      26.223  25.211  -4.179  0.00  0.00     0.010 A 
HETATM   26  C   UNK N   1      26.386  26.340  -3.372  0.00  0.00     0.037 A 
HETATM   27  C   UNK N   1      25.943  27.591  -3.812  0.00  0.00     0.068 A 
HETATM   28  C   UNK N   1      25.294  27.695  -5.056  0.00  0.00     0.037 A 
HETATM   29  C   UNK N   1      25.125  26.564  -5.861  0.00  0.00     0.010 A 
BRANCH  27  30
HETATM   30  O   UNK N   1      26.184  28.678  -3.041  0.00  0.00    -0.349 OA
BRANCH  30  31
HETATM   31  C   UNK N   1      27.448  29.051  -2.640  0.00  0.00     0.201 C 
BRANCH  31  32
HETATM   32  C   UNK N   1      28.112  29.903  -3.703  0.00  0.00     0.195 C 
BRANCH  32  33
HETATM   33  O   UNK N   1      29.464  29.569  -3.813  0.00  0.00    -0.384 OA
BRANCH  33  34
HETATM   34  C   UNK N   1      29.750  28.803  -2.680  0.00  0.00     0.121 A 
HETATM   35  C   UNK N   1      31.083  29.250  -2.110  0.00  0.00     0.034 A 
HETATM   36  C   UNK N   1      31.006  27.975  -2.915  0.00  0.00     0.034 A 
ENDBRANCH  33  34
ENDBRANCH  32  33
ENDBRANCH  31  32
ENDBRANCH  30  31
ENDBRANCH  27  30
ENDBRANCH  23  24
ENDBRANCH   1  23
TORSDOF 13
ENDMDL
MODEL 2
REMARK VINA RESULT:      -7.1     11.908     14.440
REMARK  13 active torsions:
REMARK  status: ('A' for Active; 'I' for Inactive)
REMARK    1  A    between atoms: C_3  and  O_26 
REMARK    2  A    between atoms: C_6  and  C_7 
REMARK    3  A    between atoms: C_7  and  C_8 
REMARK    4  A    between atoms: C_15  and  C_10 
REMARK    5  A    between atoms: C_16  and  O_25 
REMARK    6  A    between atoms: C_17  and  O_24 
REMARK    7  A    between atoms: C_18  and  O_23 
REMARK    8  A    between atoms: C_19  and  C_21 
REMARK    9  A    between atoms: C_21  and  O_22 
REMARK   10  A    between atoms: O_26  and  C_27 
REMARK   11  A    between atoms: C_27  and  C_28 
REMARK   12  A    between atoms: C_28  and  O_29 
REMARK   13  A    between atoms: O_29  and  C_30 
ROOT
HETATM    1  C   UNK N   1      23.145  14.941   5.615  0.00  0.00    -0.032 A 
HETATM    2  C   UNK N   1      22.785  15.905   4.667  0.00  0.00     0.019 A 
HETATM    3  C   UNK N   1      21.710  16.766   4.852  0.00  0.00    -0.026 A 
HETATM    4  C   UNK N   1      20.954  16.660   6.026  0.00  0.00     0.011 A 
HETATM    5  C   UNK N   1      21.303  15.711   7.000  0.00  0.00     0.025 A 
HETATM    6  C   UNK N   1      22.395  14.851   6.801  0.00  0.00     0.040 A 
HETATM    7 Cl   UNK N   1      22.791  13.672   8.042  0.00  0.00    -0.084 Cl
ENDROOT
BRANCH   3   8
HETATM    8  C   UNK N   1      21.347  17.754   3.767  0.00  0.00     0.186 C 
HETATM    9  C   UNK N   1      21.639  19.245   4.098  0.00  0.00     0.182 C 
HETATM   10  C   UNK N   1      21.037  20.153   3.025  0.00  0.00     0.181 C 
HETATM   11  C   UNK N   1      20.857  19.388   1.723  0.00  0.00     0.180 C 
HETATM   12  C   UNK N   1      19.937  18.164   1.993  0.00  0.00     0.177 C 
HETATM   13  O   UNK N   1      20.024  17.621   3.311  0.00  0.00    -0.368 OA
BRANCH   9  14
HETATM   14  O   UNK N   1      21.084  19.617   5.325  0.00  0.00    -0.390 OA
HETATM   15  H   UNK N   1      20.222  19.718   5.760  0.00  0.00     0.210 HD
ENDBRANCH   9  14
BRANCH  10  16
HETATM   16  O   UNK N   1      21.846  21.277   2.850  0.00  0.00    -0.390 OA
HETATM   17  H   UNK N   1      22.792  21.323   2.639  0.00  0.00     0.210 HD
ENDBRANCH  10  16
BRANCH  11  18
HETATM   18  O   UNK N   1      20.298  20.209   0.742  0.00  0.00    -0.390 OA
HETATM   19  H   UNK N   1      20.298  21.173   0.848  0.00  0.00     0.210 HD
ENDBRANCH  11  18
BRANCH  12  20
HETATM   20  C   UNK N   1      20.118  17.076   0.941  0.00  0.00     0.198 C 
BRANCH  20  21
HETATM   21  O   UNK N   1      20.297  17.644  -0.321  0.00  0.00    -0.398 OA
HETATM   22  H   UNK N   1      20.945  18.354  -0.455  0.00  0.00     0.209 HD
ENDBRANCH  20  21
ENDBRANCH  12  20
ENDBRANCH   3   8
BRANCH   1  23
HETATM   23  C   UNK N   1      24.326  14.028   5.339  0.00  0.00     0.078 C 
BRANCH  23  24
HETATM   24  C   UNK N   1      25.629  14.762   5.494  0.00  0.00    -0.054 A 
HETATM   25  C   UNK N   1      26.458  14.954   4.380  0.00  0.00     0.010 A 
HETATM   26  C   UNK N   1      27.571  15.793   4.468  0.00  0.00     0.037 A 
HETATM   27  C   UNK N   1      27.856  16.463   5.661  0.00  0.00     0.068 A 
HETATM   28  C   UNK N   1      27.035  16.253   6.785  0.00  0.00     0.037 A 
HETATM   29  C   UNK N   1      25.924  15.408   6.698  0.00  0.00     0.010 A 
BRANCH  27  30
HETATM   30  O   UNK N   1      28.897  17.329   5.693  0.00  0.00    -0.349 OA
BRANCH  30  31
HETATM   31  C   UNK N   1      29.048  18.360   4.791  0.00  0.00     0.201 C 
BRANCH  31  32
HETATM   32  C   UNK N   1      28.057  19.467   5.083  0.00  0.00     0.195 C 
BRANCH  32  33
HETATM   33  O   UNK N   1      27.369  19.818   3.918  0.00  0.00    -0.384 OA
BRANCH  33  34
HETATM   34  C   UNK N   1      26.021  19.866   4.284  0.00  0.00     0.121 A 
HETATM   35  C   UNK N   1      25.317  18.645   3.723  0.00  0.00     0.034 A 
HETATM   36  C   UNK N   1      25.149  19.982   3.042  0.00  0.00     0.034 A 
ENDBRANCH  33  34
ENDBRANCH  32  33
ENDBRANCH  31  32
ENDBRANCH  30  31
ENDBRANCH  27  30
ENDBRANCH  23  24
ENDBRANCH   1  23
TORSDOF 13
ENDMDL
MODEL 3
REMARK VINA RESULT:      -7.1      1.665      2.810
REMARK  13 active torsions:
REMARK  status: ('A' for Active; 'I' for Inactive)
REMARK    1  A    between atoms: C_3  and  O_26 
REMARK    2  A    between atoms: C_6  and  C_7 
REMARK    3  A    between atoms: C_7  and  C_8 
REMARK    4  A    between atoms: C_15  and  C_10 
REMARK    5  A    between atoms: C_16  and  O_25 
REMARK    6  A    between atoms: C_17  and  O_24 
REMARK    7  A    between atoms: C_18  and  O_23 
REMARK    8  A    between atoms: C_19  and  C_21 
REMARK    9  A    between atoms: C_21  and  O_22 
REMARK   10  A    between atoms: O_26  and  C_27 
REMARK   11  A    between atoms: C_27  and  C_28 
REMARK   12  A    between atoms: C_28  and  O_29 
REMARK   13  A    between atoms: O_29  and  C_30 
ROOT
HETATM    1  C   UNK N   1      27.294  23.751  -6.768  0.00  0.00    -0.032 A 
HETATM    2  C   UNK N   1      28.261  22.947  -6.157  0.00  0.00     0.019 A 
HETATM    3  C   UNK N   1      29.546  22.805  -6.669  0.00  0.00    -0.026 A 
HETATM    4  C   UNK N   1      29.881  23.488  -7.845  0.00  0.00     0.011 A 
HETATM    5  C   UNK N   1      28.934  24.313  -8.470  0.00  0.00     0.025 A 
HETATM    6  C   UNK N   1      27.642  24.450  -7.938  0.00  0.00     0.040 A 
HETATM    7 Cl   UNK N   1      26.484  25.486  -8.758  0.00  0.00    -0.084 Cl
ENDROOT
BRANCH   3   8
HETATM    8  C   UNK N   1      30.528  21.884  -5.984  0.00  0.00     0.186 C 
HETATM    9  C   UNK N   1      31.243  20.862  -6.912  0.00  0.00     0.182 C 
HETATM   10  C   UNK N   1      32.039  19.856  -6.080  0.00  0.00     0.181 C 
HETATM   11  C   UNK N   1      32.376  20.445  -4.718  0.00  0.00     0.180 C 
HETATM   12  C   UNK N   1      31.049  20.828  -4.005  0.00  0.00     0.177 C 
HETATM   13  O   UNK N   1      29.984  21.214  -4.874  0.00  0.00    -0.368 OA
BRANCH   9  14
HETATM   14  O   UNK N   1      30.328  20.141  -7.684  0.00  0.00    -0.390 OA
HETATM   15  H   UNK N   1      29.603  20.278  -8.313  0.00  0.00     0.210 HD
ENDBRANCH   9  14
BRANCH  10  16
HETATM   16  O   UNK N   1      33.190  19.476  -6.772  0.00  0.00    -0.390 OA
HETATM   17  H   UNK N   1      33.314  19.340  -7.725  0.00  0.00     0.210 HD
ENDBRANCH  10  16
BRANCH  11  18
HETATM   18  O   UNK N   1      33.093  19.527  -3.949  0.00  0.00    -0.390 OA
HETATM   19  H   UNK N   1      33.200  18.611  -4.248  0.00  0.00     0.210 HD
ENDBRANCH  11  18
BRANCH  12  20
HETATM   20  C   UNK N   1      31.272  21.873  -2.918  0.00  0.00     0.198 C 
BRANCH  20  21
HETATM   21  O   UNK N   1      32.307  21.479  -2.068  0.00  0.00    -0.398 OA
HETATM   22  H   UNK N   1      32.602  20.555  -2.046  0.00  0.00     0.209 HD
ENDBRANCH  20  21
ENDBRANCH  12  20
ENDBRANCH   3   8
BRANCH   1  23
HETATM   23  C   UNK N   1      25.909  23.849  -6.155  0.00  0.00     0.078 C 
BRANCH  23  24
HETATM   24  C   UNK N   1      25.794  25.049  -5.256  0.00  0.00    -0.054 A 
HETATM   25  C   UNK N   1      26.511  25.088  -4.052  0.00  0.00     0.010 A 
HETATM   26  C   UNK N   1      26.564  26.268  -3.304  0.00  0.00     0.037 A 
HETATM   27  C   UNK N   1      25.921  27.422  -3.761  0.00  0.00     0.068 A 
HETATM   28  C   UNK N   1      25.184  27.374  -4.959  0.00  0.00     0.037 A 
HETATM   29  C   UNK N   1      25.126  26.192  -5.705  0.00  0.00     0.010 A 
BRANCH  27  30
HETATM   30  O   UNK N   1      26.054  28.569  -3.054  0.00  0.00    -0.349 OA
BRANCH  30  31
HETATM   31  C   UNK N   1      26.306  29.790  -3.639  0.00  0.00     0.201 C 
BRANCH  31  32
HETATM   32  C   UNK N   1      27.737  29.855  -4.133  0.00  0.00     0.195 C 
BRANCH  32  33
HETATM   33  O   UNK N   1      27.761  30.014  -5.522  0.00  0.00    -0.384 OA
BRANCH  33  34
HETATM   34  C   UNK N   1      28.579  28.986  -5.998  0.00  0.00     0.121 A 
HETATM   35  C   UNK N   1      29.010  29.318  -7.414  0.00  0.00     0.034 A 
HETATM   36  C   UNK N   1      27.916  28.303  -7.186  0.00  0.00     0.034 A 
ENDBRANCH  33  34
ENDBRANCH  32  33
ENDBRANCH  31  32
ENDBRANCH  30  31
ENDBRANCH  27  30
ENDBRANCH  23  24
ENDBRANCH   1  23
TORSDOF 13
ENDMDL
MODEL 4
REMARK VINA RESULT:      -7.0     12.904     15.026
REMARK  13 active torsions:
REMARK  status: ('A' for Active; 'I' for Inactive)
REMARK    1  A    between atoms: C_3  and  O_26 
REMARK    2  A    between atoms: C_6  and  C_7 
REMARK    3  A    between atoms: C_7  and  C_8 
REMARK    4  A    between atoms: C_15  and  C_10 
REMARK    5  A    between atoms: C_16  and  O_25 
REMARK    6  A    between atoms: C_17  and  O_24 
REMARK    7  A    between atoms: C_18  and  O_23 
REMARK    8  A    between atoms: C_19  and  C_21 
REMARK    9  A    between atoms: C_21  and  O_22 
REMARK   10  A    between atoms: O_26  and  C_27 
REMARK   11  A    between atoms: C_27  and  C_28 
REMARK   12  A    between atoms: C_28  and  O_29 
REMARK   13  A    between atoms: O_29  and  C_30 
ROOT
HETATM    1  C   UNK N   1      25.626  18.366   4.149  0.00  0.00    -0.032 A 
HETATM    2  C   UNK N   1      26.600  17.899   5.039  0.00  0.00     0.019 A 
HETATM    3  C   UNK N   1      27.595  18.721   5.553  0.00  0.00    -0.026 A 
HETATM    4  C   UNK N   1      27.630  20.064   5.161  0.00  0.00     0.011 A 
HETATM    5  C   UNK N   1      26.656  20.562   4.281  0.00  0.00     0.025 A 
HETATM    6  C   UNK N   1      25.654  19.720   3.774  0.00  0.00     0.040 A 
HETATM    7 Cl   UNK N   1      24.460  20.383   2.667  0.00  0.00    -0.084 Cl
ENDROOT
BRANCH   3   8
HETATM    8  C   UNK N   1      28.644  18.140   6.474  0.00  0.00     0.186 C 
HETATM    9  C   UNK N   1      29.882  17.520   5.768  0.00  0.00     0.182 C 
HETATM   10  C   UNK N   1      30.757  16.783   6.783  0.00  0.00     0.181 C 
HETATM   11  C   UNK N   1      30.515  17.326   8.184  0.00  0.00     0.180 C 
HETATM   12  C   UNK N   1      29.008  17.158   8.525  0.00  0.00     0.177 C 
HETATM   13  O   UNK N   1      28.123  17.225   7.406  0.00  0.00    -0.368 OA
BRANCH   9  14
HETATM   14  O   UNK N   1      29.506  16.598   4.788  0.00  0.00    -0.390 OA
HETATM   15  H   UNK N   1      29.837  15.805   4.336  0.00  0.00     0.210 HD
ENDBRANCH   9  14
BRANCH  10  16
HETATM   16  O   UNK N   1      32.099  16.892   6.417  0.00  0.00    -0.390 OA
HETATM   17  H   UNK N   1      32.519  17.525   5.813  0.00  0.00     0.210 HD
ENDBRANCH  10  16
BRANCH  11  18
HETATM   18  O   UNK N   1      31.302  16.649   9.117  0.00  0.00    -0.390 OA
HETATM   19  H   UNK N   1      30.953  15.878   9.589  0.00  0.00     0.210 HD
ENDBRANCH  11  18
BRANCH  12  20
HETATM   20  C   UNK N   1      28.567  18.112   9.629  0.00  0.00     0.198 C 
BRANCH  20  21
HETATM   21  O   UNK N   1      29.677  18.626  10.300  0.00  0.00    -0.398 OA
HETATM   22  H   UNK N   1      30.053  18.158  11.063  0.00  0.00     0.209 HD
ENDBRANCH  20  21
ENDBRANCH  12  20
ENDBRANCH   3   8
BRANCH   1  23
HETATM   23  C   UNK N   1      24.575  17.406   3.622  0.00  0.00     0.078 C 
BRANCH  23  24
HETATM   24  C   UNK N   1      23.418  17.288   4.574  0.00  0.00    -0.054 A 
HETATM   25  C   UNK N   1      23.361  16.212   5.472  0.00  0.00     0.010 A 
HETATM   26  C   UNK N   1      22.399  16.193   6.485  0.00  0.00     0.037 A 
HETATM   27  C   UNK N   1      21.500  17.254   6.624  0.00  0.00     0.068 A 
HETATM   28  C   UNK N   1      21.545  18.322   5.709  0.00  0.00     0.037 A 
HETATM   29  C   UNK N   1      22.504  18.339   4.691  0.00  0.00     0.010 A 
BRANCH  27  30
HETATM   30  O   UNK N   1      20.629  17.242   7.661  0.00  0.00    -0.349 OA
BRANCH  30  31
HETATM   31  C   UNK N   1      20.748  16.386   8.734  0.00  0.00     0.201 C 
BRANCH  31  32
HETATM   32  C   UNK N   1      19.424  15.708   9.019  0.00  0.00     0.195 C 
BRANCH  32  33
HETATM   33  O   UNK N   1      19.613  14.334   9.190  0.00  0.00    -0.384 OA
BRANCH  33  34
HETATM   34  C   UNK N   1      20.961  14.185   9.525  0.00  0.00     0.121 A 
HETATM   35  C   UNK N   1      21.473  12.886   8.932  0.00  0.00     0.034 A 
HETATM   36  C   UNK N   1      21.146  12.956  10.404  0.00  0.00     0.034 A 
ENDBRANCH  33  34
ENDBRANCH  32  33
ENDBRANCH  31  32
ENDBRANCH  30  31
ENDBRANCH  27  30
ENDBRANCH  23  24
ENDBRANCH   1  23
TORSDOF 13
ENDMDL
MODEL 5
REMARK VINA RESULT:      -7.0     14.001     18.106
REMARK  13 active torsions:
REMARK  status: ('A' for Active; 'I' for Inactive)
REMARK    1  A    between atoms: C_3  and  O_26 
REMARK    2  A    between atoms: C_6  and  C_7 
REMARK    3  A    between atoms: C_7  and  C_8 
REMARK    4  A    between atoms: C_15  and  C_10 
REMARK    5  A    between atoms: C_16  and  O_25 
REMARK    6  A    between atoms: C_17  and  O_24 
REMARK    7  A    between atoms: C_18  and  O_23 
REMARK    8  A    between atoms: C_19  and  C_21 
REMARK    9  A    between atoms: C_21  and  O_22 
REMARK   10  A    between atoms: O_26  and  C_27 
REMARK   11  A    between atoms: C_27  and  C_28 
REMARK   12  A    between atoms: C_28  and  O_29 
REMARK   13  A    between atoms: O_29  and  C_30 
ROOT
HETATM    1  C   UNK N   1      33.292  14.966   6.187  0.00  0.00    -0.032 A 
HETATM    2  C   UNK N   1      32.254  15.888   6.357  0.00  0.00     0.019 A 
HETATM    3  C   UNK N   1      30.947  15.619   5.968  0.00  0.00    -0.026 A 
HETATM    4  C   UNK N   1      30.660  14.382   5.378  0.00  0.00     0.011 A 
HETATM    5  C   UNK N   1      31.681  13.433   5.210  0.00  0.00     0.025 A 
HETATM    6  C   UNK N   1      32.995  13.718   5.612  0.00  0.00     0.040 A 
HETATM    7 Cl   UNK N   1      34.244  12.505   5.373  0.00  0.00    -0.084 Cl
ENDROOT
BRANCH   3   8
HETATM    8  C   UNK N   1      29.882  16.677   6.139  0.00  0.00     0.186 C 
HETATM    9  C   UNK N   1      29.470  17.425   4.840  0.00  0.00     0.182 C 
HETATM   10  C   UNK N   1      28.555  18.604   5.174  0.00  0.00     0.181 C 
HETATM   11  C   UNK N   1      27.867  18.378   6.511  0.00  0.00     0.180 C 
HETATM   12  C   UNK N   1      28.959  18.197   7.603  0.00  0.00     0.177 C 
HETATM   13  O   UNK N   1      30.179  17.611   7.148  0.00  0.00    -0.368 OA
BRANCH   9  14
HETATM   14  O   UNK N   1      30.584  17.934   4.165  0.00  0.00    -0.390 OA
HETATM   15  H   UNK N   1      30.820  18.601   3.501  0.00  0.00     0.210 HD
ENDBRANCH   9  14
BRANCH  10  16
HETATM   16  O   UNK N   1      27.629  18.788   4.146  0.00  0.00    -0.390 OA
HETATM   17  H   UNK N   1      27.786  18.965   3.205  0.00  0.00     0.210 HD
ENDBRANCH  10  16
BRANCH  11  18
HETATM   18  O   UNK N   1      27.039  19.456   6.828  0.00  0.00    -0.390 OA
HETATM   19  H   UNK N   1      26.544  19.917   6.133  0.00  0.00     0.210 HD
ENDBRANCH  11  18
BRANCH  12  20
HETATM   20  C   UNK N   1      28.421  17.460   8.825  0.00  0.00     0.198 C 
BRANCH  20  21
HETATM   21  O   UNK N   1      27.404  18.198   9.430  0.00  0.00    -0.398 OA
HETATM   22  H   UNK N   1      27.470  19.164   9.500  0.00  0.00     0.209 HD
ENDBRANCH  20  21
ENDBRANCH  12  20
ENDBRANCH   3   8
BRANCH   1  23
HETATM   23  C   UNK N   1      34.697  15.336   6.627  0.00  0.00     0.078 C 
BRANCH  23  24
HETATM   24  C   UNK N   1      34.894  15.078   8.095  0.00  0.00    -0.054 A 
HETATM   25  C   UNK N   1      34.803  16.140   9.007  0.00  0.00     0.010 A 
HETATM   26  C   UNK N   1      34.792  15.887  10.381  0.00  0.00     0.037 A 
HETATM   27  C   UNK N   1      34.852  14.574  10.857  0.00  0.00     0.068 A 
HETATM   28  C   UNK N   1      34.965  13.512   9.940  0.00  0.00     0.037 A 
HETATM   29  C   UNK N   1      34.981  13.765   8.565  0.00  0.00     0.010 A 
BRANCH  27  30
HETATM   30  O   UNK N   1      34.764  14.356  12.190  0.00  0.00    -0.349 OA
BRANCH  30  31
HETATM   31  C   UNK N   1      35.829  14.508  13.051  0.00  0.00     0.201 C 
BRANCH  31  32
HETATM   32  C   UNK N   1      35.779  13.462  14.145  0.00  0.00     0.195 C 
BRANCH  32  33
HETATM   33  O   UNK N   1      34.522  12.851  14.172  0.00  0.00    -0.384 OA
BRANCH  33  34
HETATM   34  C   UNK N   1      34.766  11.516  14.504  0.00  0.00     0.121 A 
HETATM   35  C   UNK N   1      34.192  10.627  13.417  0.00  0.00     0.034 A 
HETATM   36  C   UNK N   1      33.449  10.785  14.722  0.00  0.00     0.034 A 
ENDBRANCH  33  34
ENDBRANCH  32  33
ENDBRANCH  31  32
ENDBRANCH  30  31
ENDBRANCH  27  30
ENDBRANCH  23  24
ENDBRANCH   1  23
TORSDOF 13
ENDMDL
MODEL 6
REMARK VINA RESULT:      -6.9     12.516     15.021
REMARK  13 active torsions:
REMARK  status: ('A' for Active; 'I' for Inactive)
REMARK    1  A    between atoms: C_3  and  O_26 
REMARK    2  A    between atoms: C_6  and  C_7 
REMARK    3  A    between atoms: C_7  and  C_8 
REMARK    4  A    between atoms: C_15  and  C_10 
REMARK    5  A    between atoms: C_16  and  O_25 
REMARK    6  A    between atoms: C_17  and  O_24 
REMARK    7  A    between atoms: C_18  and  O_23 
REMARK    8  A    between atoms: C_19  and  C_21 
REMARK    9  A    between atoms: C_21  and  O_22 
REMARK   10  A    between atoms: O_26  and  C_27 
REMARK   11  A    between atoms: C_27  and  C_28 
REMARK   12  A    between atoms: C_28  and  O_29 
REMARK   13  A    between atoms: O_29  and  C_30 
ROOT
HETATM    1  C   UNK N   1      22.524  14.808   6.395  0.00  0.00    -0.032 A 
HETATM    2  C   UNK N   1      22.217  15.728   5.387  0.00  0.00     0.019 A 
HETATM    3  C   UNK N   1      21.308  16.762   5.574  0.00  0.00    -0.026 A 
HETATM    4  C   UNK N   1      20.671  16.884   6.815  0.00  0.00     0.011 A 
HETATM    5  C   UNK N   1      20.972  15.983   7.848  0.00  0.00     0.025 A 
HETATM    6  C   UNK N   1      21.896  14.946   7.645  0.00  0.00     0.040 A 
HETATM    7 Cl   UNK N   1      22.237  13.835   8.963  0.00  0.00    -0.084 Cl
ENDROOT
BRANCH   3   8
HETATM    8  C   UNK N   1      20.987  17.694   4.428  0.00  0.00     0.186 C 
HETATM    9  C   UNK N   1      19.591  17.493   3.775  0.00  0.00     0.182 C 
HETATM   10  C   UNK N   1      19.472  18.337   2.505  0.00  0.00     0.181 C 
HETATM   11  C   UNK N   1      20.444  19.506   2.555  0.00  0.00     0.180 C 
HETATM   12  C   UNK N   1      21.885  18.945   2.715  0.00  0.00     0.177 C 
HETATM   13  O   UNK N   1      21.978  17.712   3.429  0.00  0.00    -0.368 OA
BRANCH   9  14
HETATM   14  O   UNK N   1      19.379  16.159   3.415  0.00  0.00    -0.390 OA
HETATM   15  H   UNK N   1      19.491  15.557   2.662  0.00  0.00     0.210 HD
ENDBRANCH   9  14
BRANCH  10  16
HETATM   16  O   UNK N   1      18.156  18.771   2.349  0.00  0.00    -0.390 OA
HETATM   17  H   UNK N   1      17.813  19.504   1.812  0.00  0.00     0.210 HD
ENDBRANCH  10  16
BRANCH  11  18
HETATM   18  O   UNK N   1      20.349  20.275   1.393  0.00  0.00    -0.390 OA
HETATM   19  H   UNK N   1      19.737  21.026   1.348  0.00  0.00     0.210 HD
ENDBRANCH  11  18
BRANCH  12  20
HETATM   20  C   UNK N   1      22.837  19.985   3.293  0.00  0.00     0.198 C 
BRANCH  20  21
HETATM   21  O   UNK N   1      22.514  21.257   2.820  0.00  0.00    -0.398 OA
HETATM   22  H   UNK N   1      21.623  21.447   2.484  0.00  0.00     0.209 HD
ENDBRANCH  20  21
ENDBRANCH  12  20
ENDBRANCH   3   8
BRANCH   1  23
HETATM   23  C   UNK N   1      23.521  13.698   6.113  0.00  0.00     0.078 C 
BRANCH  23  24
HETATM   24  C   UNK N   1      24.921  14.236   6.011  0.00  0.00    -0.054 A 
HETATM   25  C   UNK N   1      25.667  14.018   4.844  0.00  0.00     0.010 A 
HETATM   26  C   UNK N   1      26.889  14.670   4.660  0.00  0.00     0.037 A 
HETATM   27  C   UNK N   1      27.367  15.559   5.627  0.00  0.00     0.068 A 
HETATM   28  C   UNK N   1      26.626  15.760   6.807  0.00  0.00     0.037 A 
HETATM   29  C   UNK N   1      25.406  15.103   6.994  0.00  0.00     0.010 A 
BRANCH  27  30
HETATM   30  O   UNK N   1      28.516  16.233   5.386  0.00  0.00    -0.349 OA
BRANCH  30  31
HETATM   31  C   UNK N   1      28.640  17.595   5.551  0.00  0.00     0.201 C 
BRANCH  31  32
HETATM   32  C   UNK N   1      28.000  18.330   4.391  0.00  0.00     0.195 C 
BRANCH  32  33
HETATM   33  O   UNK N   1      28.055  19.710   4.604  0.00  0.00    -0.384 OA
BRANCH  33  34
HETATM   34  C   UNK N   1      27.431  19.919   5.837  0.00  0.00     0.121 A 
HETATM   35  C   UNK N   1      26.275  20.882   5.644  0.00  0.00     0.034 A 
HETATM   36  C   UNK N   1      27.567  21.378   6.247  0.00  0.00     0.034 A 
ENDBRANCH  33  34
ENDBRANCH  32  33
ENDBRANCH  31  32
ENDBRANCH  30  31
ENDBRANCH  27  30
ENDBRANCH  23  24
ENDBRANCH   1  23
TORSDOF 13
ENDMDL
MODEL 7
REMARK VINA RESULT:      -6.9     12.829     15.624
REMARK  13 active torsions:
REMARK  status: ('A' for Active; 'I' for Inactive)
REMARK    1  A    between atoms: C_3  and  O_26 
REMARK    2  A    between atoms: C_6  and  C_7 
REMARK    3  A    between atoms: C_7  and  C_8 
REMARK    4  A    between atoms: C_15  and  C_10 
REMARK    5  A    between atoms: C_16  and  O_25 
REMARK    6  A    between atoms: C_17  and  O_24 
REMARK    7  A    between atoms: C_18  and  O_23 
REMARK    8  A    between atoms: C_19  and  C_21 
REMARK    9  A    between atoms: C_21  and  O_22 
REMARK   10  A    between atoms: O_26  and  C_27 
REMARK   11  A    between atoms: C_27  and  C_28 
REMARK   12  A    between atoms: C_28  and  O_29 
REMARK   13  A    between atoms: O_29  and  C_30 
ROOT
HETATM    1  C   UNK N   1      29.414  17.099   5.241  0.00  0.00    -0.032 A 
HETATM    2  C   UNK N   1      30.415  17.272   6.202  0.00  0.00     0.019 A 
HETATM    3  C   UNK N   1      31.579  16.512   6.211  0.00  0.00    -0.026 A 
HETATM    4  C   UNK N   1      31.752  15.533   5.225  0.00  0.00     0.011 A 
HETATM    5  C   UNK N   1      30.769  15.349   4.240  0.00  0.00     0.025 A 
HETATM    6  C   UNK N   1      29.601  16.128   4.242  0.00  0.00     0.040 A 
HETATM    7 Cl   UNK N   1      28.392  15.858   2.996  0.00  0.00    -0.084 Cl
ENDROOT
BRANCH   3   8
HETATM    8  C   UNK N   1      32.600  16.719   7.305  0.00  0.00     0.186 C 
HETATM    9  C   UNK N   1      33.562  17.924   7.102  0.00  0.00     0.182 C 
HETATM   10  C   UNK N   1      34.672  17.899   8.152  0.00  0.00     0.181 C 
HETATM   11  C   UNK N   1      34.226  17.114   9.376  0.00  0.00     0.180 C 
HETATM   12  C   UNK N   1      33.854  15.672   8.929  0.00  0.00     0.177 C 
HETATM   13  O   UNK N   1      33.346  15.563   7.599  0.00  0.00    -0.368 OA
BRANCH   9  14
HETATM   14  O   UNK N   1      34.170  17.889   5.844  0.00  0.00    -0.390 OA
HETATM   15  H   UNK N   1      34.690  17.297   5.278  0.00  0.00     0.210 HD
ENDBRANCH   9  14
BRANCH  10  16
HETATM   16  O   UNK N   1      35.035  19.204   8.487  0.00  0.00    -0.390 OA
HETATM   17  H   UNK N   1      34.676  19.781   9.179  0.00  0.00     0.210 HD
ENDBRANCH  10  16
BRANCH  11  18
HETATM   18  O   UNK N   1      35.240  17.077  10.335  0.00  0.00    -0.390 OA
HETATM   19  H   UNK N   1      36.139  17.364  10.112  0.00  0.00     0.210 HD
ENDBRANCH  11  18
BRANCH  12  20
HETATM   20  C   UNK N   1      32.923  14.992   9.926  0.00  0.00     0.198 C 
BRANCH  20  21
HETATM   21  O   UNK N   1      33.465  15.043  11.211  0.00  0.00    -0.398 OA
HETATM   22  H   UNK N   1      34.381  14.766  11.371  0.00  0.00     0.209 HD
ENDBRANCH  20  21
ENDBRANCH  12  20
ENDBRANCH   3   8
BRANCH   1  23
HETATM   23  C   UNK N   1      28.165  17.960   5.302  0.00  0.00     0.078 C 
BRANCH  23  24
HETATM   24  C   UNK N   1      26.972  17.160   5.747  0.00  0.00    -0.054 A 
HETATM   25  C   UNK N   1      25.773  17.236   5.024  0.00  0.00     0.010 A 
HETATM   26  C   UNK N   1      24.724  16.359   5.311  0.00  0.00     0.037 A 
HETATM   27  C   UNK N   1      24.868  15.387   6.305  0.00  0.00     0.068 A 
HETATM   28  C   UNK N   1      26.065  15.327   7.044  0.00  0.00     0.037 A 
HETATM   29  C   UNK N   1      27.113  16.209   6.761  0.00  0.00     0.010 A 
BRANCH  27  30
HETATM   30  O   UNK N   1      23.863  14.503   6.508  0.00  0.00    -0.349 OA
BRANCH  30  31
HETATM   31  C   UNK N   1      22.855  14.287   5.594  0.00  0.00     0.201 C 
BRANCH  31  32
HETATM   32  C   UNK N   1      21.662  13.636   6.264  0.00  0.00     0.195 C 
BRANCH  32  33
HETATM   33  O   UNK N   1      21.751  13.780   7.651  0.00  0.00    -0.384 OA
BRANCH  33  34
HETATM   34  C   UNK N   1      20.530  14.335   8.044  0.00  0.00     0.121 A 
HETATM   35  C   UNK N   1      20.800  15.592   8.849  0.00  0.00     0.034 A 
HETATM   36  C   UNK N   1      20.416  14.318   9.562  0.00  0.00     0.034 A 
ENDBRANCH  33  34
ENDBRANCH  32  33
ENDBRANCH  31  32
ENDBRANCH  30  31
ENDBRANCH  27  30
ENDBRANCH  23  24
ENDBRANCH   1  23
TORSDOF 13
ENDMDL
MODEL 8
REMARK VINA RESULT:      -6.8     11.641     13.924
REMARK  13 active torsions:
REMARK  status: ('A' for Active; 'I' for Inactive)
REMARK    1  A    between atoms: C_3  and  O_26 
REMARK    2  A    between atoms: C_6  and  C_7 
REMARK    3  A    between atoms: C_7  and  C_8 
REMARK    4  A    between atoms: C_15  and  C_10 
REMARK    5  A    between atoms: C_16  and  O_25 
REMARK    6  A    between atoms: C_17  and  O_24 
REMARK    7  A    between atoms: C_18  and  O_23 
REMARK    8  A    between atoms: C_19  and  C_21 
REMARK    9  A    between atoms: C_21  and  O_22 
REMARK   10  A    between atoms: O_26  and  C_27 
REMARK   11  A    between atoms: C_27  and  C_28 
REMARK   12  A    between atoms: C_28  and  O_29 
REMARK   13  A    between atoms: O_29  and  C_30 
ROOT
HETATM    1  C   UNK N   1      28.048  19.321   5.525  0.00  0.00    -0.032 A 
HETATM    2  C   UNK N   1      28.957  18.284   5.762  0.00  0.00     0.019 A 
HETATM    3  C   UNK N   1      29.309  17.880   7.044  0.00  0.00    -0.026 A 
HETATM    4  C   UNK N   1      28.739  18.540   8.139  0.00  0.00     0.011 A 
HETATM    5  C   UNK N   1      27.813  19.574   7.930  0.00  0.00     0.025 A 
HETATM    6  C   UNK N   1      27.463  19.967   6.628  0.00  0.00     0.040 A 
HETATM    7 Cl   UNK N   1      26.307  21.272   6.411  0.00  0.00    -0.084 Cl
ENDROOT
BRANCH   3   8
HETATM    8  C   UNK N   1      30.333  16.784   7.229  0.00  0.00     0.186 C 
HETATM    9  C   UNK N   1      30.988  16.713   8.637  0.00  0.00     0.182 C 
HETATM   10  C   UNK N   1      32.147  15.716   8.633  0.00  0.00     0.181 C 
HETATM   11  C   UNK N   1      31.970  14.704   7.510  0.00  0.00     0.180 C 
HETATM   12  C   UNK N   1      31.896  15.472   6.161  0.00  0.00     0.177 C 
HETATM   13  O   UNK N   1      31.334  16.783   6.241  0.00  0.00    -0.368 OA
BRANCH   9  14
HETATM   14  O   UNK N   1      31.501  17.953   9.027  0.00  0.00    -0.390 OA
HETATM   15  H   UNK N   1      31.246  18.750   9.519  0.00  0.00     0.210 HD
ENDBRANCH   9  14
BRANCH  10  16
HETATM   16  O   UNK N   1      32.235  15.089   9.877  0.00  0.00    -0.390 OA
HETATM   17  H   UNK N   1      32.069  15.457  10.760  0.00  0.00     0.210 HD
ENDBRANCH  10  16
BRANCH  11  18
HETATM   18  O   UNK N   1      33.031  13.797   7.494  0.00  0.00    -0.390 OA
HETATM   19  H   UNK N   1      33.813  13.962   6.944  0.00  0.00     0.210 HD
ENDBRANCH  11  18
BRANCH  12  20
HETATM   20  C   UNK N   1      31.210  14.648   5.078  0.00  0.00     0.198 C 
BRANCH  20  21
HETATM   21  O   UNK N   1      30.831  13.403   5.580  0.00  0.00    -0.398 OA
HETATM   22  H   UNK N   1      31.475  12.838   6.037  0.00  0.00     0.209 HD
ENDBRANCH  20  21
ENDBRANCH  12  20
ENDBRANCH   3   8
BRANCH   1  23
HETATM   23  C   UNK N   1      27.719  19.713   4.095  0.00  0.00     0.078 C 
BRANCH  23  24
HETATM   24  C   UNK N   1      26.264  19.490   3.791  0.00  0.00    -0.054 A 
HETATM   25  C   UNK N   1      25.601  18.377   4.328  0.00  0.00     0.010 A 
HETATM   26  C   UNK N   1      24.214  18.261   4.211  0.00  0.00     0.037 A 
HETATM   27  C   UNK N   1      23.474  19.263   3.577  0.00  0.00     0.068 A 
HETATM   28  C   UNK N   1      24.143  20.369   3.020  0.00  0.00     0.037 A 
HETATM   29  C   UNK N   1      25.532  20.482   3.131  0.00  0.00     0.010 A 
BRANCH  27  30
HETATM   30  O   UNK N   1      22.124  19.159   3.547  0.00  0.00    -0.349 OA
BRANCH  30  31
HETATM   31  C   UNK N   1      21.377  18.729   4.622  0.00  0.00     0.201 C 
BRANCH  31  32
HETATM   32  C   UNK N   1      20.529  17.536   4.234  0.00  0.00     0.195 C 
BRANCH  32  33
HETATM   33  O   UNK N   1      20.291  16.729   5.351  0.00  0.00    -0.384 OA
BRANCH  33  34
HETATM   34  C   UNK N   1      21.234  17.128   6.302  0.00  0.00     0.121 A 
HETATM   35  C   UNK N   1      22.006  15.909   6.769  0.00  0.00     0.034 A 
HETATM   36  C   UNK N   1      20.921  16.485   7.646  0.00  0.00     0.034 A 
ENDBRANCH  33  34
ENDBRANCH  32  33
ENDBRANCH  31  32
ENDBRANCH  30  31
ENDBRANCH  27  30
ENDBRANCH  23  24
ENDBRANCH   1  23
TORSDOF 13
ENDMDL
MODEL 9
REMARK VINA RESULT:      -6.7     11.309     14.386
REMARK  13 active torsions:
REMARK  status: ('A' for Active; 'I' for Inactive)
REMARK    1  A    between atoms: C_3  and  O_26 
REMARK    2  A    between atoms: C_6  and  C_7 
REMARK    3  A    between atoms: C_7  and  C_8 
REMARK    4  A    between atoms: C_15  and  C_10 
REMARK    5  A    between atoms: C_16  and  O_25 
REMARK    6  A    between atoms: C_17  and  O_24 
REMARK    7  A    between atoms: C_18  and  O_23 
REMARK    8  A    between atoms: C_19  and  C_21 
REMARK    9  A    between atoms: C_21  and  O_22 
REMARK   10  A    between atoms: O_26  and  C_27 
REMARK   11  A    between atoms: C_27  and  C_28 
REMARK   12  A    between atoms: C_28  and  O_29 
REMARK   13  A    between atoms: O_29  and  C_30 
ROOT
HETATM    1  C   UNK N   1      25.867  18.270   4.479  0.00  0.00    -0.032 A 
HETATM    2  C   UNK N   1      24.519  18.270   4.104  0.00  0.00     0.019 A 
HETATM    3  C   UNK N   1      23.912  19.367   3.504  0.00  0.00    -0.026 A 
HETATM    4  C   UNK N   1      24.676  20.518   3.273  0.00  0.00     0.011 A 
HETATM    5  C   UNK N   1      26.035  20.539   3.627  0.00  0.00     0.025 A 
HETATM    6  C   UNK N   1      26.634  19.421   4.228  0.00  0.00     0.040 A 
HETATM    7 Cl   UNK N   1      28.335  19.494   4.663  0.00  0.00    -0.084 Cl
ENDROOT
BRANCH   3   8
HETATM    8  C   UNK N   1      22.441  19.317   3.166  0.00  0.00     0.186 C 
HETATM    9  C   UNK N   1      21.914  20.496   2.300  0.00  0.00     0.182 C 
HETATM   10  C   UNK N   1      20.388  20.446   2.208  0.00  0.00     0.181 C 
HETATM   11  C   UNK N   1      19.889  19.032   2.462  0.00  0.00     0.180 C 
HETATM   12  C   UNK N   1      20.374  18.582   3.869  0.00  0.00     0.177 C 
HETATM   13  O   UNK N   1      21.614  19.151   4.292  0.00  0.00    -0.368 OA
BRANCH   9  14
HETATM   14  O   UNK N   1      22.263  21.732   2.850  0.00  0.00    -0.390 OA
HETATM   15  H   UNK N   1      23.018  22.337   2.919  0.00  0.00     0.210 HD
ENDBRANCH   9  14
BRANCH  10  16
HETATM   16  O   UNK N   1      19.975  20.919   0.962  0.00  0.00    -0.390 OA
HETATM   17  H   UNK N   1      19.099  21.232   0.686  0.00  0.00     0.210 HD
ENDBRANCH  10  16
BRANCH  11  18
HETATM   18  O   UNK N   1      18.495  18.982   2.391  0.00  0.00    -0.390 OA
HETATM   19  H   UNK N   1      18.017  19.503   1.727  0.00  0.00     0.210 HD
ENDBRANCH  11  18
BRANCH  12  20
HETATM   20  C   UNK N   1      20.395  17.064   4.002  0.00  0.00     0.198 C 
BRANCH  20  21
HETATM   21  O   UNK N   1      20.343  16.464   2.744  0.00  0.00    -0.398 OA
HETATM   22  H   UNK N   1      20.644  16.944   1.956  0.00  0.00     0.209 HD
ENDBRANCH  20  21
ENDBRANCH  12  20
ENDBRANCH   3   8
BRANCH   1  23
HETATM   23  C   UNK N   1      26.458  17.037   5.139  0.00  0.00     0.078 C 
BRANCH  23  24
HETATM   24  C   UNK N   1      26.383  15.843   4.229  0.00  0.00    -0.054 A 
HETATM   25  C   UNK N   1      25.559  14.760   4.566  0.00  0.00     0.010 A 
HETATM   26  C   UNK N   1      25.334  13.735   3.643  0.00  0.00     0.037 A 
HETATM   27  C   UNK N   1      25.911  13.792   2.371  0.00  0.00     0.068 A 
HETATM   28  C   UNK N   1      26.754  14.869   2.043  0.00  0.00     0.037 A 
HETATM   29  C   UNK N   1      26.984  15.892   2.968  0.00  0.00     0.010 A 
BRANCH  27  30
HETATM   30  O   UNK N   1      25.612  12.822   1.474  0.00  0.00    -0.349 OA
BRANCH  30  31
HETATM   31  C   UNK N   1      24.326  12.546   1.063  0.00  0.00     0.201 C 
BRANCH  31  32
HETATM   32  C   UNK N   1      23.802  13.660   0.180  0.00  0.00     0.195 C 
BRANCH  32  33
HETATM   33  O   UNK N   1      22.553  14.090   0.637  0.00  0.00    -0.384 OA
BRANCH  33  34
HETATM   34  C   UNK N   1      21.818  12.922   0.859  0.00  0.00     0.121 A 
HETATM   35  C   UNK N   1      20.354  13.203   0.582  0.00  0.00     0.034 A 
HETATM   36  C   UNK N   1      20.843  13.132   2.008  0.00  0.00     0.034 A 
ENDBRANCH  33  34
ENDBRANCH  32  33
ENDBRANCH  31  32
ENDBRANCH  30  31
ENDBRANCH  27  30
ENDBRANCH  23  24
ENDBRANCH   1  23
TORSDOF 13
ENDMDL
