MODEL 1
REMARK VINA RESULT:      -8.1      0.000      0.000
REMARK  11 active torsions:
REMARK  status: ('A' for Active; 'I' for Inactive)
REMARK    1  A    between atoms: C_2  and  N_5 
REMARK       I    between atoms: N_5  and  C_6 
REMARK    2  A    between atoms: C_6  and  C_8 
REMARK    3  A    between atoms: C_11  and  O_28 
REMARK    4  A    between atoms: C_12  and  N_14 
REMARK    5  A    between atoms: N_14  and  S_15 
REMARK    6  A    between atoms: S_15  and  C_18 
REMARK    7  A    between atoms: C_21  and  C_25 
REMARK    8  A    between atoms: O_28  and  C_29 
REMARK    9  A    between atoms: C_32  and  C_36 
REMARK   10  A    between atoms: C_36  and  C_37 
REMARK   11  A    between atoms: C_37  and  O_39 
ROOT
HETATM    1  C   UNK N   1      27.822  14.479   3.260  0.00  0.00     0.034 A 
HETATM    2  C   UNK N   1      28.350  14.014   4.471  0.00  0.00     0.020 A 
HETATM    3  C   UNK N   1      28.773  14.905   5.445  0.00  0.00     0.040 A 
HETATM    4  C   UNK N   1      28.652  16.294   5.256  0.00  0.00     0.103 A 
HETATM    5  C   UNK N   1      28.236  16.766   4.020  0.00  0.00     0.077 A 
HETATM    6  C   UNK N   1      27.821  15.863   3.026  0.00  0.00     0.050 A 
ENDROOT
BRANCH   5   7
HETATM    7  N   UNK N   1      28.227  18.144   3.765  0.00  0.00    -0.278 N 
HETATM    8  H   UNK N   1      28.878  18.513   3.126  0.00  0.00     0.179 HD
BRANCH   7   9
HETATM    9  S   UNK N   1      27.101  19.234   4.540  0.00  0.00     0.265 S 
HETATM   10  O   UNK N   1      27.761  20.250   5.486  0.00  0.00    -0.200 OA
HETATM   11  O   UNK N   1      27.354  20.196   3.373  0.00  0.00    -0.200 OA
BRANCH   9  12
HETATM   12  C   UNK N   1      25.420  19.101   3.983  0.00  0.00     0.101 A 
HETATM   13  C   UNK N   1      24.990  20.133   3.153  0.00  0.00     0.027 A 
HETATM   14  C   UNK N   1      23.643  20.315   2.896  0.00  0.00     0.009 A 
HETATM   15  C   UNK N   1      22.703  19.479   3.497  0.00  0.00    -0.052 A 
HETATM   16  C   UNK N   1      23.129  18.380   4.262  0.00  0.00     0.033 A 
HETATM   17  C   UNK N   1      24.492  18.173   4.499  0.00  0.00     0.057 A 
HETATM   18 Cl   UNK N   1      24.978  16.845   5.545  0.00  0.00    -0.083 Cl
BRANCH  15  19
HETATM   19  C   UNK N   1      21.255  19.830   3.405  0.00  0.00     0.018 A 
HETATM   20  C   UNK N   1      20.611  19.053   2.257  0.00  0.00     0.010 A 
HETATM   21  C   UNK N   1      20.994  20.497   2.057  0.00  0.00     0.010 A 
ENDBRANCH  15  19
ENDBRANCH   9  12
ENDBRANCH   7   9
ENDBRANCH   5   7
BRANCH   4  22
HETATM   22  O   UNK N   1      28.942  17.175   6.256  0.00  0.00    -0.307 OA
BRANCH  22  23
HETATM   23  C   UNK N   1      30.212  17.376   6.675  0.00  0.00     0.100 C 
HETATM   24  C   UNK N   1      31.214  17.473   5.711  0.00  0.00     0.081 C 
HETATM   25  C   UNK N   1      32.551  17.412   6.089  0.00  0.00     0.126 C 
HETATM   26  C   UNK N   1      32.876  17.215   7.435  0.00  0.00    -0.008 C 
HETATM   27  F   UNK N   1      33.513  17.400   5.134  0.00  0.00    -0.205 F 
HETATM   28  C   UNK N   1      31.886  17.250   8.416  0.00  0.00     0.037 C 
HETATM   29  C   UNK N   1      30.554  17.372   8.054  0.00  0.00     0.068 C 
HETATM   30 Cl   UNK N   1      29.354  17.413   9.349  0.00  0.00    -0.081 Cl
BRANCH  26  31
HETATM   31  C   UNK N   1      34.235  16.750   7.800  0.00  0.00     0.151 C 
BRANCH  31  32
HETATM   32  C   UNK N   1      34.791  17.815   8.715  0.00  0.00     0.143 C 
HETATM   33  O   UNK N   1      35.260  17.511   9.798  0.00  0.00    -0.650 OA
BRANCH  32  34
HETATM   34  O   UNK N   1      34.845  19.101   8.303  0.00  0.00    -0.776 OA
HETATM   35  H   UNK N   1      34.549  19.986   8.226  0.00  0.00     0.167 HD
ENDBRANCH  32  34
ENDBRANCH  31  32
ENDBRANCH  26  31
ENDBRANCH  22  23
ENDBRANCH   4  22
BRANCH   1  36
HETATM   36  C   UNK N   1      27.220  13.452   2.343  0.00  0.00     0.252 C 
HETATM   37  N   UNK N   1      25.901  13.082   2.327  0.00  0.00    -0.349 N 
HETATM   38  H   UNK N   1      25.684  12.363   1.691  0.00  0.00     0.163 HD
HETATM   39  O   UNK N   1      27.969  12.873   1.579  0.00  0.00    -0.268 OA
BRANCH  37  40
HETATM   40  C   UNK N   1      24.773  13.572   3.088  0.00  0.00     0.022 C 
HETATM   41  C   UNK N   1      24.407  14.982   2.660  0.00  0.00     0.037 C 
HETATM   42  C   UNK N   1      23.590  12.679   2.784  0.00  0.00     0.037 C 
HETATM   43  C   UNK N   1      25.019  13.482   4.581  0.00  0.00     0.037 C 
ENDBRANCH  37  40
ENDBRANCH   1  36
TORSDOF 11
ENDMDL
MODEL 2
REMARK VINA RESULT:      -7.9      4.019      9.037
REMARK  11 active torsions:
REMARK  status: ('A' for Active; 'I' for Inactive)
REMARK    1  A    between atoms: C_2  and  N_5 
REMARK       I    between atoms: N_5  and  C_6 
REMARK    2  A    between atoms: C_6  and  C_8 
REMARK    3  A    between atoms: C_11  and  O_28 
REMARK    4  A    between atoms: C_12  and  N_14 
REMARK    5  A    between atoms: N_14  and  S_15 
REMARK    6  A    between atoms: S_15  and  C_18 
REMARK    7  A    between atoms: C_21  and  C_25 
REMARK    8  A    between atoms: O_28  and  C_29 
REMARK    9  A    between atoms: C_32  and  C_36 
REMARK   10  A    between atoms: C_36  and  C_37 
REMARK   11  A    between atoms: C_37  and  O_39 
ROOT
HETATM    1  C   UNK N   1      28.009  17.562   7.200  0.00  0.00     0.034 A 
HETATM    2  C   UNK N   1      27.781  18.811   6.610  0.00  0.00     0.020 A 
HETATM    3  C   UNK N   1      27.072  18.913   5.424  0.00  0.00     0.040 A 
HETATM    4  C   UNK N   1      26.535  17.771   4.802  0.00  0.00     0.103 A 
HETATM    5  C   UNK N   1      26.849  16.521   5.316  0.00  0.00     0.077 A 
HETATM    6  C   UNK N   1      27.582  16.417   6.511  0.00  0.00     0.050 A 
ENDROOT
BRANCH   5   7
HETATM    7  N   UNK N   1      26.431  15.364   4.644  0.00  0.00    -0.278 N 
HETATM    8  H   UNK N   1      27.095  14.846   4.134  0.00  0.00     0.179 HD
BRANCH   7   9
HETATM    9  S   UNK N   1      24.775  14.806   4.677  0.00  0.00     0.265 S 
HETATM   10  O   UNK N   1      24.115  14.717   3.292  0.00  0.00    -0.200 OA
HETATM   11  O   UNK N   1      25.333  13.392   4.473  0.00  0.00    -0.200 OA
BRANCH   9  12
HETATM   12  C   UNK N   1      24.190  14.278   6.269  0.00  0.00     0.101 A 
HETATM   13  C   UNK N   1      25.154  13.698   7.089  0.00  0.00     0.027 A 
HETATM   14  C   UNK N   1      24.784  12.982   8.213  0.00  0.00     0.009 A 
HETATM   15  C   UNK N   1      23.433  12.809   8.512  0.00  0.00    -0.052 A 
HETATM   16  C   UNK N   1      22.456  13.465   7.743  0.00  0.00     0.033 A 
HETATM   17  C   UNK N   1      22.827  14.217   6.624  0.00  0.00     0.057 A 
HETATM   18 Cl   UNK N   1      21.567  14.939   5.632  0.00  0.00    -0.083 Cl
BRANCH  15  19
HETATM   19  C   UNK N   1      23.043  11.842   9.580  0.00  0.00     0.018 A 
HETATM   20  C   UNK N   1      22.546  12.607  10.806  0.00  0.00     0.010 A 
HETATM   21  C   UNK N   1      23.948  12.055  10.791  0.00  0.00     0.010 A 
ENDBRANCH  15  19
ENDBRANCH   9  12
ENDBRANCH   7   9
ENDBRANCH   5   7
BRANCH   4  22
HETATM   22  O   UNK N   1      25.726  17.870   3.708  0.00  0.00    -0.307 OA
BRANCH  22  23
HETATM   23  C   UNK N   1      24.625  18.655   3.712  0.00  0.00     0.100 C 
HETATM   24  C   UNK N   1      23.430  18.106   4.173  0.00  0.00     0.081 C 
HETATM   25  C   UNK N   1      22.228  18.772   3.953  0.00  0.00     0.126 C 
HETATM   26  C   UNK N   1      22.229  19.973   3.235  0.00  0.00    -0.008 C 
HETATM   27  F   UNK N   1      21.063  18.178   4.309  0.00  0.00    -0.205 F 
HETATM   28  C   UNK N   1      23.430  20.590   2.889  0.00  0.00     0.037 C 
HETATM   29  C   UNK N   1      24.637  19.963   3.158  0.00  0.00     0.068 C 
HETATM   30 Cl   UNK N   1      26.119  20.806   2.696  0.00  0.00    -0.081 Cl
BRANCH  26  31
HETATM   31  C   UNK N   1      20.965  20.477   2.649  0.00  0.00     0.151 C 
BRANCH  31  32
HETATM   32  C   UNK N   1      20.990  20.039   1.204  0.00  0.00     0.143 C 
HETATM   33  O   UNK N   1      20.674  18.902   0.901  0.00  0.00    -0.650 OA
BRANCH  32  34
HETATM   34  O   UNK N   1      21.286  20.930   0.232  0.00  0.00    -0.776 OA
HETATM   35  H   UNK N   1      21.533  21.764  -0.116  0.00  0.00     0.167 HD
ENDBRANCH  32  34
ENDBRANCH  31  32
ENDBRANCH  26  31
ENDBRANCH  22  23
ENDBRANCH   4  22
BRANCH   1  36
HETATM   36  C   UNK N   1      28.623  17.561   8.571  0.00  0.00     0.252 C 
HETATM   37  N   UNK N   1      29.940  17.303   8.847  0.00  0.00    -0.349 N 
HETATM   38  H   UNK N   1      30.166  17.302   9.805  0.00  0.00     0.163 HD
HETATM   39  O   UNK N   1      27.887  17.767   9.518  0.00  0.00    -0.268 OA
BRANCH  37  40
HETATM   40  C   UNK N   1      31.055  17.034   7.967  0.00  0.00     0.022 C 
HETATM   41  C   UNK N   1      30.726  17.442   6.542  0.00  0.00     0.037 C 
HETATM   42  C   UNK N   1      32.221  17.880   8.429  0.00  0.00     0.037 C 
HETATM   43  C   UNK N   1      31.502  15.588   8.050  0.00  0.00     0.037 C 
ENDBRANCH  37  40
ENDBRANCH   1  36
TORSDOF 11
ENDMDL
MODEL 3
REMARK VINA RESULT:      -7.8      3.169      8.858
REMARK  11 active torsions:
REMARK  status: ('A' for Active; 'I' for Inactive)
REMARK    1  A    between atoms: C_2  and  N_5 
REMARK       I    between atoms: N_5  and  C_6 
REMARK    2  A    between atoms: C_6  and  C_8 
REMARK    3  A    between atoms: C_11  and  O_28 
REMARK    4  A    between atoms: C_12  and  N_14 
REMARK    5  A    between atoms: N_14  and  S_15 
REMARK    6  A    between atoms: S_15  and  C_18 
REMARK    7  A    between atoms: C_21  and  C_25 
REMARK    8  A    between atoms: O_28  and  C_29 
REMARK    9  A    between atoms: C_32  and  C_36 
REMARK   10  A    between atoms: C_36  and  C_37 
REMARK   11  A    between atoms: C_37  and  O_39 
ROOT
HETATM    1  C   UNK N   1      27.209  15.082   3.173  0.00  0.00     0.034 A 
HETATM    2  C   UNK N   1      26.191  15.760   2.492  0.00  0.00     0.020 A 
HETATM    3  C   UNK N   1      25.529  16.822   3.088  0.00  0.00     0.040 A 
HETATM    4  C   UNK N   1      25.885  17.266   4.375  0.00  0.00     0.103 A 
HETATM    5  C   UNK N   1      26.813  16.533   5.101  0.00  0.00     0.077 A 
HETATM    6  C   UNK N   1      27.473  15.446   4.502  0.00  0.00     0.050 A 
ENDROOT
BRANCH   5   7
HETATM    7  N   UNK N   1      27.092  16.880   6.430  0.00  0.00    -0.278 N 
HETATM    8  H   UNK N   1      26.614  16.414   7.153  0.00  0.00     0.179 HD
BRANCH   7   9
HETATM    9  S   UNK N   1      28.259  18.110   6.852  0.00  0.00     0.265 S 
HETATM   10  O   UNK N   1      27.639  19.477   7.184  0.00  0.00    -0.200 OA
HETATM   11  O   UNK N   1      28.052  17.691   8.313  0.00  0.00    -0.200 OA
BRANCH   9  12
HETATM   12  C   UNK N   1      29.936  17.542   6.992  0.00  0.00     0.101 A 
HETATM   13  C   UNK N   1      30.457  17.550   8.284  0.00  0.00     0.027 A 
HETATM   14  C   UNK N   1      31.817  17.424   8.495  0.00  0.00     0.009 A 
HETATM   15  C   UNK N   1      32.682  17.319   7.407  0.00  0.00    -0.052 A 
HETATM   16  C   UNK N   1      32.162  17.218   6.105  0.00  0.00     0.033 A 
HETATM   17  C   UNK N   1      30.783  17.313   5.888  0.00  0.00     0.057 A 
HETATM   18 Cl   UNK N   1      30.181  17.282   4.236  0.00  0.00    -0.083 Cl
BRANCH  15  19
HETATM   19  C   UNK N   1      34.154  17.425   7.635  0.00  0.00     0.018 A 
HETATM   20  C   UNK N   1      34.707  16.061   8.047  0.00  0.00     0.010 A 
HETATM   21  C   UNK N   1      34.449  17.109   9.099  0.00  0.00     0.010 A 
ENDBRANCH  15  19
ENDBRANCH   9  12
ENDBRANCH   7   9
ENDBRANCH   5   7
BRANCH   4  22
HETATM   22  O   UNK N   1      25.332  18.388   4.919  0.00  0.00    -0.307 OA
BRANCH  22  23
HETATM   23  C   UNK N   1      24.188  18.919   4.434  0.00  0.00     0.100 C 
HETATM   24  C   UNK N   1      22.978  18.406   4.899  0.00  0.00     0.081 C 
HETATM   25  C   UNK N   1      21.791  18.724   4.247  0.00  0.00     0.126 C 
HETATM   26  C   UNK N   1      21.830  19.529   3.103  0.00  0.00    -0.008 C 
HETATM   27  F   UNK N   1      20.636  18.135   4.641  0.00  0.00    -0.205 F 
HETATM   28  C   UNK N   1      23.015  20.150   2.713  0.00  0.00     0.037 C 
HETATM   29  C   UNK N   1      24.194  19.887   3.394  0.00  0.00     0.068 C 
HETATM   30 Cl   UNK N   1      25.657  20.712   2.848  0.00  0.00    -0.081 Cl
BRANCH  26  31
HETATM   31  C   UNK N   1      20.670  19.548   2.180  0.00  0.00     0.151 C 
BRANCH  31  32
HETATM   32  C   UNK N   1      20.918  20.709   1.248  0.00  0.00     0.143 C 
HETATM   33  O   UNK N   1      21.137  20.511   0.065  0.00  0.00    -0.650 OA
BRANCH  32  34
HETATM   34  O   UNK N   1      20.818  21.977   1.704  0.00  0.00    -0.776 OA
HETATM   35  H   UNK N   1      20.414  22.694   2.152  0.00  0.00     0.167 HD
ENDBRANCH  32  34
ENDBRANCH  31  32
ENDBRANCH  26  31
ENDBRANCH  22  23
ENDBRANCH   4  22
BRANCH   1  36
HETATM   36  C   UNK N   1      27.994  14.070   2.387  0.00  0.00     0.252 C 
HETATM   37  N   UNK N   1      27.597  12.782   2.138  0.00  0.00    -0.349 N 
HETATM   38  H   UNK N   1      28.251  12.240   1.642  0.00  0.00     0.163 HD
HETATM   39  O   UNK N   1      29.085  14.405   1.968  0.00  0.00    -0.268 OA
BRANCH  37  40
HETATM   40  C   UNK N   1      26.377  12.086   2.482  0.00  0.00     0.022 C 
HETATM   41  C   UNK N   1      25.216  12.588   1.643  0.00  0.00     0.037 C 
HETATM   42  C   UNK N   1      26.576  10.621   2.160  0.00  0.00     0.037 C 
HETATM   43  C   UNK N   1      26.078  12.172   3.966  0.00  0.00     0.037 C 
ENDBRANCH  37  40
ENDBRANCH   1  36
TORSDOF 11
ENDMDL
MODEL 4
REMARK VINA RESULT:      -7.8      3.173      5.700
REMARK  11 active torsions:
REMARK  status: ('A' for Active; 'I' for Inactive)
REMARK    1  A    between atoms: C_2  and  N_5 
REMARK       I    between atoms: N_5  and  C_6 
REMARK    2  A    between atoms: C_6  and  C_8 
REMARK    3  A    between atoms: C_11  and  O_28 
REMARK    4  A    between atoms: C_12  and  N_14 
REMARK    5  A    between atoms: N_14  and  S_15 
REMARK    6  A    between atoms: S_15  and  C_18 
REMARK    7  A    between atoms: C_21  and  C_25 
REMARK    8  A    between atoms: O_28  and  C_29 
REMARK    9  A    between atoms: C_32  and  C_36 
REMARK   10  A    between atoms: C_36  and  C_37 
REMARK   11  A    between atoms: C_37  and  O_39 
ROOT
HETATM    1  C   UNK N   1      25.864  18.732   4.739  0.00  0.00     0.034 A 
HETATM    2  C   UNK N   1      26.664  19.520   5.576  0.00  0.00     0.020 A 
HETATM    3  C   UNK N   1      27.529  18.931   6.484  0.00  0.00     0.040 A 
HETATM    4  C   UNK N   1      27.651  17.532   6.565  0.00  0.00     0.103 A 
HETATM    5  C   UNK N   1      26.785  16.742   5.823  0.00  0.00     0.077 A 
HETATM    6  C   UNK N   1      25.896  17.340   4.912  0.00  0.00     0.050 A 
ENDROOT
BRANCH   5   7
HETATM    7  N   UNK N   1      26.800  15.350   5.979  0.00  0.00    -0.278 N 
HETATM    8  H   UNK N   1      27.622  14.918   6.307  0.00  0.00     0.179 HD
BRANCH   7   9
HETATM    9  S   UNK N   1      25.415  14.349   5.613  0.00  0.00     0.265 S 
HETATM   10  O   UNK N   1      25.307  13.942   4.135  0.00  0.00    -0.200 OA
HETATM   11  O   UNK N   1      26.327  13.140   5.853  0.00  0.00    -0.200 OA
BRANCH   9  12
HETATM   12  C   UNK N   1      24.465  13.834   7.023  0.00  0.00     0.101 A 
HETATM   13  C   UNK N   1      25.198  13.644   8.191  0.00  0.00     0.027 A 
HETATM   14  C   UNK N   1      24.650  12.965   9.264  0.00  0.00     0.009 A 
HETATM   15  C   UNK N   1      23.363  12.437   9.167  0.00  0.00    -0.052 A 
HETATM   16  C   UNK N   1      22.581  12.701   8.029  0.00  0.00     0.033 A 
HETATM   17  C   UNK N   1      23.121  13.414   6.954  0.00  0.00     0.057 A 
HETATM   18 Cl   UNK N   1      22.143  13.636   5.508  0.00  0.00    -0.083 Cl
BRANCH  15  19
HETATM   19  C   UNK N   1      22.876  11.509  10.230  0.00  0.00     0.018 A 
HETATM   20  C   UNK N   1      21.982  12.273  11.206  0.00  0.00     0.010 A 
HETATM   21  C   UNK N   1      23.412  11.981  11.579  0.00  0.00     0.010 A 
ENDBRANCH  15  19
ENDBRANCH   9  12
ENDBRANCH   7   9
ENDBRANCH   5   7
BRANCH   4  22
HETATM   22  O   UNK N   1      28.591  16.944   7.360  0.00  0.00    -0.307 OA
BRANCH  22  23
HETATM   23  C   UNK N   1      29.895  17.291   7.287  0.00  0.00     0.100 C 
HETATM   24  C   UNK N   1      30.588  16.995   6.115  0.00  0.00     0.081 C 
HETATM   25  C   UNK N   1      31.976  17.085   6.086  0.00  0.00     0.126 C 
HETATM   26  C   UNK N   1      32.666  17.438   7.250  0.00  0.00    -0.008 C 
HETATM   27  F   UNK N   1      32.646  16.692   4.975  0.00  0.00    -0.205 F 
HETATM   28  C   UNK N   1      31.974  17.862   8.383  0.00  0.00     0.037 C 
HETATM   29  C   UNK N   1      30.589  17.834   8.402  0.00  0.00     0.068 C 
HETATM   30 Cl   UNK N   1      29.778  18.390   9.869  0.00  0.00    -0.081 Cl
BRANCH  26  31
HETATM   31  C   UNK N   1      34.117  17.153   7.357  0.00  0.00     0.151 C 
BRANCH  31  32
HETATM   32  C   UNK N   1      34.601  17.971   8.530  0.00  0.00     0.143 C 
HETATM   33  O   UNK N   1      34.767  17.447   9.618  0.00  0.00    -0.650 OA
BRANCH  32  34
HETATM   34  O   UNK N   1      34.930  19.270   8.359  0.00  0.00    -0.776 OA
HETATM   35  H   UNK N   1      35.449  20.042   8.473  0.00  0.00     0.167 HD
ENDBRANCH  32  34
ENDBRANCH  31  32
ENDBRANCH  26  31
ENDBRANCH  22  23
ENDBRANCH   4  22
BRANCH   1  36
HETATM   36  C   UNK N   1      25.096  19.447   3.663  0.00  0.00     0.252 C 
HETATM   37  N   UNK N   1      23.756  19.299   3.417  0.00  0.00    -0.349 N 
HETATM   38  H   UNK N   1      23.422  19.812   2.646  0.00  0.00     0.163 HD
HETATM   39  O   UNK N   1      25.718  20.189   2.927  0.00  0.00    -0.268 OA
BRANCH  37  40
HETATM   40  C   UNK N   1      22.751  18.516   4.100  0.00  0.00     0.022 C 
HETATM   41  C   UNK N   1      21.356  18.973   3.710  0.00  0.00     0.037 C 
HETATM   42  C   UNK N   1      22.905  17.078   3.653  0.00  0.00     0.037 C 
HETATM   43  C   UNK N   1      22.949  18.532   5.603  0.00  0.00     0.037 C 
ENDBRANCH  37  40
ENDBRANCH   1  36
TORSDOF 11
ENDMDL
MODEL 5
REMARK VINA RESULT:      -7.7      3.297      8.757
REMARK  11 active torsions:
REMARK  status: ('A' for Active; 'I' for Inactive)
REMARK    1  A    between atoms: C_2  and  N_5 
REMARK       I    between atoms: N_5  and  C_6 
REMARK    2  A    between atoms: C_6  and  C_8 
REMARK    3  A    between atoms: C_11  and  O_28 
REMARK    4  A    between atoms: C_12  and  N_14 
REMARK    5  A    between atoms: N_14  and  S_15 
REMARK    6  A    between atoms: S_15  and  C_18 
REMARK    7  A    between atoms: C_21  and  C_25 
REMARK    8  A    between atoms: O_28  and  C_29 
REMARK    9  A    between atoms: C_32  and  C_36 
REMARK   10  A    between atoms: C_36  and  C_37 
REMARK   11  A    between atoms: C_37  and  O_39 
ROOT
HETATM    1  C   UNK N   1      26.644  14.246   4.396  0.00  0.00     0.034 A 
HETATM    2  C   UNK N   1      25.861  14.921   3.452  0.00  0.00     0.020 A 
HETATM    3  C   UNK N   1      25.437  16.220   3.685  0.00  0.00     0.040 A 
HETATM    4  C   UNK N   1      25.809  16.903   4.857  0.00  0.00     0.103 A 
HETATM    5  C   UNK N   1      26.489  16.208   5.847  0.00  0.00     0.077 A 
HETATM    6  C   UNK N   1      26.906  14.886   5.617  0.00  0.00     0.050 A 
ENDROOT
BRANCH   5   7
HETATM    7  N   UNK N   1      26.762  16.828   7.074  0.00  0.00    -0.278 N 
HETATM    8  H   UNK N   1      26.159  16.662   7.834  0.00  0.00     0.179 HD
BRANCH   7   9
HETATM    9  S   UNK N   1      28.133  17.886   7.306  0.00  0.00     0.265 S 
HETATM   10  O   UNK N   1      27.854  19.085   8.227  0.00  0.00    -0.200 OA
HETATM   11  O   UNK N   1      28.469  17.046   8.544  0.00  0.00    -0.200 OA
BRANCH   9  12
HETATM   12  C   UNK N   1      29.654  17.317   6.585  0.00  0.00     0.101 A 
HETATM   13  C   UNK N   1      30.582  16.808   7.490  0.00  0.00     0.027 A 
HETATM   14  C   UNK N   1      31.898  16.614   7.114  0.00  0.00     0.009 A 
HETATM   15  C   UNK N   1      32.311  16.960   5.828  0.00  0.00    -0.052 A 
HETATM   16  C   UNK N   1      31.365  17.388   4.879  0.00  0.00     0.033 A 
HETATM   17  C   UNK N   1      30.027  17.556   5.246  0.00  0.00     0.057 A 
HETATM   18 Cl   UNK N   1      28.895  18.189   4.057  0.00  0.00    -0.083 Cl
BRANCH  15  19
HETATM   19  C   UNK N   1      33.770  16.972   5.511  0.00  0.00     0.018 A 
HETATM   20  C   UNK N   1      34.190  15.601   4.982  0.00  0.00     0.010 A 
HETATM   21  C   UNK N   1      34.478  15.967   6.415  0.00  0.00     0.010 A 
ENDBRANCH  15  19
ENDBRANCH   9  12
ENDBRANCH   7   9
ENDBRANCH   5   7
BRANCH   4  22
HETATM   22  O   UNK N   1      25.509  18.221   5.038  0.00  0.00    -0.307 OA
BRANCH  22  23
HETATM   23  C   UNK N   1      24.363  18.757   4.561  0.00  0.00     0.100 C 
HETATM   24  C   UNK N   1      23.155  18.255   5.041  0.00  0.00     0.081 C 
HETATM   25  C   UNK N   1      21.964  18.578   4.398  0.00  0.00     0.126 C 
HETATM   26  C   UNK N   1      21.997  19.377   3.250  0.00  0.00    -0.008 C 
HETATM   27  F   UNK N   1      20.809  17.998   4.807  0.00  0.00    -0.205 F 
HETATM   28  C   UNK N   1      23.183  19.988   2.846  0.00  0.00     0.037 C 
HETATM   29  C   UNK N   1      24.366  19.720   3.516  0.00  0.00     0.068 C 
HETATM   30 Cl   UNK N   1      25.829  20.533   2.952  0.00  0.00    -0.081 Cl
BRANCH  26  31
HETATM   31  C   UNK N   1      20.828  19.399   2.339  0.00  0.00     0.151 C 
BRANCH  31  32
HETATM   32  C   UNK N   1      21.032  20.605   1.454  0.00  0.00     0.143 C 
HETATM   33  O   UNK N   1      21.129  20.471   0.246  0.00  0.00    -0.650 OA
BRANCH  32  34
HETATM   34  O   UNK N   1      21.028  21.845   1.989  0.00  0.00    -0.776 OA
HETATM   35  H   UNK N   1      21.098  22.780   1.980  0.00  0.00     0.167 HD
ENDBRANCH  32  34
ENDBRANCH  31  32
ENDBRANCH  26  31
ENDBRANCH  22  23
ENDBRANCH   4  22
BRANCH   1  36
HETATM   36  C   UNK N   1      27.210  12.917   3.983  0.00  0.00     0.252 C 
HETATM   37  N   UNK N   1      28.494  12.704   3.551  0.00  0.00    -0.349 N 
HETATM   38  H   UNK N   1      28.687  11.778   3.279  0.00  0.00     0.163 HD
HETATM   39  O   UNK N   1      26.463  11.958   3.996  0.00  0.00    -0.268 OA
BRANCH  37  40
HETATM   40  C   UNK N   1      29.612  13.612   3.427  0.00  0.00     0.022 C 
HETATM   41  C   UNK N   1      29.190  14.894   2.732  0.00  0.00     0.037 C 
HETATM   42  C   UNK N   1      30.066  13.976   4.824  0.00  0.00     0.037 C 
HETATM   43  C   UNK N   1      30.794  12.960   2.738  0.00  0.00     0.037 C 
ENDBRANCH  37  40
ENDBRANCH   1  36
TORSDOF 11
ENDMDL
MODEL 6
REMARK VINA RESULT:      -7.7      5.563      8.717
REMARK  11 active torsions:
REMARK  status: ('A' for Active; 'I' for Inactive)
REMARK    1  A    between atoms: C_2  and  N_5 
REMARK       I    between atoms: N_5  and  C_6 
REMARK    2  A    between atoms: C_6  and  C_8 
REMARK    3  A    between atoms: C_11  and  O_28 
REMARK    4  A    between atoms: C_12  and  N_14 
REMARK    5  A    between atoms: N_14  and  S_15 
REMARK    6  A    between atoms: S_15  and  C_18 
REMARK    7  A    between atoms: C_21  and  C_25 
REMARK    8  A    between atoms: O_28  and  C_29 
REMARK    9  A    between atoms: C_32  and  C_36 
REMARK   10  A    between atoms: C_36  and  C_37 
REMARK   11  A    between atoms: C_37  and  O_39 
ROOT
HETATM    1  C   UNK N   1      19.449  13.944   3.873  0.00  0.00     0.034 A 
HETATM    2  C   UNK N   1      20.292  14.630   2.990  0.00  0.00     0.020 A 
HETATM    3  C   UNK N   1      20.840  15.853   3.344  0.00  0.00     0.040 A 
HETATM    4  C   UNK N   1      20.592  16.419   4.607  0.00  0.00     0.103 A 
HETATM    5  C   UNK N   1      19.672  15.805   5.445  0.00  0.00     0.077 A 
HETATM    6  C   UNK N   1      19.104  14.572   5.080  0.00  0.00     0.050 A 
ENDROOT
BRANCH   5   7
HETATM    7  N   UNK N   1      19.314  16.414   6.655  0.00  0.00    -0.278 N 
HETATM    8  H   UNK N   1      18.452  16.885   6.712  0.00  0.00     0.179 HD
BRANCH   7   9
HETATM    9  S   UNK N   1      20.340  16.367   8.069  0.00  0.00     0.265 S 
HETATM   10  O   UNK N   1      20.429  17.702   8.826  0.00  0.00    -0.200 OA
HETATM   11  O   UNK N   1      19.080  16.024   8.873  0.00  0.00    -0.200 OA
BRANCH   9  12
HETATM   12  C   UNK N   1      20.969  14.760   8.490  0.00  0.00     0.101 A 
HETATM   13  C   UNK N   1      20.303  14.120   9.531  0.00  0.00     0.027 A 
HETATM   14  C   UNK N   1      20.862  13.018  10.153  0.00  0.00     0.009 A 
HETATM   15  C   UNK N   1      22.119  12.562   9.758  0.00  0.00    -0.052 A 
HETATM   16  C   UNK N   1      22.759  13.143   8.650  0.00  0.00     0.033 A 
HETATM   17  C   UNK N   1      22.183  14.237   7.997  0.00  0.00     0.057 A 
HETATM   18 Cl   UNK N   1      23.063  14.998   6.678  0.00  0.00    -0.083 Cl
BRANCH  15  19
HETATM   19  C   UNK N   1      22.812  11.532  10.588  0.00  0.00     0.018 A 
HETATM   20  C   UNK N   1      23.326  12.174  11.877  0.00  0.00     0.010 A 
HETATM   21  C   UNK N   1      24.279  11.926  10.737  0.00  0.00     0.010 A 
ENDBRANCH  15  19
ENDBRANCH   9  12
ENDBRANCH   7   9
ENDBRANCH   5   7
BRANCH   4  22
HETATM   22  O   UNK N   1      21.229  17.554   5.016  0.00  0.00    -0.307 OA
BRANCH  22  23
HETATM   23  C   UNK N   1      22.325  18.019   4.376  0.00  0.00     0.100 C 
HETATM   24  C   UNK N   1      23.498  17.271   4.454  0.00  0.00     0.081 C 
HETATM   25  C   UNK N   1      24.706  17.827   4.046  0.00  0.00     0.126 C 
HETATM   26  C   UNK N   1      24.735  19.151   3.593  0.00  0.00    -0.008 C 
HETATM   27  F   UNK N   1      25.855  17.130   4.226  0.00  0.00    -0.205 F 
HETATM   28  C   UNK N   1      23.550  19.856   3.389  0.00  0.00     0.037 C 
HETATM   29  C   UNK N   1      22.335  19.288   3.736  0.00  0.00     0.068 C 
HETATM   30 Cl   UNK N   1      20.874  20.237   3.445  0.00  0.00    -0.081 Cl
BRANCH  26  31
HETATM   31  C   UNK N   1      26.025  19.879   3.542  0.00  0.00     0.151 C 
BRANCH  31  32
HETATM   32  C   UNK N   1      26.274  20.353   4.954  0.00  0.00     0.143 C 
HETATM   33  O   UNK N   1      27.012  21.300   5.162  0.00  0.00    -0.650 OA
BRANCH  32  34
HETATM   34  O   UNK N   1      25.617  19.781   5.986  0.00  0.00    -0.776 OA
HETATM   35  H   UNK N   1      25.239  19.074   6.471  0.00  0.00     0.167 HD
ENDBRANCH  32  34
ENDBRANCH  31  32
ENDBRANCH  26  31
ENDBRANCH  22  23
ENDBRANCH   4  22
BRANCH   1  36
HETATM   36  C   UNK N   1      19.050  12.549   3.486  0.00  0.00     0.252 C 
HETATM   37  N   UNK N   1      19.750  11.412   3.795  0.00  0.00    -0.349 N 
HETATM   38  H   UNK N   1      19.369  10.582   3.426  0.00  0.00     0.163 HD
HETATM   39  O   UNK N   1      18.047  12.417   2.811  0.00  0.00    -0.268 OA
BRANCH  37  40
HETATM   40  C   UNK N   1      20.953  11.226   4.574  0.00  0.00     0.022 C 
HETATM   41  C   UNK N   1      20.714  11.584   6.030  0.00  0.00     0.037 C 
HETATM   42  C   UNK N   1      21.316   9.758   4.517  0.00  0.00     0.037 C 
HETATM   43  C   UNK N   1      22.126  11.991   3.991  0.00  0.00     0.037 C 
ENDBRANCH  37  40
ENDBRANCH   1  36
TORSDOF 11
ENDMDL
MODEL 7
REMARK VINA RESULT:      -7.6     11.790     14.959
REMARK  11 active torsions:
REMARK  status: ('A' for Active; 'I' for Inactive)
REMARK    1  A    between atoms: C_2  and  N_5 
REMARK       I    between atoms: N_5  and  C_6 
REMARK    2  A    between atoms: C_6  and  C_8 
REMARK    3  A    between atoms: C_11  and  O_28 
REMARK    4  A    between atoms: C_12  and  N_14 
REMARK    5  A    between atoms: N_14  and  S_15 
REMARK    6  A    between atoms: S_15  and  C_18 
REMARK    7  A    between atoms: C_21  and  C_25 
REMARK    8  A    between atoms: O_28  and  C_29 
REMARK    9  A    between atoms: C_32  and  C_36 
REMARK   10  A    between atoms: C_36  and  C_37 
REMARK   11  A    between atoms: C_37  and  O_39 
ROOT
HETATM    1  C   UNK N   1      30.246  23.388  -3.740  0.00  0.00     0.034 A 
HETATM    2  C   UNK N   1      30.570  24.735  -3.941  0.00  0.00     0.020 A 
HETATM    3  C   UNK N   1      29.896  25.489  -4.889  0.00  0.00     0.040 A 
HETATM    4  C   UNK N   1      28.850  24.932  -5.646  0.00  0.00     0.103 A 
HETATM    5  C   UNK N   1      28.596  23.572  -5.535  0.00  0.00     0.077 A 
HETATM    6  C   UNK N   1      29.290  22.804  -4.585  0.00  0.00     0.050 A 
ENDROOT
BRANCH   5   7
HETATM    7  N   UNK N   1      27.645  22.968  -6.369  0.00  0.00    -0.278 N 
HETATM    8  H   UNK N   1      26.691  23.153  -6.212  0.00  0.00     0.179 HD
BRANCH   7   9
HETATM    9  S   UNK N   1      28.089  21.898  -7.677  0.00  0.00     0.265 S 
HETATM   10  O   UNK N   1      26.978  21.683  -8.718  0.00  0.00    -0.200 OA
HETATM   11  O   UNK N   1      28.529  23.151  -8.445  0.00  0.00    -0.200 OA
BRANCH   9  12
HETATM   12  C   UNK N   1      29.787  21.377  -7.680  0.00  0.00     0.101 A 
HETATM   13  C   UNK N   1      30.719  22.403  -7.807  0.00  0.00     0.027 A 
HETATM   14  C   UNK N   1      32.036  22.123  -8.122  0.00  0.00     0.009 A 
HETATM   15  C   UNK N   1      32.430  20.804  -8.347  0.00  0.00    -0.052 A 
HETATM   16  C   UNK N   1      31.521  19.754  -8.133  0.00  0.00     0.033 A 
HETATM   17  C   UNK N   1      30.195  20.031  -7.784  0.00  0.00     0.057 A 
HETATM   18 Cl   UNK N   1      29.064  18.693  -7.623  0.00  0.00    -0.083 Cl
BRANCH  15  19
HETATM   19  C   UNK N   1      33.784  20.538  -8.917  0.00  0.00     0.018 A 
HETATM   20  C   UNK N   1      34.760  20.209  -7.787  0.00  0.00     0.010 A 
HETATM   21  C   UNK N   1      34.756  21.590  -8.389  0.00  0.00     0.010 A 
ENDBRANCH  15  19
ENDBRANCH   9  12
ENDBRANCH   7   9
ENDBRANCH   5   7
BRANCH   4  22
HETATM   22  O   UNK N   1      28.094  25.696  -6.486  0.00  0.00    -0.307 OA
BRANCH  22  23
HETATM   23  C   UNK N   1      27.465  26.811  -6.053  0.00  0.00     0.100 C 
HETATM   24  C   UNK N   1      28.017  28.047  -6.386  0.00  0.00     0.081 C 
HETATM   25  C   UNK N   1      27.570  29.202  -5.753  0.00  0.00     0.126 C 
HETATM   26  C   UNK N   1      26.592  29.105  -4.757  0.00  0.00    -0.008 C 
HETATM   27  F   UNK N   1      28.187  30.382  -6.005  0.00  0.00    -0.205 F 
HETATM   28  C   UNK N   1      25.945  27.894  -4.515  0.00  0.00     0.037 C 
HETATM   29  C   UNK N   1      26.342  26.748  -5.185  0.00  0.00     0.068 C 
HETATM   30 Cl   UNK N   1      25.475  25.250  -4.832  0.00  0.00    -0.081 Cl
BRANCH  26  31
HETATM   31  C   UNK N   1      26.397  30.227  -3.809  0.00  0.00     0.151 C 
BRANCH  31  32
HETATM   32  C   UNK N   1      27.516  30.101  -2.803  0.00  0.00     0.143 C 
HETATM   33  O   UNK N   1      27.474  29.238  -1.943  0.00  0.00    -0.650 OA
BRANCH  32  34
HETATM   34  O   UNK N   1      28.607  30.891  -2.901  0.00  0.00    -0.776 OA
HETATM   35  H   UNK N   1      29.512  31.114  -2.802  0.00  0.00     0.167 HD
ENDBRANCH  32  34
ENDBRANCH  31  32
ENDBRANCH  26  31
ENDBRANCH  22  23
ENDBRANCH   4  22
BRANCH   1  36
HETATM   36  C   UNK N   1      30.895  22.701  -2.572  0.00  0.00     0.252 C 
HETATM   37  N   UNK N   1      31.920  21.795  -2.658  0.00  0.00    -0.349 N 
HETATM   38  H   UNK N   1      32.200  21.409  -1.797  0.00  0.00     0.163 HD
HETATM   39  O   UNK N   1      30.454  22.937  -1.463  0.00  0.00    -0.268 OA
BRANCH  37  40
HETATM   40  C   UNK N   1      32.660  21.311  -3.802  0.00  0.00     0.022 C 
HETATM   41  C   UNK N   1      33.117  22.467  -4.675  0.00  0.00     0.037 C 
HETATM   42  C   UNK N   1      33.897  20.609  -3.286  0.00  0.00     0.037 C 
HETATM   43  C   UNK N   1      31.870  20.286  -4.592  0.00  0.00     0.037 C 
ENDBRANCH  37  40
ENDBRANCH   1  36
TORSDOF 11
ENDMDL
MODEL 8
REMARK VINA RESULT:      -7.5     11.951     15.030
REMARK  11 active torsions:
REMARK  status: ('A' for Active; 'I' for Inactive)
REMARK    1  A    between atoms: C_2  and  N_5 
REMARK       I    between atoms: N_5  and  C_6 
REMARK    2  A    between atoms: C_6  and  C_8 
REMARK    3  A    between atoms: C_11  and  O_28 
REMARK    4  A    between atoms: C_12  and  N_14 
REMARK    5  A    between atoms: N_14  and  S_15 
REMARK    6  A    between atoms: S_15  and  C_18 
REMARK    7  A    between atoms: C_21  and  C_25 
REMARK    8  A    between atoms: O_28  and  C_29 
REMARK    9  A    between atoms: C_32  and  C_36 
REMARK   10  A    between atoms: C_36  and  C_37 
REMARK   11  A    between atoms: C_37  and  O_39 
ROOT
HETATM    1  C   UNK N   1      30.354  23.336  -3.897  0.00  0.00     0.034 A 
HETATM    2  C   UNK N   1      30.602  24.711  -3.993  0.00  0.00     0.020 A 
HETATM    3  C   UNK N   1      29.920  25.489  -4.916  0.00  0.00     0.040 A 
HETATM    4  C   UNK N   1      28.941  24.925  -5.753  0.00  0.00     0.103 A 
HETATM    5  C   UNK N   1      28.767  23.548  -5.745  0.00  0.00     0.077 A 
HETATM    6  C   UNK N   1      29.470  22.757  -4.820  0.00  0.00     0.050 A 
ENDROOT
BRANCH   5   7
HETATM    7  N   UNK N   1      27.888  22.949  -6.658  0.00  0.00    -0.278 N 
HETATM    8  H   UNK N   1      26.997  22.672  -6.346  0.00  0.00     0.179 HD
BRANCH   7   9
HETATM    9  S   UNK N   1      28.316  22.675  -8.330  0.00  0.00     0.265 S 
HETATM   10  O   UNK N   1      28.395  23.955  -9.177  0.00  0.00    -0.200 OA
HETATM   11  O   UNK N   1      29.775  22.895  -7.908  0.00  0.00    -0.200 OA
BRANCH   9  12
HETATM   12  C   UNK N   1      28.751  21.000  -8.731  0.00  0.00     0.101 A 
HETATM   13  C   UNK N   1      29.007  20.178  -7.636  0.00  0.00     0.027 A 
HETATM   14  C   UNK N   1      29.638  18.959  -7.803  0.00  0.00     0.009 A 
HETATM   15  C   UNK N   1      30.052  18.560  -9.074  0.00  0.00    -0.052 A 
HETATM   16  C   UNK N   1      29.718  19.338 -10.196  0.00  0.00     0.033 A 
HETATM   17  C   UNK N   1      29.052  20.557 -10.035  0.00  0.00     0.057 A 
HETATM   18 Cl   UNK N   1      28.741  21.547 -11.456  0.00  0.00    -0.083 Cl
BRANCH  15  19
HETATM   19  C   UNK N   1      30.937  17.365  -9.208  0.00  0.00     0.018 A 
HETATM   20  C   UNK N   1      32.397  17.813  -9.258  0.00  0.00     0.010 A 
HETATM   21  C   UNK N   1      31.684  17.453 -10.536  0.00  0.00     0.010 A 
ENDBRANCH  15  19
ENDBRANCH   9  12
ENDBRANCH   7   9
ENDBRANCH   5   7
BRANCH   4  22
HETATM   22  O   UNK N   1      28.173  25.700  -6.571  0.00  0.00    -0.307 OA
BRANCH  22  23
HETATM   23  C   UNK N   1      27.521  26.789  -6.106  0.00  0.00     0.100 C 
HETATM   24  C   UNK N   1      28.028  28.046  -6.430  0.00  0.00     0.081 C 
HETATM   25  C   UNK N   1      27.561  29.176  -5.767  0.00  0.00     0.126 C 
HETATM   26  C   UNK N   1      26.610  29.034  -4.751  0.00  0.00    -0.008 C 
HETATM   27  F   UNK N   1      28.137  30.378  -6.014  0.00  0.00    -0.205 F 
HETATM   28  C   UNK N   1      26.005  27.800  -4.516  0.00  0.00     0.037 C 
HETATM   29  C   UNK N   1      26.420  26.678  -5.214  0.00  0.00     0.068 C 
HETATM   30 Cl   UNK N   1      25.607  25.149  -4.866  0.00  0.00    -0.081 Cl
BRANCH  26  31
HETATM   31  C   UNK N   1      26.404  30.135  -3.781  0.00  0.00     0.151 C 
BRANCH  31  32
HETATM   32  C   UNK N   1      27.527  30.002  -2.781  0.00  0.00     0.143 C 
HETATM   33  O   UNK N   1      27.460  29.176  -1.888  0.00  0.00    -0.650 OA
BRANCH  32  34
HETATM   34  O   UNK N   1      28.647  30.745  -2.919  0.00  0.00    -0.776 OA
HETATM   35  H   UNK N   1      29.269  31.405  -2.684  0.00  0.00     0.167 HD
ENDBRANCH  32  34
ENDBRANCH  31  32
ENDBRANCH  26  31
ENDBRANCH  22  23
ENDBRANCH   4  22
BRANCH   1  36
HETATM   36  C   UNK N   1      30.999  22.609  -2.751  0.00  0.00     0.252 C 
HETATM   37  N   UNK N   1      31.992  21.671  -2.869  0.00  0.00    -0.349 N 
HETATM   38  H   UNK N   1      32.272  21.261  -2.019  0.00  0.00     0.163 HD
HETATM   39  O   UNK N   1      30.584  22.840  -1.632  0.00  0.00    -0.268 OA
BRANCH  37  40
HETATM   40  C   UNK N   1      32.697  21.183  -4.032  0.00  0.00     0.022 C 
HETATM   41  C   UNK N   1      33.232  22.337  -4.862  0.00  0.00     0.037 C 
HETATM   42  C   UNK N   1      33.884  20.378  -3.547  0.00  0.00     0.037 C 
HETATM   43  C   UNK N   1      31.840  20.245  -4.859  0.00  0.00     0.037 C 
ENDBRANCH  37  40
ENDBRANCH   1  36
TORSDOF 11
ENDMDL
MODEL 9
REMARK VINA RESULT:      -7.5      5.250      8.930
REMARK  11 active torsions:
REMARK  status: ('A' for Active; 'I' for Inactive)
REMARK    1  A    between atoms: C_2  and  N_5 
REMARK       I    between atoms: N_5  and  C_6 
REMARK    2  A    between atoms: C_6  and  C_8 
REMARK    3  A    between atoms: C_11  and  O_28 
REMARK    4  A    between atoms: C_12  and  N_14 
REMARK    5  A    between atoms: N_14  and  S_15 
REMARK    6  A    between atoms: S_15  and  C_18 
REMARK    7  A    between atoms: C_21  and  C_25 
REMARK    8  A    between atoms: O_28  and  C_29 
REMARK    9  A    between atoms: C_32  and  C_36 
REMARK   10  A    between atoms: C_36  and  C_37 
REMARK   11  A    between atoms: C_37  and  O_39 
ROOT
HETATM    1  C   UNK N   1      21.243  13.768   8.217  0.00  0.00     0.034 A 
HETATM    2  C   UNK N   1      21.506  15.103   7.885  0.00  0.00     0.020 A 
HETATM    3  C   UNK N   1      21.814  15.459   6.582  0.00  0.00     0.040 A 
HETATM    4  C   UNK N   1      21.838  14.497   5.555  0.00  0.00     0.103 A 
HETATM    5  C   UNK N   1      21.691  13.159   5.890  0.00  0.00     0.077 A 
HETATM    6  C   UNK N   1      21.393  12.796   7.216  0.00  0.00     0.050 A 
ENDROOT
BRANCH   5   7
HETATM    7  N   UNK N   1      21.835  12.172   4.906  0.00  0.00    -0.278 N 
HETATM    8  H   UNK N   1      21.044  11.900   4.387  0.00  0.00     0.179 HD
BRANCH   7   9
HETATM    9  S   UNK N   1      23.368  11.404   4.565  0.00  0.00     0.265 S 
HETATM   10  O   UNK N   1      23.295   9.872   4.468  0.00  0.00    -0.200 OA
HETATM   11  O   UNK N   1      22.988  11.490   3.082  0.00  0.00    -0.200 OA
BRANCH   9  12
HETATM   12  C   UNK N   1      24.708  12.518   4.222  0.00  0.00     0.101 A 
HETATM   13  C   UNK N   1      25.048  12.636   2.877  0.00  0.00     0.027 A 
HETATM   14  C   UNK N   1      26.243  13.222   2.502  0.00  0.00     0.009 A 
HETATM   15  C   UNK N   1      27.132  13.671   3.477  0.00  0.00    -0.052 A 
HETATM   16  C   UNK N   1      26.760  13.641   4.832  0.00  0.00     0.033 A 
HETATM   17  C   UNK N   1      25.538  13.078   5.215  0.00  0.00     0.057 A 
HETATM   18 Cl   UNK N   1      25.155  12.968   6.928  0.00  0.00    -0.083 Cl
BRANCH  15  19
HETATM   19  C   UNK N   1      28.510  14.079   3.072  0.00  0.00     0.018 A 
HETATM   20  C   UNK N   1      28.540  15.582   2.799  0.00  0.00     0.010 A 
HETATM   21  C   UNK N   1      28.465  14.617   1.645  0.00  0.00     0.010 A 
ENDBRANCH  15  19
ENDBRANCH   9  12
ENDBRANCH   7   9
ENDBRANCH   5   7
BRANCH   4  22
HETATM   22  O   UNK N   1      22.011  14.854   4.250  0.00  0.00    -0.307 OA
BRANCH  22  23
HETATM   23  C   UNK N   1      22.587  16.028   3.908  0.00  0.00     0.100 C 
HETATM   24  C   UNK N   1      23.977  16.075   3.818  0.00  0.00     0.081 C 
HETATM   25  C   UNK N   1      24.627  17.302   3.734  0.00  0.00     0.126 C 
HETATM   26  C   UNK N   1      23.876  18.482   3.779  0.00  0.00    -0.008 C 
HETATM   27  F   UNK N   1      25.981  17.341   3.755  0.00  0.00    -0.205 F 
HETATM   28  C   UNK N   1      22.484  18.438   3.736  0.00  0.00     0.037 C 
HETATM   29  C   UNK N   1      21.826  17.219   3.758  0.00  0.00     0.068 C 
HETATM   30 Cl   UNK N   1      20.061  17.238   3.697  0.00  0.00    -0.081 Cl
BRANCH  26  31
HETATM   31  C   UNK N   1      24.547  19.766   4.095  0.00  0.00     0.151 C 
BRANCH  31  32
HETATM   32  C   UNK N   1      24.243  20.675   2.929  0.00  0.00     0.143 C 
HETATM   33  O   UNK N   1      24.940  20.647   1.930  0.00  0.00    -0.650 OA
BRANCH  32  34
HETATM   34  O   UNK N   1      23.148  21.466   2.956  0.00  0.00    -0.776 OA
HETATM   35  H   UNK N   1      22.616  22.180   3.250  0.00  0.00     0.167 HD
ENDBRANCH  32  34
ENDBRANCH  31  32
ENDBRANCH  26  31
ENDBRANCH  22  23
ENDBRANCH   4  22
BRANCH   1  36
HETATM   36  C   UNK N   1      20.740  13.500   9.606  0.00  0.00     0.252 C 
HETATM   37  N   UNK N   1      21.444  12.860  10.593  0.00  0.00    -0.349 N 
HETATM   38  H   UNK N   1      20.948  12.731  11.433  0.00  0.00     0.163 HD
HETATM   39  O   UNK N   1      19.603  13.843   9.869  0.00  0.00    -0.268 OA
BRANCH  37  40
HETATM   40  C   UNK N   1      22.795  12.344  10.607  0.00  0.00     0.022 C 
HETATM   41  C   UNK N   1      23.195  11.921  12.009  0.00  0.00     0.037 C 
HETATM   42  C   UNK N   1      22.825  11.111   9.729  0.00  0.00     0.037 C 
HETATM   43  C   UNK N   1      23.781  13.330  10.013  0.00  0.00     0.037 C 
ENDBRANCH  37  40
ENDBRANCH   1  36
TORSDOF 11
ENDMDL
