MODEL 1
REMARK VINA RESULT:      -7.1      0.000      0.000
REMARK  7 active torsions:
REMARK  status: ('A' for Active; 'I' for Inactive)
REMARK    1  A    between atoms: O_2  and  C_3 
REMARK    2  A    between atoms: C_5  and  C_13 
REMARK    3  A    between atoms: C_7  and  O_11 
REMARK    4  A    between atoms: C_8  and  O_9 
REMARK    5  A    between atoms: C_14  and  C_15 
REMARK       I    between atoms: C_15  and  N_17 
REMARK    6  A    between atoms: N_20  and  C_23 
REMARK    7  A    between atoms: C_23  and  C_24 
REMARK       I    between atoms: C_24  and  N_26 
ROOT
HETATM    1  C   UNK N   1      35.196  12.971  11.526  0.00  0.00     0.243 C 
HETATM    2  O   UNK N   1      34.712  11.920  11.124  0.00  0.00    -0.268 OA
HETATM    3  N   UNK N   1      35.429  13.992  10.629  0.00  0.00    -0.345 N 
HETATM    4  C   UNK N   1      35.011  13.865   9.254  0.00  0.00     0.156 C 
HETATM    5  C   UNK N   1      34.099  15.051   8.932  0.00  0.00     0.293 C 
HETATM    6  N   UNK N   1      34.812  16.311   9.186  0.00  0.00     0.100 N 
HETATM    7  C   UNK N   1      35.114  16.399  10.614  0.00  0.00     0.293 C 
HETATM    8  C   UNK N   1      36.047  15.255  10.998  0.00  0.00     0.156 C 
ENDROOT
BRANCH   1   9
HETATM    9  C   UNK N   1      35.478  13.082  12.988  0.00  0.00     0.075 C 
HETATM   10  C   UNK N   1      34.801  12.331  13.849  0.00  0.00     0.017 C 
BRANCH  10  11
HETATM   11  C   UNK N   1      34.928  12.229  15.294  0.00  0.00    -0.031 A 
HETATM   12  C   UNK N   1      35.134  13.316  16.142  0.00  0.00     0.051 A 
HETATM   13  C   UNK N   1      35.259  13.120  17.527  0.00  0.00     0.105 A 
HETATM   14  C   UNK N   1      35.183  11.794  18.063  0.00  0.00     0.135 A 
HETATM   15  C   UNK N   1      35.014  10.697  17.162  0.00  0.00     0.105 A 
HETATM   16  C   UNK N   1      34.873  10.948  15.809  0.00  0.00     0.051 A 
BRANCH  13  17
HETATM   17  O   UNK N   1      35.428  14.229  18.297  0.00  0.00    -0.353 OA
HETATM   18  C   UNK N   1      36.141  15.354  17.948  0.00  0.00     0.210 C 
ENDBRANCH  13  17
BRANCH  14  19
HETATM   19  O   UNK N   1      35.254  11.626  19.409  0.00  0.00    -0.351 OA
HETATM   20  C   UNK N   1      36.282  10.988  20.065  0.00  0.00     0.210 C 
ENDBRANCH  14  19
BRANCH  15  21
HETATM   21  O   UNK N   1      35.007   9.396  17.535  0.00  0.00    -0.353 OA
HETATM   22  C   UNK N   1      35.593   8.395  16.795  0.00  0.00     0.210 C 
ENDBRANCH  15  21
ENDBRANCH  10  11
ENDBRANCH   1   9
BRANCH   6  23
HETATM   23  C   UNK N   1      33.946  17.435   8.845  0.00  0.00     0.374 C 
BRANCH  23  24
HETATM   24  C   UNK N   1      33.701  17.491   7.359  0.00  0.00     0.248 C 
HETATM   25  O   UNK N   1      34.650  17.673   6.611  0.00  0.00    -0.271 OA
HETATM   26  N   UNK N   1      32.452  17.336   6.841  0.00  0.00    -0.351 N 
HETATM   27  C   UNK N   1      32.208  17.394   5.428  0.00  0.00     0.126 C 
HETATM   28  C   UNK N   1      31.293  17.098   7.649  0.00  0.00     0.126 C 
HETATM   29  C   UNK N   1      30.710  17.219   5.273  0.00  0.00     0.021 C 
HETATM   30  C   UNK N   1      30.152  16.913   6.662  0.00  0.00     0.021 C 
ENDBRANCH  23  24
ENDBRANCH   6  23
TORSDOF 7
ENDMDL
MODEL 2
REMARK VINA RESULT:      -7.1      2.679     11.030
REMARK  7 active torsions:
REMARK  status: ('A' for Active; 'I' for Inactive)
REMARK    1  A    between atoms: O_2  and  C_3 
REMARK    2  A    between atoms: C_5  and  C_13 
REMARK    3  A    between atoms: C_7  and  O_11 
REMARK    4  A    between atoms: C_8  and  O_9 
REMARK    5  A    between atoms: C_14  and  C_15 
REMARK       I    between atoms: C_15  and  N_17 
REMARK    6  A    between atoms: N_20  and  C_23 
REMARK    7  A    between atoms: C_23  and  C_24 
REMARK       I    between atoms: C_24  and  N_26 
ROOT
HETATM    1  C   UNK N   1      35.011  16.703   9.382  0.00  0.00     0.243 C 
HETATM    2  O   UNK N   1      35.303  17.808   9.824  0.00  0.00    -0.268 OA
HETATM    3  N   UNK N   1      35.535  15.578   9.984  0.00  0.00    -0.345 N 
HETATM    4  C   UNK N   1      36.332  15.693  11.181  0.00  0.00     0.156 C 
HETATM    5  C   UNK N   1      35.683  14.823  12.259  0.00  0.00     0.293 C 
HETATM    6  N   UNK N   1      35.583  13.435  11.785  0.00  0.00     0.100 N 
HETATM    7  C   UNK N   1      34.686  13.398  10.631  0.00  0.00     0.293 C 
HETATM    8  C   UNK N   1      35.290  14.228   9.503  0.00  0.00     0.156 C 
ENDROOT
BRANCH   1   9
HETATM    9  C   UNK N   1      34.071  16.653   8.223  0.00  0.00     0.075 C 
HETATM   10  C   UNK N   1      32.815  17.057   8.377  0.00  0.00     0.017 C 
BRANCH  10  11
HETATM   11  C   UNK N   1      31.741  17.145   7.401  0.00  0.00    -0.031 A 
HETATM   12  C   UNK N   1      31.934  17.144   6.020  0.00  0.00     0.051 A 
HETATM   13  C   UNK N   1      30.836  17.247   5.152  0.00  0.00     0.105 A 
HETATM   14  C   UNK N   1      29.515  17.365   5.692  0.00  0.00     0.135 A 
HETATM   15  C   UNK N   1      29.355  17.406   7.113  0.00  0.00     0.105 A 
HETATM   16  C   UNK N   1      30.469  17.276   7.923  0.00  0.00     0.051 A 
BRANCH  13  17
HETATM   17  O   UNK N   1      31.096  17.210   3.816  0.00  0.00    -0.353 OA
HETATM   18  C   UNK N   1      32.337  17.064   3.239  0.00  0.00     0.210 C 
ENDBRANCH  13  17
BRANCH  14  19
HETATM   19  O   UNK N   1      28.459  17.412   4.839  0.00  0.00    -0.351 OA
HETATM   20  C   UNK N   1      27.892  18.570   4.359  0.00  0.00     0.210 C 
ENDBRANCH  14  19
BRANCH  15  21
HETATM   21  O   UNK N   1      28.172  17.592   7.743  0.00  0.00    -0.353 OA
HETATM   22  C   UNK N   1      28.070  17.895   9.081  0.00  0.00     0.210 C 
ENDBRANCH  15  21
ENDBRANCH  10  11
ENDBRANCH   1   9
BRANCH   6  23
HETATM   23  C   UNK N   1      34.993  12.607  12.832  0.00  0.00     0.374 C 
BRANCH  23  24
HETATM   24  C   UNK N   1      36.045  11.760  13.501  0.00  0.00     0.248 C 
HETATM   25  O   UNK N   1      36.997  11.368  12.840  0.00  0.00    -0.271 OA
HETATM   26  N   UNK N   1      35.959  11.433  14.820  0.00  0.00    -0.351 N 
HETATM   27  C   UNK N   1      36.952  10.621  15.463  0.00  0.00     0.126 C 
HETATM   28  C   UNK N   1      34.888  11.870  15.665  0.00  0.00     0.126 C 
HETATM   29  C   UNK N   1      36.472  10.459  16.892  0.00  0.00     0.021 C 
HETATM   30  C   UNK N   1      35.236  11.344  17.048  0.00  0.00     0.021 C 
ENDBRANCH  23  24
ENDBRANCH   6  23
TORSDOF 7
ENDMDL
MODEL 3
REMARK VINA RESULT:      -7.1      2.341      4.468
REMARK  7 active torsions:
REMARK  status: ('A' for Active; 'I' for Inactive)
REMARK    1  A    between atoms: O_2  and  C_3 
REMARK    2  A    between atoms: C_5  and  C_13 
REMARK    3  A    between atoms: C_7  and  O_11 
REMARK    4  A    between atoms: C_8  and  O_9 
REMARK    5  A    between atoms: C_14  and  C_15 
REMARK       I    between atoms: C_15  and  N_17 
REMARK    6  A    between atoms: N_20  and  C_23 
REMARK    7  A    between atoms: C_23  and  C_24 
REMARK       I    between atoms: C_24  and  N_26 
ROOT
HETATM    1  C   UNK N   1      34.674  16.777   9.810  0.00  0.00     0.243 C 
HETATM    2  O   UNK N   1      35.591  17.577   9.949  0.00  0.00    -0.268 OA
HETATM    3  N   UNK N   1      33.818  16.913   8.737  0.00  0.00    -0.345 N 
HETATM    4  C   UNK N   1      34.061  17.921   7.733  0.00  0.00     0.156 C 
HETATM    5  C   UNK N   1      34.144  17.218   6.377  0.00  0.00     0.293 C 
HETATM    6  N   UNK N   1      32.906  16.467   6.128  0.00  0.00     0.100 N 
HETATM    7  C   UNK N   1      32.788  15.411   7.133  0.00  0.00     0.293 C 
HETATM    8  C   UNK N   1      32.672  16.047   8.514  0.00  0.00     0.156 C 
ENDROOT
BRANCH   1   9
HETATM    9  C   UNK N   1      34.564  15.676  10.813  0.00  0.00     0.075 C 
HETATM   10  C   UNK N   1      35.583  15.423  11.627  0.00  0.00     0.017 C 
BRANCH  10  11
HETATM   11  C   UNK N   1      35.695  14.449  12.701  0.00  0.00    -0.031 A 
HETATM   12  C   UNK N   1      35.013  13.233  12.732  0.00  0.00     0.051 A 
HETATM   13  C   UNK N   1      35.172  12.360  13.819  0.00  0.00     0.105 A 
HETATM   14  C   UNK N   1      36.031  12.729  14.903  0.00  0.00     0.135 A 
HETATM   15  C   UNK N   1      36.683  14.001  14.861  0.00  0.00     0.105 A 
HETATM   16  C   UNK N   1      36.510  14.814  13.755  0.00  0.00     0.051 A 
BRANCH  13  17
HETATM   17  O   UNK N   1      34.499  11.178  13.768  0.00  0.00    -0.353 OA
HETATM   18  C   UNK N   1      34.909  10.043  13.105  0.00  0.00     0.210 C 
ENDBRANCH  13  17
BRANCH  14  19
HETATM   19  O   UNK N   1      36.215  11.851  15.923  0.00  0.00    -0.351 OA
HETATM   20  C   UNK N   1      35.464  11.821  17.076  0.00  0.00     0.210 C 
ENDBRANCH  14  19
BRANCH  15  21
HETATM   21  O   UNK N   1      37.455  14.498  15.856  0.00  0.00    -0.353 OA
HETATM   22  C   UNK N   1      37.414  15.812  16.259  0.00  0.00     0.210 C 
ENDBRANCH  15  21
ENDBRANCH  10  11
ENDBRANCH   1   9
BRANCH   6  23
HETATM   23  C   UNK N   1      32.982  15.826   4.819  0.00  0.00     0.374 C 
BRANCH  23  24
HETATM   24  C   UNK N   1      31.944  16.393   3.884  0.00  0.00     0.248 C 
HETATM   25  O   UNK N   1      32.181  17.445   3.307  0.00  0.00    -0.271 OA
HETATM   26  N   UNK N   1      30.762  15.755   3.667  0.00  0.00    -0.351 N 
HETATM   27  C   UNK N   1      29.765  16.290   2.785  0.00  0.00     0.126 C 
HETATM   28  C   UNK N   1      30.419  14.510   4.288  0.00  0.00     0.126 C 
HETATM   29  C   UNK N   1      28.604  15.317   2.853  0.00  0.00     0.021 C 
HETATM   30  C   UNK N   1      29.065  14.137   3.706  0.00  0.00     0.021 C 
ENDBRANCH  23  24
ENDBRANCH   6  23
TORSDOF 7
ENDMDL
MODEL 4
REMARK VINA RESULT:      -6.8      3.062      5.776
REMARK  7 active torsions:
REMARK  status: ('A' for Active; 'I' for Inactive)
REMARK    1  A    between atoms: O_2  and  C_3 
REMARK    2  A    between atoms: C_5  and  C_13 
REMARK    3  A    between atoms: C_7  and  O_11 
REMARK    4  A    between atoms: C_8  and  O_9 
REMARK    5  A    between atoms: C_14  and  C_15 
REMARK       I    between atoms: C_15  and  N_17 
REMARK    6  A    between atoms: N_20  and  C_23 
REMARK    7  A    between atoms: C_23  and  C_24 
REMARK       I    between atoms: C_24  and  N_26 
ROOT
HETATM    1  C   UNK N   1      34.540  16.031   7.461  0.00  0.00     0.243 C 
HETATM    2  O   UNK N   1      35.154  15.833   6.420  0.00  0.00    -0.268 OA
HETATM    3  N   UNK N   1      33.455  16.883   7.451  0.00  0.00    -0.345 N 
HETATM    4  C   UNK N   1      32.985  17.452   6.211  0.00  0.00     0.156 C 
HETATM    5  C   UNK N   1      31.508  17.082   6.058  0.00  0.00     0.293 C 
HETATM    6  N   UNK N   1      30.750  17.567   7.219  0.00  0.00     0.100 N 
HETATM    7  C   UNK N   1      31.227  16.873   8.414  0.00  0.00     0.293 C 
HETATM    8  C   UNK N   1      32.694  17.223   8.642  0.00  0.00     0.156 C 
ENDROOT
BRANCH   1   9
HETATM    9  C   UNK N   1      34.999  15.302   8.681  0.00  0.00     0.075 C 
HETATM   10  C   UNK N   1      34.430  14.148   9.011  0.00  0.00     0.017 C 
BRANCH  10  11
HETATM   11  C   UNK N   1      34.732  13.244  10.109  0.00  0.00    -0.031 A 
HETATM   12  C   UNK N   1      34.810  11.858   9.985  0.00  0.00     0.051 A 
HETATM   13  C   UNK N   1      35.093  11.062  11.106  0.00  0.00     0.105 A 
HETATM   14  C   UNK N   1      35.293  11.681  12.381  0.00  0.00     0.135 A 
HETATM   15  C   UNK N   1      35.165  13.102  12.483  0.00  0.00     0.105 A 
HETATM   16  C   UNK N   1      34.907  13.841  11.343  0.00  0.00     0.051 A 
BRANCH  13  17
HETATM   17  O   UNK N   1      35.183   9.719  10.906  0.00  0.00    -0.353 OA
HETATM   18  C   UNK N   1      34.139   8.823  10.953  0.00  0.00     0.210 C 
ENDBRANCH  13  17
BRANCH  14  19
HETATM   19  O   UNK N   1      35.618  10.902  13.446  0.00  0.00    -0.351 OA
HETATM   20  C   UNK N   1      36.904  10.581  13.817  0.00  0.00     0.210 C 
ENDBRANCH  14  19
BRANCH  15  21
HETATM   21  O   UNK N   1      35.252  13.796  13.642  0.00  0.00    -0.353 OA
HETATM   22  C   UNK N   1      36.436  14.294  14.135  0.00  0.00     0.210 C 
ENDBRANCH  15  21
ENDBRANCH  10  11
ENDBRANCH   1   9
BRANCH   6  23
HETATM   23  C   UNK N   1      29.338  17.238   7.049  0.00  0.00     0.374 C 
BRANCH  23  24
HETATM   24  C   UNK N   1      28.471  18.440   7.324  0.00  0.00     0.248 C 
HETATM   25  O   UNK N   1      28.230  18.741   8.485  0.00  0.00    -0.271 OA
HETATM   26  N   UNK N   1      27.962  19.194   6.311  0.00  0.00    -0.351 N 
HETATM   27  C   UNK N   1      27.130  20.335   6.564  0.00  0.00     0.126 C 
HETATM   28  C   UNK N   1      28.215  18.919   4.928  0.00  0.00     0.126 C 
HETATM   29  C   UNK N   1      26.746  20.862   5.195  0.00  0.00     0.021 C 
HETATM   30  C   UNK N   1      27.526  20.042   4.169  0.00  0.00     0.021 C 
ENDBRANCH  23  24
ENDBRANCH   6  23
TORSDOF 7
ENDMDL
MODEL 5
REMARK VINA RESULT:      -6.8      2.612      4.444
REMARK  7 active torsions:
REMARK  status: ('A' for Active; 'I' for Inactive)
REMARK    1  A    between atoms: O_2  and  C_3 
REMARK    2  A    between atoms: C_5  and  C_13 
REMARK    3  A    between atoms: C_7  and  O_11 
REMARK    4  A    between atoms: C_8  and  O_9 
REMARK    5  A    between atoms: C_14  and  C_15 
REMARK       I    between atoms: C_15  and  N_17 
REMARK    6  A    between atoms: N_20  and  C_23 
REMARK    7  A    between atoms: C_23  and  C_24 
REMARK       I    between atoms: C_24  and  N_26 
ROOT
HETATM    1  C   UNK N   1      34.449  16.970   9.532  0.00  0.00     0.243 C 
HETATM    2  O   UNK N   1      35.424  17.711   9.518  0.00  0.00    -0.268 OA
HETATM    3  N   UNK N   1      33.487  17.104   8.553  0.00  0.00    -0.345 N 
HETATM    4  C   UNK N   1      33.676  18.034   7.466  0.00  0.00     0.156 C 
HETATM    5  C   UNK N   1      33.560  17.252   6.157  0.00  0.00     0.293 C 
HETATM    6  N   UNK N   1      32.258  16.575   6.094  0.00  0.00     0.100 N 
HETATM    7  C   UNK N   1      32.189  15.588   7.171  0.00  0.00     0.293 C 
HETATM    8  C   UNK N   1      32.271  16.308   8.513  0.00  0.00     0.156 C 
ENDROOT
BRANCH   1   9
HETATM    9  C   UNK N   1      34.385  15.937  10.609  0.00  0.00     0.075 C 
HETATM   10  C   UNK N   1      35.489  15.608  11.271  0.00  0.00     0.017 C 
BRANCH  10  11
HETATM   11  C   UNK N   1      35.668  14.679  12.375  0.00  0.00    -0.031 A 
HETATM   12  C   UNK N   1      36.433  14.946  13.509  0.00  0.00     0.051 A 
HETATM   13  C   UNK N   1      36.561  13.980  14.520  0.00  0.00     0.105 A 
HETATM   14  C   UNK N   1      35.908  12.714  14.376  0.00  0.00     0.135 A 
HETATM   15  C   UNK N   1      35.166  12.456  13.182  0.00  0.00     0.105 A 
HETATM   16  C   UNK N   1      35.053  13.450  12.226  0.00  0.00     0.051 A 
BRANCH  13  17
HETATM   17  O   UNK N   1      37.298  14.321  15.612  0.00  0.00    -0.353 OA
HETATM   18  C   UNK N   1      37.433  15.588  16.133  0.00  0.00     0.210 C 
ENDBRANCH  13  17
BRANCH  14  19
HETATM   19  O   UNK N   1      35.999  11.811  15.386  0.00  0.00    -0.351 OA
HETATM   20  C   UNK N   1      36.938  10.808  15.458  0.00  0.00     0.210 C 
ENDBRANCH  14  19
BRANCH  15  21
HETATM   21  O   UNK N   1      34.572  11.274  12.892  0.00  0.00    -0.353 OA
HETATM   22  C   UNK N   1      35.132  10.332  12.062  0.00  0.00     0.210 C 
ENDBRANCH  15  21
ENDBRANCH  10  11
ENDBRANCH   1   9
BRANCH   6  23
HETATM   23  C   UNK N   1      32.144  15.858   4.827  0.00  0.00     0.374 C 
BRANCH  23  24
HETATM   24  C   UNK N   1      30.894  16.266   4.091  0.00  0.00     0.248 C 
HETATM   25  O   UNK N   1      30.490  17.415   4.204  0.00  0.00    -0.271 OA
HETATM   26  N   UNK N   1      30.218  15.387   3.302  0.00  0.00    -0.351 N 
HETATM   27  C   UNK N   1      29.023  15.764   2.602  0.00  0.00     0.126 C 
HETATM   28  C   UNK N   1      30.638  14.032   3.101  0.00  0.00     0.126 C 
HETATM   29  C   UNK N   1      28.566  14.509   1.884  0.00  0.00     0.021 C 
HETATM   30  C   UNK N   1      29.648  13.454   2.103  0.00  0.00     0.021 C 
ENDBRANCH  23  24
ENDBRANCH   6  23
TORSDOF 7
ENDMDL
MODEL 6
REMARK VINA RESULT:      -6.7      3.035      5.352
REMARK  7 active torsions:
REMARK  status: ('A' for Active; 'I' for Inactive)
REMARK    1  A    between atoms: O_2  and  C_3 
REMARK    2  A    between atoms: C_5  and  C_13 
REMARK    3  A    between atoms: C_7  and  O_11 
REMARK    4  A    between atoms: C_8  and  O_9 
REMARK    5  A    between atoms: C_14  and  C_15 
REMARK       I    between atoms: C_15  and  N_17 
REMARK    6  A    between atoms: N_20  and  C_23 
REMARK    7  A    between atoms: C_23  and  C_24 
REMARK       I    between atoms: C_24  and  N_26 
ROOT
HETATM    1  C   UNK N   1      34.612  15.673   7.413  0.00  0.00     0.243 C 
HETATM    2  O   UNK N   1      35.324  15.716   6.417  0.00  0.00    -0.268 OA
HETATM    3  N   UNK N   1      33.552  16.548   7.521  0.00  0.00    -0.345 N 
HETATM    4  C   UNK N   1      33.222  17.434   6.431  0.00  0.00     0.156 C 
HETATM    5  C   UNK N   1      31.761  17.183   6.053  0.00  0.00     0.293 C 
HETATM    6  N   UNK N   1      30.899  17.393   7.224  0.00  0.00     0.100 N 
HETATM    7  C   UNK N   1      31.238  16.397   8.240  0.00  0.00     0.293 C 
HETATM    8  C   UNK N   1      32.682  16.609   8.684  0.00  0.00     0.156 C 
ENDROOT
BRANCH   1   9
HETATM    9  C   UNK N   1      34.931  14.638   8.441  0.00  0.00     0.075 C 
HETATM   10  C   UNK N   1      35.801  14.914   9.406  0.00  0.00     0.017 C 
BRANCH  10  11
HETATM   11  C   UNK N   1      36.232  14.098  10.530  0.00  0.00    -0.031 A 
HETATM   12  C   UNK N   1      35.970  14.401  11.865  0.00  0.00     0.051 A 
HETATM   13  C   UNK N   1      36.439  13.561  12.887  0.00  0.00     0.105 A 
HETATM   14  C   UNK N   1      37.199  12.395  12.551  0.00  0.00     0.135 A 
HETATM   15  C   UNK N   1      37.487  12.135  11.174  0.00  0.00     0.105 A 
HETATM   16  C   UNK N   1      36.980  12.983  10.205  0.00  0.00     0.051 A 
BRANCH  13  17
HETATM   17  O   UNK N   1      36.121  13.902  14.165  0.00  0.00    -0.353 OA
HETATM   18  C   UNK N   1      36.886  14.674  15.010  0.00  0.00     0.210 C 
ENDBRANCH  13  17
BRANCH  14  19
HETATM   19  O   UNK N   1      37.601  11.564  13.547  0.00  0.00    -0.351 OA
HETATM   20  C   UNK N   1      36.902  10.458  13.974  0.00  0.00     0.210 C 
ENDBRANCH  14  19
BRANCH  15  21
HETATM   21  O   UNK N   1      38.258  11.113  10.734  0.00  0.00    -0.353 OA
HETATM   22  C   UNK N   1      37.746   9.902  10.331  0.00  0.00     0.210 C 
ENDBRANCH  15  21
ENDBRANCH  10  11
ENDBRANCH   1   9
BRANCH   6  23
HETATM   23  C   UNK N   1      29.506  17.183   6.845  0.00  0.00     0.374 C 
BRANCH  23  24
HETATM   24  C   UNK N   1      28.656  18.359   7.256  0.00  0.00     0.248 C 
HETATM   25  O   UNK N   1      28.506  18.591   8.447  0.00  0.00    -0.271 OA
HETATM   26  N   UNK N   1      28.065  19.164   6.331  0.00  0.00    -0.351 N 
HETATM   27  C   UNK N   1      27.250  20.281   6.712  0.00  0.00     0.126 C 
HETATM   28  C   UNK N   1      28.210  18.970   4.919  0.00  0.00     0.126 C 
HETATM   29  C   UNK N   1      26.756  20.880   5.410  0.00  0.00     0.021 C 
HETATM   30  C   UNK N   1      27.458  20.127   4.281  0.00  0.00     0.021 C 
ENDBRANCH  23  24
ENDBRANCH   6  23
TORSDOF 7
ENDMDL
MODEL 7
REMARK VINA RESULT:      -6.7      9.654     14.578
REMARK  7 active torsions:
REMARK  status: ('A' for Active; 'I' for Inactive)
REMARK    1  A    between atoms: O_2  and  C_3 
REMARK    2  A    between atoms: C_5  and  C_13 
REMARK    3  A    between atoms: C_7  and  O_11 
REMARK    4  A    between atoms: C_8  and  O_9 
REMARK    5  A    between atoms: C_14  and  C_15 
REMARK       I    between atoms: C_15  and  N_17 
REMARK    6  A    between atoms: N_20  and  C_23 
REMARK    7  A    between atoms: C_23  and  C_24 
REMARK       I    between atoms: C_24  and  N_26 
ROOT
HETATM    1  C   UNK N   1      24.574  20.188   2.983  0.00  0.00     0.243 C 
HETATM    2  O   UNK N   1      24.837  21.155   2.279  0.00  0.00    -0.268 OA
HETATM    3  N   UNK N   1      23.260  19.941   3.322  0.00  0.00    -0.345 N 
HETATM    4  C   UNK N   1      22.199  20.747   2.769  0.00  0.00     0.156 C 
HETATM    5  C   UNK N   1      21.215  19.808   2.069  0.00  0.00     0.293 C 
HETATM    6  N   UNK N   1      20.718  18.806   3.023  0.00  0.00     0.100 N 
HETATM    7  C   UNK N   1      21.840  17.976   3.459  0.00  0.00     0.293 C 
HETATM    8  C   UNK N   1      22.851  18.851   4.193  0.00  0.00     0.156 C 
ENDROOT
BRANCH   1   9
HETATM    9  C   UNK N   1      25.709  19.316   3.408  0.00  0.00     0.075 C 
HETATM   10  C   UNK N   1      26.378  19.601   4.520  0.00  0.00     0.017 C 
BRANCH  10  11
HETATM   11  C   UNK N   1      27.473  18.885   5.154  0.00  0.00    -0.031 A 
HETATM   12  C   UNK N   1      27.744  18.916   6.521  0.00  0.00     0.051 A 
HETATM   13  C   UNK N   1      28.835  18.204   7.043  0.00  0.00     0.105 A 
HETATM   14  C   UNK N   1      29.677  17.453   6.161  0.00  0.00     0.135 A 
HETATM   15  C   UNK N   1      29.398  17.476   4.759  0.00  0.00     0.105 A 
HETATM   16  C   UNK N   1      28.296  18.176   4.299  0.00  0.00     0.051 A 
BRANCH  13  17
HETATM   17  O   UNK N   1      29.021  18.255   8.390  0.00  0.00    -0.353 OA
HETATM   18  C   UNK N   1      28.364  17.488   9.326  0.00  0.00     0.210 C 
ENDBRANCH  13  17
BRANCH  14  19
HETATM   19  O   UNK N   1      30.697  16.727   6.688  0.00  0.00    -0.351 OA
HETATM   20  C   UNK N   1      31.993  17.175   6.813  0.00  0.00     0.210 C 
ENDBRANCH  14  19
BRANCH  15  21
HETATM   21  O   UNK N   1      30.162  16.874   3.817  0.00  0.00    -0.353 OA
HETATM   22  C   UNK N   1      29.653  16.020   2.866  0.00  0.00     0.210 C 
ENDBRANCH  15  21
ENDBRANCH  10  11
ENDBRANCH   1   9
BRANCH   6  23
HETATM   23  C   UNK N   1      19.756  17.935   2.354  0.00  0.00     0.374 C 
BRANCH  23  24
HETATM   24  C   UNK N   1      19.559  16.658   3.131  0.00  0.00     0.248 C 
HETATM   25  O   UNK N   1      19.108  16.721   4.266  0.00  0.00    -0.271 OA
HETATM   26  N   UNK N   1      19.864  15.447   2.591  0.00  0.00    -0.351 N 
HETATM   27  C   UNK N   1      19.686  14.227   3.325  0.00  0.00     0.126 C 
HETATM   28  C   UNK N   1      20.375  15.289   1.262  0.00  0.00     0.126 C 
HETATM   29  C   UNK N   1      20.173  13.128   2.400  0.00  0.00     0.021 C 
HETATM   30  C   UNK N   1      20.494  13.787   1.059  0.00  0.00     0.021 C 
ENDBRANCH  23  24
ENDBRANCH   6  23
TORSDOF 7
ENDMDL
MODEL 8
REMARK VINA RESULT:      -6.7      3.528     12.151
REMARK  7 active torsions:
REMARK  status: ('A' for Active; 'I' for Inactive)
REMARK    1  A    between atoms: O_2  and  C_3 
REMARK    2  A    between atoms: C_5  and  C_13 
REMARK    3  A    between atoms: C_7  and  O_11 
REMARK    4  A    between atoms: C_8  and  O_9 
REMARK    5  A    between atoms: C_14  and  C_15 
REMARK       I    between atoms: C_15  and  N_17 
REMARK    6  A    between atoms: N_20  and  C_23 
REMARK    7  A    between atoms: C_23  and  C_24 
REMARK       I    between atoms: C_24  and  N_26 
ROOT
HETATM    1  C   UNK N   1      33.307  16.844   6.600  0.00  0.00     0.243 C 
HETATM    2  O   UNK N   1      34.174  17.519   6.059  0.00  0.00    -0.268 OA
HETATM    3  N   UNK N   1      33.681  15.805   7.427  0.00  0.00    -0.345 N 
HETATM    4  C   UNK N   1      35.072  15.580   7.734  0.00  0.00     0.156 C 
HETATM    5  C   UNK N   1      35.224  15.605   9.256  0.00  0.00     0.293 C 
HETATM    6  N   UNK N   1      34.347  14.594   9.861  0.00  0.00     0.100 N 
HETATM    7  C   UNK N   1      32.957  14.950   9.580  0.00  0.00     0.293 C 
HETATM    8  C   UNK N   1      32.729  14.916   8.072  0.00  0.00     0.156 C 
ENDROOT
BRANCH   1   9
HETATM    9  C   UNK N   1      31.884  17.219   6.345  0.00  0.00     0.075 C 
HETATM   10  C   UNK N   1      31.346  16.988   5.153  0.00  0.00     0.017 C 
BRANCH  10  11
HETATM   11  C   UNK N   1      29.989  17.219   4.686  0.00  0.00    -0.031 A 
HETATM   12  C   UNK N   1      29.292  16.356   3.842  0.00  0.00     0.051 A 
HETATM   13  C   UNK N   1      27.987  16.670   3.430  0.00  0.00     0.105 A 
HETATM   14  C   UNK N   1      27.378  17.887   3.874  0.00  0.00     0.135 A 
HETATM   15  C   UNK N   1      28.135  18.771   4.704  0.00  0.00     0.105 A 
HETATM   16  C   UNK N   1      29.409  18.403   5.100  0.00  0.00     0.051 A 
BRANCH  13  17
HETATM   17  O   UNK N   1      27.356  15.767   2.630  0.00  0.00    -0.353 OA
HETATM   18  C   UNK N   1      27.950  14.707   1.983  0.00  0.00     0.210 C 
ENDBRANCH  13  17
BRANCH  14  19
HETATM   19  O   UNK N   1      26.096  18.151   3.509  0.00  0.00    -0.351 OA
HETATM   20  C   UNK N   1      24.987  17.824   4.256  0.00  0.00     0.210 C 
ENDBRANCH  14  19
BRANCH  15  21
HETATM   21  O   UNK N   1      27.703  19.983   5.124  0.00  0.00    -0.353 OA
HETATM   22  C   UNK N   1      27.123  20.193   6.353  0.00  0.00     0.210 C 
ENDBRANCH  15  21
ENDBRANCH  10  11
ENDBRANCH   1   9
BRANCH   6  23
HETATM   23  C   UNK N   1      34.524  14.604  11.310  0.00  0.00     0.374 C 
BRANCH  23  24
HETATM   24  C   UNK N   1      35.035  13.272  11.797  0.00  0.00     0.248 C 
HETATM   25  O   UNK N   1      34.816  12.274  11.124  0.00  0.00    -0.271 OA
HETATM   26  N   UNK N   1      35.737  13.164  12.958  0.00  0.00    -0.351 N 
HETATM   27  C   UNK N   1      36.222  11.899  13.432  0.00  0.00     0.126 C 
HETATM   28  C   UNK N   1      36.052  14.287  13.789  0.00  0.00     0.126 C 
HETATM   29  C   UNK N   1      36.902  12.201  14.753  0.00  0.00     0.021 C 
HETATM   30  C   UNK N   1      36.899  13.720  14.917  0.00  0.00     0.021 C 
ENDBRANCH  23  24
ENDBRANCH   6  23
TORSDOF 7
ENDMDL
MODEL 9
REMARK VINA RESULT:      -6.6      4.366     12.571
REMARK  7 active torsions:
REMARK  status: ('A' for Active; 'I' for Inactive)
REMARK    1  A    between atoms: O_2  and  C_3 
REMARK    2  A    between atoms: C_5  and  C_13 
REMARK    3  A    between atoms: C_7  and  O_11 
REMARK    4  A    between atoms: C_8  and  O_9 
REMARK    5  A    between atoms: C_14  and  C_15 
REMARK       I    between atoms: C_15  and  N_17 
REMARK    6  A    between atoms: N_20  and  C_23 
REMARK    7  A    between atoms: C_23  and  C_24 
REMARK       I    between atoms: C_24  and  N_26 
ROOT
HETATM    1  C   UNK N   1      31.985  16.694   5.475  0.00  0.00     0.243 C 
HETATM    2  O   UNK N   1      32.588  17.181   4.527  0.00  0.00    -0.268 OA
HETATM    3  N   UNK N   1      32.683  15.963   6.414  0.00  0.00    -0.345 N 
HETATM    4  C   UNK N   1      34.120  15.859   6.336  0.00  0.00     0.156 C 
HETATM    5  C   UNK N   1      34.696  16.352   7.665  0.00  0.00     0.293 C 
HETATM    6  N   UNK N   1      34.136  15.564   8.773  0.00  0.00     0.100 N 
HETATM    7  C   UNK N   1      32.695  15.801   8.835  0.00  0.00     0.293 C 
HETATM    8  C   UNK N   1      32.052  15.304   7.544  0.00  0.00     0.156 C 
ENDROOT
BRANCH   1   9
HETATM    9  C   UNK N   1      30.517  16.956   5.566  0.00  0.00     0.075 C 
HETATM   10  C   UNK N   1      29.923  17.700   4.639  0.00  0.00     0.017 C 
BRANCH  10  11
HETATM   11  C   UNK N   1      28.521  18.051   4.488  0.00  0.00    -0.031 A 
HETATM   12  C   UNK N   1      27.577  17.254   3.842  0.00  0.00     0.051 A 
HETATM   13  C   UNK N   1      26.245  17.683   3.732  0.00  0.00     0.105 A 
HETATM   14  C   UNK N   1      25.862  18.949   4.278  0.00  0.00     0.135 A 
HETATM   15  C   UNK N   1      26.862  19.762   4.897  0.00  0.00     0.105 A 
HETATM   16  C   UNK N   1      28.156  19.282   5.000  0.00  0.00     0.051 A 
BRANCH  13  17
HETATM   17  O   UNK N   1      25.372  16.840   3.115  0.00  0.00    -0.353 OA
HETATM   18  C   UNK N   1      24.814  15.709   3.666  0.00  0.00     0.210 C 
ENDBRANCH  13  17
BRANCH  14  19
HETATM   19  O   UNK N   1      24.558  19.326   4.209  0.00  0.00    -0.351 OA
HETATM   20  C   UNK N   1      24.028  20.134   3.229  0.00  0.00     0.210 C 
ENDBRANCH  14  19
BRANCH  15  21
HETATM   21  O   UNK N   1      26.644  21.008   5.379  0.00  0.00    -0.353 OA
HETATM   22  C   UNK N   1      27.419  21.584   6.359  0.00  0.00     0.210 C 
ENDBRANCH  15  21
ENDBRANCH  10  11
ENDBRANCH   1   9
BRANCH   6  23
HETATM   23  C   UNK N   1      34.716  16.020  10.033  0.00  0.00     0.374 C 
BRANCH  23  24
HETATM   24  C   UNK N   1      35.030  14.851  10.932  0.00  0.00     0.248 C 
HETATM   25  O   UNK N   1      34.191  14.490  11.746  0.00  0.00    -0.271 OA
HETATM   26  N   UNK N   1      36.218  14.192  10.848  0.00  0.00    -0.351 N 
HETATM   27  C   UNK N   1      36.528  13.083  11.703  0.00  0.00     0.126 C 
HETATM   28  C   UNK N   1      37.241  14.541   9.907  0.00  0.00     0.126 C 
HETATM   29  C   UNK N   1      37.936  12.667  11.325  0.00  0.00     0.021 C 
HETATM   30  C   UNK N   1      38.337  13.507  10.114  0.00  0.00     0.021 C 
ENDBRANCH  23  24
ENDBRANCH   6  23
TORSDOF 7
ENDMDL
