MODEL 1
REMARK VINA RESULT:      -8.3      0.000      0.000
REMARK  6 active torsions:
REMARK  status: ('A' for Active; 'I' for Inactive)
REMARK    1  A    between atoms: C_17  and  C_13 
REMARK    2  A    between atoms: N_33  and  C_13 
REMARK    3  A    between atoms: C_22  and  C_15 
REMARK    4  A    between atoms: C_15  and  O_36 
REMARK    5  A    between atoms: C_20  and  C_16 
REMARK    6  A    between atoms: N_34  and  C_21 
REMARK       I    between atoms: N_35  and  C_22 
REMARK       I    between atoms: N_24  and  C_23 
ROOT
HETATM    1  C   UNK N   1      26.472  16.933   3.268  0.00  0.00     0.052 C 
HETATM    2  C   UNK N   1      25.742  16.293   4.400  0.00  0.00    -0.019 A 
HETATM    3  C   UNK N   1      26.366  15.813   5.560  0.00  0.00     0.020 A 
HETATM    4  C   UNK N   1      24.328  16.121   4.439  0.00  0.00     0.061 A 
HETATM    5  C   UNK N   1      23.857  15.541   5.608  0.00  0.00     0.076 A 
HETATM    6  C   UNK N   1      22.131  16.237   3.618  0.00  0.00     0.120 A 
HETATM    7  C   UNK N   1      22.484  15.377   5.824  0.00  0.00     0.124 A 
HETATM    8  N   UNK N   1      23.469  16.463   3.453  0.00  0.00    -0.340 N 
ATOM      9  HN  UNK N   1      23.818  16.886   2.593  1.00  0.00     0.167 HD
HETATM   10  N   UNK N   1      21.654  15.728   4.799  0.00  0.00    -0.327 N 
ATOM     11  HN  UNK N   1      20.648  15.607   4.915  1.00  0.00     0.169 HD
HETATM   12  S   UNK N   1      25.171  15.195   6.534  0.00  0.00    -0.086 SA
ENDROOT
BRANCH   3  13
HETATM   13  C   UNK N   1      27.819  15.861   5.936  0.00  0.00     0.319 C 
BRANCH  13  14
HETATM   14  N   UNK N   1      28.250  17.162   6.498  0.00  0.00     0.096 N 
HETATM   15  C   UNK N   1      28.677  18.059   5.422  0.00  0.00     0.292 C 
HETATM   16  C   UNK N   1      29.964  17.570   4.740  0.00  0.00     0.156 C 
HETATM   17  N   UNK N   1      30.999  17.193   5.693  0.00  0.00    -0.347 N 
HETATM   18  C   UNK N   1      30.617  16.554   6.929  0.00  0.00     0.156 C 
HETATM   19  C   UNK N   1      32.320  17.347   5.351  0.00  0.00     0.248 C 
HETATM   20  C   UNK N   1      29.320  17.120   7.504  0.00  0.00     0.292 C 
HETATM   21  O   UNK N   1      32.599  17.930   4.312  0.00  0.00    -0.270 OA
BRANCH  19  22
HETATM   22  C   UNK N   1      33.489  16.801   6.177  0.00  0.00     0.206 C 
HETATM   23  C   UNK N   1      34.115  15.612   5.478  0.00  0.00     0.049 C 
BRANCH  22  24
HETATM   24  O   UNK N   1      34.491  17.730   6.463  0.00  0.00    -0.387 OA
HETATM   25  H   UNK N   1      34.634  18.087   7.353  0.00  0.00     0.210 HD
ENDBRANCH  22  24
ENDBRANCH  19  22
ENDBRANCH  13  14
ENDBRANCH   3  13
BRANCH   7  26
HETATM   26  N   UNK N   1      21.934  14.876   7.053  0.00  0.00    -0.362 N 
HETATM   27  C   UNK N   1      21.210  15.764   7.962  0.00  0.00     0.150 C 
HETATM   28  C   UNK N   1      20.674  15.049   9.198  0.00  0.00     0.187 C 
HETATM   29  O   UNK N   1      20.185  13.795   8.827  0.00  0.00    -0.388 OA
HETATM   30  C   UNK N   1      21.340  13.033   8.623  0.00  0.00     0.187 C 
HETATM   31  C   UNK N   1      22.010  13.441   7.308  0.00  0.00     0.150 C 
ENDBRANCH   7  26
BRANCH   6  32
HETATM   32  C   UNK N   1      21.236  16.344   2.461  0.00  0.00     0.040 A 
HETATM   33  C   UNK N   1      21.068  15.263   1.593  0.00  0.00     0.122 A 
HETATM   34  N   UNK N   1      20.091  15.295   0.651  0.00  0.00    -0.201 N 
HETATM   35  C   UNK N   1      19.260  16.366   0.547  0.00  0.00     0.675 A 
HETATM   36  H   UNK N   1      19.984  14.533   0.037  0.00  0.00     0.183 HD
HETATM   37  N   UNK N   1      18.315  16.356  -0.311  0.00  0.00    -0.234 N 
HETATM   38  N   UNK N   1      19.423  17.439   1.366  0.00  0.00    -0.201 N 
HETATM   39  H   UNK N   1      17.708  17.126  -0.403  0.00  0.00     0.174 HD
ATOM     40  HN  UNK N   1      18.186  15.539  -0.909  1.00  0.00     0.174 HD
HETATM   41  C   UNK N   1      20.389  17.445   2.319  0.00  0.00     0.122 A 
ATOM     42  HN  UNK N   1      18.813  18.249   1.262  1.00  0.00     0.183 HD
ENDBRANCH   6  32
TORSDOF 6
ENDMDL
MODEL 2
REMARK VINA RESULT:      -8.1      5.646      7.982
REMARK  6 active torsions:
REMARK  status: ('A' for Active; 'I' for Inactive)
REMARK    1  A    between atoms: C_17  and  C_13 
REMARK    2  A    between atoms: N_33  and  C_13 
REMARK    3  A    between atoms: C_22  and  C_15 
REMARK    4  A    between atoms: C_15  and  O_36 
REMARK    5  A    between atoms: C_20  and  C_16 
REMARK    6  A    between atoms: N_34  and  C_21 
REMARK       I    between atoms: N_35  and  C_22 
REMARK       I    between atoms: N_24  and  C_23 
ROOT
HETATM    1  C   UNK N   1      21.456  13.154   8.902  0.00  0.00     0.052 C 
HETATM    2  C   UNK N   1      21.974  14.109   7.883  0.00  0.00    -0.019 A 
HETATM    3  C   UNK N   1      23.027  13.819   7.003  0.00  0.00     0.020 A 
HETATM    4  C   UNK N   1      21.442  15.414   7.672  0.00  0.00     0.061 A 
HETATM    5  C   UNK N   1      22.048  16.117   6.640  0.00  0.00     0.076 A 
HETATM    6  C   UNK N   1      20.028  17.244   8.080  0.00  0.00     0.120 A 
HETATM    7  C   UNK N   1      21.582  17.383   6.265  0.00  0.00     0.124 A 
HETATM    8  N   UNK N   1      20.441  15.977   8.385  0.00  0.00    -0.340 N 
ATOM      9  HN  UNK N   1      19.999  15.460   9.145  1.00  0.00     0.167 HD
HETATM   10  N   UNK N   1      20.577  17.917   7.018  0.00  0.00    -0.327 N 
ATOM     11  HN  UNK N   1      20.224  18.845   6.783  1.00  0.00     0.169 HD
HETATM   12  S   UNK N   1      23.253  15.164   6.056  0.00  0.00    -0.086 SA
ENDROOT
BRANCH   3  13
HETATM   13  C   UNK N   1      23.809  12.545   6.859  0.00  0.00     0.319 C 
BRANCH  13  14
HETATM   14  N   UNK N   1      23.070  11.465   6.163  0.00  0.00     0.096 N 
HETATM   15  C   UNK N   1      23.832  10.216   6.222  0.00  0.00     0.292 C 
HETATM   16  C   UNK N   1      25.128  10.291   5.399  0.00  0.00     0.156 C 
HETATM   17  N   UNK N   1      24.918  10.838   4.066  0.00  0.00    -0.347 N 
HETATM   18  C   UNK N   1      23.952  11.895   3.884  0.00  0.00     0.156 C 
HETATM   19  C   UNK N   1      25.719  10.422   3.031  0.00  0.00     0.248 C 
HETATM   20  C   UNK N   1      22.714  11.712   4.760  0.00  0.00     0.292 C 
HETATM   21  O   UNK N   1      26.497   9.496   3.219  0.00  0.00    -0.270 OA
BRANCH  19  22
HETATM   22  C   UNK N   1      25.732  11.069   1.643  0.00  0.00     0.206 C 
HETATM   23  C   UNK N   1      27.155  11.366   1.215  0.00  0.00     0.049 C 
BRANCH  22  24
HETATM   24  O   UNK N   1      25.111  10.322   0.640  0.00  0.00    -0.387 OA
HETATM   25  H   UNK N   1      25.531   9.554   0.223  0.00  0.00     0.210 HD
ENDBRANCH  22  24
ENDBRANCH  19  22
ENDBRANCH  13  14
ENDBRANCH   3  13
BRANCH   7  26
HETATM   26  N   UNK N   1      22.104  18.113   5.144  0.00  0.00    -0.362 N 
HETATM   27  C   UNK N   1      21.202  18.746   4.181  0.00  0.00     0.150 C 
HETATM   28  C   UNK N   1      21.936  19.500   3.078  0.00  0.00     0.187 C 
HETATM   29  O   UNK N   1      23.033  20.167   3.628  0.00  0.00    -0.388 OA
HETATM   30  C   UNK N   1      23.966  19.149   3.850  0.00  0.00     0.187 C 
HETATM   31  C   UNK N   1      23.548  18.310   5.060  0.00  0.00     0.150 C 
ENDBRANCH   7  26
BRANCH   6  32
HETATM   32  C   UNK N   1      19.150  17.958   9.014  0.00  0.00     0.040 A 
HETATM   33  C   UNK N   1      17.880  17.461   9.313  0.00  0.00     0.122 A 
HETATM   34  N   UNK N   1      17.159  18.007  10.324  0.00  0.00    -0.201 N 
HETATM   35  C   UNK N   1      17.662  19.030  11.065  0.00  0.00     0.675 A 
HETATM   36  H   UNK N   1      16.260  17.657  10.524  0.00  0.00     0.183 HD
HETATM   37  N   UNK N   1      16.991  19.497  12.045  0.00  0.00    -0.234 N 
HETATM   38  N   UNK N   1      18.887  19.545  10.774  0.00  0.00    -0.201 N 
HETATM   39  H   UNK N   1      17.339  20.241  12.587  0.00  0.00     0.174 HD
ATOM     40  HN  UNK N   1      16.081  19.092  12.270  1.00  0.00     0.174 HD
HETATM   41  C   UNK N   1      19.638  19.026   9.769  0.00  0.00     0.122 A 
ATOM     42  HN  UNK N   1      19.245  20.330  11.317  1.00  0.00     0.183 HD
ENDBRANCH   6  32
TORSDOF 6
ENDMDL
MODEL 3
REMARK VINA RESULT:      -8.1      4.214      5.912
REMARK  6 active torsions:
REMARK  status: ('A' for Active; 'I' for Inactive)
REMARK    1  A    between atoms: C_17  and  C_13 
REMARK    2  A    between atoms: N_33  and  C_13 
REMARK    3  A    between atoms: C_22  and  C_15 
REMARK    4  A    between atoms: C_15  and  O_36 
REMARK    5  A    between atoms: C_20  and  C_16 
REMARK    6  A    between atoms: N_34  and  C_21 
REMARK       I    between atoms: N_35  and  C_22 
REMARK       I    between atoms: N_24  and  C_23 
ROOT
HETATM    1  C   UNK N   1      28.550  18.931   7.959  0.00  0.00     0.052 C 
HETATM    2  C   UNK N   1      28.758  17.867   6.936  0.00  0.00    -0.019 A 
HETATM    3  C   UNK N   1      29.892  17.044   6.883  0.00  0.00     0.020 A 
HETATM    4  C   UNK N   1      27.816  17.551   5.914  0.00  0.00     0.061 A 
HETATM    5  C   UNK N   1      28.195  16.495   5.097  0.00  0.00     0.076 A 
HETATM    6  C   UNK N   1      25.834  17.789   4.678  0.00  0.00     0.120 A 
HETATM    7  C   UNK N   1      27.339  16.021   4.097  0.00  0.00     0.124 A 
HETATM    8  N   UNK N   1      26.645  18.192   5.702  0.00  0.00    -0.340 N 
ATOM      9  HN  UNK N   1      26.370  18.970   6.301  1.00  0.00     0.167 HD
HETATM   10  N   UNK N   1      26.171  16.702   3.911  0.00  0.00    -0.327 N 
ATOM     11  HN  UNK N   1      25.530  16.394   3.180  1.00  0.00     0.169 HD
HETATM   12  S   UNK N   1      29.687  16.017   5.596  0.00  0.00    -0.086 SA
ENDROOT
BRANCH   3  13
HETATM   13  C   UNK N   1      31.075  17.012   7.808  0.00  0.00     0.319 C 
BRANCH  13  14
HETATM   14  N   UNK N   1      32.363  17.311   7.143  0.00  0.00     0.096 N 
HETATM   15  C   UNK N   1      32.984  16.073   6.667  0.00  0.00     0.292 C 
HETATM   16  C   UNK N   1      33.432  15.169   7.826  0.00  0.00     0.156 C 
HETATM   17  N   UNK N   1      34.174  15.893   8.850  0.00  0.00    -0.347 N 
HETATM   18  C   UNK N   1      33.791  17.247   9.171  0.00  0.00     0.156 C 
HETATM   19  C   UNK N   1      35.145  15.239   9.568  0.00  0.00     0.248 C 
HETATM   20  C   UNK N   1      33.360  18.040   7.939  0.00  0.00     0.292 C 
HETATM   21  O   UNK N   1      35.466  14.106   9.237  0.00  0.00    -0.270 OA
BRANCH  19  22
HETATM   22  C   UNK N   1      35.843  15.827  10.798  0.00  0.00     0.206 C 
HETATM   23  C   UNK N   1      35.537  14.992  12.025  0.00  0.00     0.049 C 
BRANCH  22  24
HETATM   24  O   UNK N   1      37.228  15.959  10.682  0.00  0.00    -0.387 OA
HETATM   25  H   UNK N   1      37.705  16.749  10.976  0.00  0.00     0.210 HD
ENDBRANCH  22  24
ENDBRANCH  19  22
ENDBRANCH  13  14
ENDBRANCH   3  13
BRANCH   7  26
HETATM   26  N   UNK N   1      27.634  14.870   3.288  0.00  0.00    -0.362 N 
HETATM   27  C   UNK N   1      28.623  14.948   2.214  0.00  0.00     0.150 C 
HETATM   28  C   UNK N   1      28.822  13.622   1.487  0.00  0.00     0.187 C 
HETATM   29  O   UNK N   1      28.806  12.581   2.417  0.00  0.00    -0.388 OA
HETATM   30  C   UNK N   1      27.453  12.444   2.742  0.00  0.00     0.187 C 
HETATM   31  C   UNK N   1      27.014  13.599   3.648  0.00  0.00     0.150 C 
ENDBRANCH   7  26
BRANCH   6  32
HETATM   32  C   UNK N   1      24.712  18.643   4.271  0.00  0.00     0.040 A 
HETATM   33  C   UNK N   1      24.944  19.830   3.573  0.00  0.00     0.122 A 
HETATM   34  N   UNK N   1      23.903  20.506   3.022  0.00  0.00    -0.201 N 
HETATM   35  C   UNK N   1      22.632  20.036   3.130  0.00  0.00     0.675 A 
HETATM   36  H   UNK N   1      24.072  21.347   2.539  0.00  0.00     0.183 HD
HETATM   37  N   UNK N   1      21.674  20.657   2.562  0.00  0.00    -0.234 N 
HETATM   38  N   UNK N   1      22.383  18.894   3.826  0.00  0.00    -0.201 N 
HETATM   39  H   UNK N   1      20.747  20.333   2.635  0.00  0.00     0.174 HD
ATOM     40  HN  UNK N   1      21.870  21.502   2.023  1.00  0.00     0.174 HD
HETATM   41  C   UNK N   1      23.397  18.191   4.392  0.00  0.00     0.122 A 
ATOM     42  HN  UNK N   1      21.424  18.564   3.925  1.00  0.00     0.183 HD
ENDBRANCH   6  32
TORSDOF 6
ENDMDL
MODEL 4
REMARK VINA RESULT:      -8.1      4.040     11.634
REMARK  6 active torsions:
REMARK  status: ('A' for Active; 'I' for Inactive)
REMARK    1  A    between atoms: C_17  and  C_13 
REMARK    2  A    between atoms: N_33  and  C_13 
REMARK    3  A    between atoms: C_22  and  C_15 
REMARK    4  A    between atoms: C_15  and  O_36 
REMARK    5  A    between atoms: C_20  and  C_16 
REMARK    6  A    between atoms: N_34  and  C_21 
REMARK       I    between atoms: N_35  and  C_22 
REMARK       I    between atoms: N_24  and  C_23 
ROOT
HETATM    1  C   UNK N   1      29.143  18.530   8.426  0.00  0.00     0.052 C 
HETATM    2  C   UNK N   1      29.649  17.667   7.322  0.00  0.00    -0.019 A 
HETATM    3  C   UNK N   1      28.964  17.460   6.115  0.00  0.00     0.020 A 
HETATM    4  C   UNK N   1      30.895  16.976   7.358  0.00  0.00     0.061 A 
HETATM    5  C   UNK N   1      31.187  16.266   6.202  0.00  0.00     0.076 A 
HETATM    6  C   UNK N   1      32.920  16.256   8.305  0.00  0.00     0.120 A 
HETATM    7  C   UNK N   1      32.409  15.599   6.061  0.00  0.00     0.124 A 
HETATM    8  N   UNK N   1      31.756  16.968   8.400  0.00  0.00    -0.340 N 
ATOM      9  HN  UNK N   1      31.538  17.488   9.250  1.00  0.00     0.167 HD
HETATM   10  N   UNK N   1      33.244  15.609   7.140  0.00  0.00    -0.327 N 
ATOM     11  HN  UNK N   1      34.137  15.119   7.077  1.00  0.00     0.169 HD
HETATM   12  S   UNK N   1      29.899  16.442   5.195  0.00  0.00    -0.086 SA
ENDROOT
BRANCH   3  13
HETATM   13  C   UNK N   1      27.661  18.051   5.659  0.00  0.00     0.319 C 
BRANCH  13  14
HETATM   14  N   UNK N   1      27.457  17.991   4.194  0.00  0.00     0.096 N 
HETATM   15  C   UNK N   1      27.136  19.322   3.675  0.00  0.00     0.292 C 
HETATM   16  C   UNK N   1      25.766  19.818   4.163  0.00  0.00     0.156 C 
HETATM   17  N   UNK N   1      24.719  18.815   4.015  0.00  0.00    -0.347 N 
HETATM   18  C   UNK N   1      25.041  17.425   4.233  0.00  0.00     0.156 C 
HETATM   19  C   UNK N   1      23.427  19.218   3.785  0.00  0.00     0.248 C 
HETATM   20  C   UNK N   1      26.429  17.058   3.712  0.00  0.00     0.292 C 
HETATM   21  O   UNK N   1      23.205  20.402   3.567  0.00  0.00    -0.270 OA
BRANCH  19  22
HETATM   22  C   UNK N   1      22.217  18.279   3.817  0.00  0.00     0.206 C 
HETATM   23  C   UNK N   1      21.521  18.365   5.160  0.00  0.00     0.049 C 
BRANCH  22  24
HETATM   24  O   UNK N   1      21.276  18.499   2.811  0.00  0.00    -0.387 OA
HETATM   25  H   UNK N   1      21.140  17.880   2.077  0.00  0.00     0.210 HD
ENDBRANCH  22  24
ENDBRANCH  19  22
ENDBRANCH  13  14
ENDBRANCH   3  13
BRANCH   7  26
HETATM   26  N   UNK N   1      32.807  14.932   4.852  0.00  0.00    -0.362 N 
HETATM   27  C   UNK N   1      32.349  13.573   4.564  0.00  0.00     0.150 C 
HETATM   28  C   UNK N   1      32.849  13.044   3.224  0.00  0.00     0.187 C 
HETATM   29  O   UNK N   1      32.797  14.068   2.277  0.00  0.00    -0.388 OA
HETATM   30  C   UNK N   1      33.886  14.883   2.605  0.00  0.00     0.187 C 
HETATM   31  C   UNK N   1      33.573  15.690   3.868  0.00  0.00     0.150 C 
ENDBRANCH   7  26
BRANCH   6  32
HETATM   32  C   UNK N   1      33.716  16.016   9.514  0.00  0.00     0.040 A 
HETATM   33  C   UNK N   1      33.506  14.869  10.283  0.00  0.00     0.122 A 
HETATM   34  N   UNK N   1      34.376  14.550  11.274  0.00  0.00    -0.201 N 
HETATM   35  C   UNK N   1      35.463  15.328  11.524  0.00  0.00     0.675 A 
HETATM   36  H   UNK N   1      34.218  13.745  11.818  0.00  0.00     0.183 HD
HETATM   37  N   UNK N   1      36.297  14.984  12.426  0.00  0.00    -0.234 N 
HETATM   38  N   UNK N   1      35.671  16.461  10.803  0.00  0.00    -0.201 N 
HETATM   39  H   UNK N   1      37.086  15.539  12.623  0.00  0.00     0.174 HD
ATOM     40  HN  UNK N   1      36.146  14.121  12.951  1.00  0.00     0.174 HD
HETATM   41  C   UNK N   1      34.823  16.815   9.804  0.00  0.00     0.122 A 
ATOM     42  HN  UNK N   1      36.474  17.053  11.016  1.00  0.00     0.183 HD
ENDBRANCH   6  32
TORSDOF 6
ENDMDL
MODEL 5
REMARK VINA RESULT:      -7.8      2.012      2.643
REMARK  6 active torsions:
REMARK  status: ('A' for Active; 'I' for Inactive)
REMARK    1  A    between atoms: C_17  and  C_13 
REMARK    2  A    between atoms: N_33  and  C_13 
REMARK    3  A    between atoms: C_22  and  C_15 
REMARK    4  A    between atoms: C_15  and  O_36 
REMARK    5  A    between atoms: C_20  and  C_16 
REMARK    6  A    between atoms: N_34  and  C_21 
REMARK       I    between atoms: N_35  and  C_22 
REMARK       I    between atoms: N_24  and  C_23 
ROOT
HETATM    1  C   UNK N   1      27.059  18.709   4.574  0.00  0.00     0.052 C 
HETATM    2  C   UNK N   1      26.238  17.559   5.048  0.00  0.00    -0.019 A 
HETATM    3  C   UNK N   1      26.767  16.435   5.698  0.00  0.00     0.020 A 
HETATM    4  C   UNK N   1      24.821  17.486   4.916  0.00  0.00     0.061 A 
HETATM    5  C   UNK N   1      24.255  16.345   5.467  0.00  0.00     0.076 A 
HETATM    6  C   UNK N   1      22.690  18.213   4.249  0.00  0.00     0.120 A 
HETATM    7  C   UNK N   1      22.867  16.168   5.481  0.00  0.00     0.124 A 
HETATM    8  N   UNK N   1      24.041  18.410   4.311  0.00  0.00    -0.340 N 
ATOM      9  HN  UNK N   1      24.459  19.246   3.903  1.00  0.00     0.167 HD
HETATM   10  N   UNK N   1      22.119  17.120   4.852  0.00  0.00    -0.327 N 
ATOM     11  HN  UNK N   1      21.104  17.016   4.829  1.00  0.00     0.169 HD
HETATM   12  S   UNK N   1      25.493  15.428   6.041  0.00  0.00    -0.086 SA
ENDROOT
BRANCH   3  13
HETATM   13  C   UNK N   1      28.192  16.155   6.083  0.00  0.00     0.319 C 
BRANCH  13  14
HETATM   14  N   UNK N   1      29.129  16.136   4.937  0.00  0.00     0.096 N 
HETATM   15  C   UNK N   1      29.881  14.880   4.922  0.00  0.00     0.292 C 
HETATM   16  C   UNK N   1      30.842  14.767   6.116  0.00  0.00     0.156 C 
HETATM   17  N   UNK N   1      31.635  15.973   6.317  0.00  0.00    -0.347 N 
HETATM   18  C   UNK N   1      31.032  17.260   6.066  0.00  0.00     0.156 C 
HETATM   19  C   UNK N   1      32.897  15.870   6.847  0.00  0.00     0.248 C 
HETATM   20  C   UNK N   1      30.094  17.241   4.861  0.00  0.00     0.292 C 
HETATM   21  O   UNK N   1      33.384  14.759   7.007  0.00  0.00    -0.270 OA
BRANCH  19  22
HETATM   22  C   UNK N   1      33.740  17.069   7.293  0.00  0.00     0.206 C 
HETATM   23  C   UNK N   1      34.647  16.675   8.441  0.00  0.00     0.049 C 
BRANCH  22  24
HETATM   24  O   UNK N   1      34.517  17.648   6.289  0.00  0.00    -0.387 OA
HETATM   25  H   UNK N   1      35.104  18.402   6.450  0.00  0.00     0.210 HD
ENDBRANCH  22  24
ENDBRANCH  19  22
ENDBRANCH  13  14
ENDBRANCH   3  13
BRANCH   7  26
HETATM   26  N   UNK N   1      22.221  15.058   6.125  0.00  0.00    -0.362 N 
HETATM   27  C   UNK N   1      21.737  15.172   7.501  0.00  0.00     0.150 C 
HETATM   28  C   UNK N   1      21.054  13.905   8.002  0.00  0.00     0.187 C 
HETATM   29  O   UNK N   1      20.275  13.366   6.976  0.00  0.00    -0.388 OA
HETATM   30  C   UNK N   1      21.211  12.779   6.119  0.00  0.00     0.187 C 
HETATM   31  C   UNK N   1      21.951  13.864   5.331  0.00  0.00     0.150 C 
ENDBRANCH   7  26
BRANCH   6  32
HETATM   32  C   UNK N   1      21.880  19.056   3.363  0.00  0.00     0.040 A 
HETATM   33  C   UNK N   1      22.238  20.386   3.129  0.00  0.00     0.122 A 
HETATM   34  N   UNK N   1      21.611  21.096   2.157  0.00  0.00    -0.201 N 
HETATM   35  C   UNK N   1      20.642  20.525   1.393  0.00  0.00     0.675 A 
HETATM   36  H   UNK N   1      21.862  22.035   2.004  0.00  0.00     0.183 HD
HETATM   37  N   UNK N   1      20.101  21.192   0.449  0.00  0.00    -0.234 N 
HETATM   38  N   UNK N   1      20.263  19.239   1.620  0.00  0.00    -0.201 N 
HETATM   39  H   UNK N   1      19.394  20.794  -0.109  0.00  0.00     0.174 HD
ATOM     40  HN  UNK N   1      20.404  22.150   0.271  1.00  0.00     0.174 HD
HETATM   41  C   UNK N   1      20.865  18.497   2.585  0.00  0.00     0.122 A 
ATOM     42  HN  UNK N   1      19.516  18.828   1.061  1.00  0.00     0.183 HD
ENDBRANCH   6  32
TORSDOF 6
ENDMDL
MODEL 6
REMARK VINA RESULT:      -7.8     13.065     14.471
REMARK  6 active torsions:
REMARK  status: ('A' for Active; 'I' for Inactive)
REMARK    1  A    between atoms: C_17  and  C_13 
REMARK    2  A    between atoms: N_33  and  C_13 
REMARK    3  A    between atoms: C_22  and  C_15 
REMARK    4  A    between atoms: C_15  and  O_36 
REMARK    5  A    between atoms: C_20  and  C_16 
REMARK    6  A    between atoms: N_34  and  C_21 
REMARK       I    between atoms: N_35  and  C_22 
REMARK       I    between atoms: N_24  and  C_23 
ROOT
HETATM    1  C   UNK N   1      30.458  23.262  -2.627  0.00  0.00     0.052 C 
HETATM    2  C   UNK N   1      29.949  22.856  -3.967  0.00  0.00    -0.019 A 
HETATM    3  C   UNK N   1      30.427  21.749  -4.683  0.00  0.00     0.020 A 
HETATM    4  C   UNK N   1      28.904  23.533  -4.660  0.00  0.00     0.061 A 
HETATM    5  C   UNK N   1      28.558  22.958  -5.874  0.00  0.00     0.076 A 
HETATM    6  C   UNK N   1      27.283  25.200  -4.995  0.00  0.00     0.120 A 
HETATM    7  C   UNK N   1      27.497  23.466  -6.632  0.00  0.00     0.124 A 
HETATM    8  N   UNK N   1      28.270  24.647  -4.227  0.00  0.00    -0.340 N 
ATOM      9  HN  UNK N   1      28.528  25.070  -3.336  1.00  0.00     0.167 HD
HETATM   10  N   UNK N   1      26.892  24.596  -6.163  0.00  0.00    -0.327 N 
ATOM     11  HN  UNK N   1      26.125  25.004  -6.698  1.00  0.00     0.169 HD
HETATM   12  S   UNK N   1      29.572  21.684  -6.105  0.00  0.00    -0.086 SA
ENDROOT
BRANCH   3  13
HETATM   13  C   UNK N   1      31.471  20.747  -4.280  0.00  0.00     0.319 C 
BRANCH  13  14
HETATM   14  N   UNK N   1      32.858  21.256  -4.379  0.00  0.00     0.096 N 
HETATM   15  C   UNK N   1      33.306  21.229  -5.773  0.00  0.00     0.292 C 
HETATM   16  C   UNK N   1      33.458  19.795  -6.304  0.00  0.00     0.156 C 
HETATM   17  N   UNK N   1      34.194  18.932  -5.389  0.00  0.00    -0.347 N 
HETATM   18  C   UNK N   1      34.017  19.100  -3.967  0.00  0.00     0.156 C 
HETATM   19  C   UNK N   1      34.951  17.903  -5.894  0.00  0.00     0.248 C 
HETATM   20  C   UNK N   1      33.869  20.567  -3.566  0.00  0.00     0.292 C 
HETATM   21  O   UNK N   1      35.107  17.821  -7.105  0.00  0.00    -0.270 OA
BRANCH  19  22
HETATM   22  C   UNK N   1      35.598  16.812  -5.035  0.00  0.00     0.206 C 
HETATM   23  C   UNK N   1      35.655  15.506  -5.800  0.00  0.00     0.049 C 
BRANCH  22  24
HETATM   24  O   UNK N   1      36.878  17.113  -4.568  0.00  0.00    -0.387 OA
HETATM   25  H   UNK N   1      37.331  17.943  -4.782  0.00  0.00     0.210 HD
ENDBRANCH  22  24
ENDBRANCH  19  22
ENDBRANCH  13  14
ENDBRANCH   3  13
BRANCH   7  26
HETATM   26  N   UNK N   1      27.031  22.854  -7.845  0.00  0.00    -0.362 N 
HETATM   27  C   UNK N   1      26.049  21.771  -7.803  0.00  0.00     0.150 C 
HETATM   28  C   UNK N   1      25.653  21.268  -9.187  0.00  0.00     0.187 C 
HETATM   29  O   UNK N   1      25.533  22.355 -10.054  0.00  0.00    -0.388 OA
HETATM   30  C   UNK N   1      26.857  22.713 -10.328  0.00  0.00     0.187 C 
HETATM   31  C   UNK N   1      27.468  23.422  -9.116  0.00  0.00     0.150 C 
ENDBRANCH   7  26
BRANCH   6  32
HETATM   32  C   UNK N   1      26.792  26.545  -4.675  0.00  0.00     0.040 A 
HETATM   33  C   UNK N   1      26.286  26.830  -3.405  0.00  0.00     0.122 A 
HETATM   34  N   UNK N   1      26.027  28.114  -3.051  0.00  0.00    -0.201 N 
HETATM   35  C   UNK N   1      26.267  29.136  -3.915  0.00  0.00     0.675 A 
HETATM   36  H   UNK N   1      25.662  28.308  -2.157  0.00  0.00     0.183 HD
HETATM   37  N   UNK N   1      26.066  30.341  -3.547  0.00  0.00    -0.234 N 
HETATM   38  N   UNK N   1      26.737  28.877  -5.165  0.00  0.00    -0.201 N 
HETATM   39  H   UNK N   1      26.230  31.092  -4.163  0.00  0.00     0.174 HD
ATOM     40  HN  UNK N   1      25.733  30.530  -2.601  1.00  0.00     0.174 HD
HETATM   41  C   UNK N   1      27.007  27.606  -5.556  0.00  0.00     0.122 A 
ATOM     42  HN  UNK N   1      26.887  29.648  -5.816  1.00  0.00     0.183 HD
ENDBRANCH   6  32
TORSDOF 6
ENDMDL
MODEL 7
REMARK VINA RESULT:      -7.6      3.365     10.889
REMARK  6 active torsions:
REMARK  status: ('A' for Active; 'I' for Inactive)
REMARK    1  A    between atoms: C_17  and  C_13 
REMARK    2  A    between atoms: N_33  and  C_13 
REMARK    3  A    between atoms: C_22  and  C_15 
REMARK    4  A    between atoms: C_15  and  O_36 
REMARK    5  A    between atoms: C_20  and  C_16 
REMARK    6  A    between atoms: N_34  and  C_21 
REMARK       I    between atoms: N_35  and  C_22 
REMARK       I    between atoms: N_24  and  C_23 
ROOT
HETATM    1  C   UNK N   1      27.574  18.977   6.257  0.00  0.00     0.052 C 
HETATM    2  C   UNK N   1      27.920  17.704   5.562  0.00  0.00    -0.019 A 
HETATM    3  C   UNK N   1      27.074  17.055   4.651  0.00  0.00     0.020 A 
HETATM    4  C   UNK N   1      29.159  17.019   5.727  0.00  0.00     0.061 A 
HETATM    5  C   UNK N   1      29.286  15.877   4.949  0.00  0.00     0.076 A 
HETATM    6  C   UNK N   1      31.296  16.641   6.623  0.00  0.00     0.120 A 
HETATM    7  C   UNK N   1      30.477  15.141   4.947  0.00  0.00     0.124 A 
HETATM    8  N   UNK N   1      30.157  17.395   6.557  0.00  0.00    -0.340 N 
ATOM      9  HN  UNK N   1      30.060  18.233   7.130  1.00  0.00     0.167 HD
HETATM   10  N   UNK N   1      31.455  15.550   5.807  0.00  0.00    -0.327 N 
ATOM     11  HN  UNK N   1      32.330  15.028   5.843  1.00  0.00     0.169 HD
HETATM   12  S   UNK N   1      27.871  15.694   4.133  0.00  0.00    -0.086 SA
ENDROOT
BRANCH   3  13
HETATM   13  C   UNK N   1      25.720  17.479   4.158  0.00  0.00     0.319 C 
BRANCH  13  14
HETATM   14  N   UNK N   1      24.642  17.324   5.162  0.00  0.00     0.096 N 
HETATM   15  C   UNK N   1      24.110  15.960   5.124  0.00  0.00     0.292 C 
HETATM   16  C   UNK N   1      23.363  15.668   3.813  0.00  0.00     0.156 C 
HETATM   17  N   UNK N   1      22.422  16.721   3.455  0.00  0.00    -0.347 N 
HETATM   18  C   UNK N   1      22.765  18.095   3.734  0.00  0.00     0.156 C 
HETATM   19  C   UNK N   1      21.284  16.399   2.758  0.00  0.00     0.248 C 
HETATM   20  C   UNK N   1      23.509  18.254   5.058  0.00  0.00     0.292 C 
HETATM   21  O   UNK N   1      21.012  15.220   2.577  0.00  0.00    -0.270 OA
BRANCH  19  22
HETATM   22  C   UNK N   1      20.330  17.433   2.150  0.00  0.00     0.206 C 
HETATM   23  C   UNK N   1      20.015  17.074   0.712  0.00  0.00     0.049 C 
BRANCH  22  24
HETATM   24  O   UNK N   1      19.130  17.603   2.840  0.00  0.00    -0.387 OA
HETATM   25  H   UNK N   1      18.817  18.470   3.140  0.00  0.00     0.210 HD
ENDBRANCH  22  24
ENDBRANCH  19  22
ENDBRANCH  13  14
ENDBRANCH   3  13
BRANCH   7  26
HETATM   26  N   UNK N   1      30.702  14.011   4.090  0.00  0.00    -0.362 N 
HETATM   27  C   UNK N   1      31.593  14.117   2.935  0.00  0.00     0.150 C 
HETATM   28  C   UNK N   1      31.731  12.808   2.163  0.00  0.00     0.187 C 
HETATM   29  O   UNK N   1      31.798  11.746   3.067  0.00  0.00    -0.388 OA
HETATM   30  C   UNK N   1      30.479  11.597   3.506  0.00  0.00     0.187 C 
HETATM   31  C   UNK N   1      30.118  12.729   4.473  0.00  0.00     0.150 C 
ENDBRANCH   7  26
BRANCH   6  32
HETATM   32  C   UNK N   1      32.253  16.878   7.709  0.00  0.00     0.040 A 
HETATM   33  C   UNK N   1      32.402  15.946   8.738  0.00  0.00     0.122 A 
HETATM   34  N   UNK N   1      33.425  16.069   9.621  0.00  0.00    -0.201 N 
HETATM   35  C   UNK N   1      34.321  17.086   9.512  0.00  0.00     0.675 A 
HETATM   36  H   UNK N   1      33.519  15.413  10.350  0.00  0.00     0.183 HD
HETATM   37  N   UNK N   1      35.306  17.155  10.321  0.00  0.00    -0.234 N 
HETATM   38  N   UNK N   1      34.179  18.017   8.532  0.00  0.00    -0.201 N 
HETATM   39  H   UNK N   1      35.960  17.889  10.258  0.00  0.00     0.174 HD
ATOM     40  HN  UNK N   1      35.417  16.441  11.041  1.00  0.00     0.174 HD
HETATM   41  C   UNK N   1      33.168  17.930   7.630  0.00  0.00     0.122 A 
ATOM     42  HN  UNK N   1      34.840  18.792   8.475  1.00  0.00     0.183 HD
ENDBRANCH   6  32
TORSDOF 6
ENDMDL
MODEL 8
REMARK VINA RESULT:      -7.4      6.613     10.314
REMARK  6 active torsions:
REMARK  status: ('A' for Active; 'I' for Inactive)
REMARK    1  A    between atoms: C_17  and  C_13 
REMARK    2  A    between atoms: N_33  and  C_13 
REMARK    3  A    between atoms: C_22  and  C_15 
REMARK    4  A    between atoms: C_15  and  O_36 
REMARK    5  A    between atoms: C_20  and  C_16 
REMARK    6  A    between atoms: N_34  and  C_21 
REMARK       I    between atoms: N_35  and  C_22 
REMARK       I    between atoms: N_24  and  C_23 
ROOT
HETATM    1  C   UNK N   1      32.099  15.175   9.828  0.00  0.00     0.052 C 
HETATM    2  C   UNK N   1      32.667  14.698   8.536  0.00  0.00    -0.019 A 
HETATM    3  C   UNK N   1      33.778  13.848   8.436  0.00  0.00     0.020 A 
HETATM    4  C   UNK N   1      32.130  15.033   7.259  0.00  0.00     0.061 A 
HETATM    5  C   UNK N   1      32.789  14.442   6.191  0.00  0.00     0.076 A 
HETATM    6  C   UNK N   1      30.666  16.094   5.760  0.00  0.00     0.120 A 
HETATM    7  C   UNK N   1      32.330  14.616   4.880  0.00  0.00     0.124 A 
HETATM    8  N   UNK N   1      31.078  15.853   7.042  0.00  0.00    -0.340 N 
ATOM      9  HN  UNK N   1      30.596  16.289   7.828  1.00  0.00     0.167 HD
HETATM   10  N   UNK N   1      31.271  15.459   4.706  0.00  0.00    -0.327 N 
ATOM     11  HN  UNK N   1      30.920  15.622   3.762  1.00  0.00     0.169 HD
HETATM   12  S   UNK N   1      34.043  13.584   6.818  0.00  0.00    -0.086 SA
ENDROOT
BRANCH   3  13
HETATM   13  C   UNK N   1      34.586  13.222   9.536  0.00  0.00     0.319 C 
BRANCH  13  14
HETATM   14  N   UNK N   1      35.936  13.808   9.696  0.00  0.00     0.096 N 
HETATM   15  C   UNK N   1      36.903  12.761  10.033  0.00  0.00     0.292 C 
HETATM   16  C   UNK N   1      36.651  12.170  11.428  0.00  0.00     0.156 C 
HETATM   17  N   UNK N   1      36.451  13.193  12.446  0.00  0.00    -0.347 N 
HETATM   18  C   UNK N   1      35.744  14.402  12.097  0.00  0.00     0.156 C 
HETATM   19  C   UNK N   1      36.834  12.942  13.740  0.00  0.00     0.248 C 
HETATM   20  C   UNK N   1      36.072  14.885  10.686  0.00  0.00     0.292 C 
HETATM   21  O   UNK N   1      37.466  11.923  13.984  0.00  0.00    -0.270 OA
BRANCH  19  22
HETATM   22  C   UNK N   1      36.492  13.848  14.927  0.00  0.00     0.206 C 
HETATM   23  C   UNK N   1      35.787  13.053  16.007  0.00  0.00     0.049 C 
BRANCH  22  24
HETATM   24  O   UNK N   1      37.582  14.507  15.497  0.00  0.00    -0.387 OA
HETATM   25  H   UNK N   1      38.407  14.053  15.727  0.00  0.00     0.210 HD
ENDBRANCH  22  24
ENDBRANCH  19  22
ENDBRANCH  13  14
ENDBRANCH   3  13
BRANCH   7  26
HETATM   26  N   UNK N   1      32.911  13.950   3.747  0.00  0.00    -0.362 N 
HETATM   27  C   UNK N   1      32.248  12.796   3.140  0.00  0.00     0.150 C 
HETATM   28  C   UNK N   1      32.996  12.243   1.932  0.00  0.00     0.187 C 
HETATM   29  O   UNK N   1      33.496  13.304   1.175  0.00  0.00    -0.388 OA
HETATM   30  C   UNK N   1      34.592  13.757   1.916  0.00  0.00     0.187 C 
HETATM   31  C   UNK N   1      34.108  14.531   3.146  0.00  0.00     0.150 C 
ENDBRANCH   7  26
BRANCH   6  32
HETATM   32  C   UNK N   1      29.720  17.186   5.503  0.00  0.00     0.040 A 
HETATM   33  C   UNK N   1      29.316  17.479   4.199  0.00  0.00     0.122 A 
HETATM   34  N   UNK N   1      28.293  18.345   3.985  0.00  0.00    -0.201 N 
HETATM   35  C   UNK N   1      27.643  18.926   5.029  0.00  0.00     0.675 A 
HETATM   36  H   UNK N   1      28.018  18.555   3.063  0.00  0.00     0.183 HD
HETATM   37  N   UNK N   1      26.650  19.697   4.810  0.00  0.00    -0.234 N 
HETATM   38  N   UNK N   1      28.037  18.672   6.305  0.00  0.00    -0.201 N 
HETATM   39  H   UNK N   1      26.172  20.130   5.555  0.00  0.00     0.174 HD
ATOM     40  HN  UNK N   1      26.346  19.868   3.851  1.00  0.00     0.174 HD
HETATM   41  C   UNK N   1      29.057  17.812   6.560  0.00  0.00     0.122 A 
ATOM     42  HN  UNK N   1      27.562  19.133   7.081  1.00  0.00     0.183 HD
ENDBRANCH   6  32
TORSDOF 6
ENDMDL
MODEL 9
REMARK VINA RESULT:      -7.3      3.869     10.359
REMARK  6 active torsions:
REMARK  status: ('A' for Active; 'I' for Inactive)
REMARK    1  A    between atoms: C_17  and  C_13 
REMARK    2  A    between atoms: N_33  and  C_13 
REMARK    3  A    between atoms: C_22  and  C_15 
REMARK    4  A    between atoms: C_15  and  O_36 
REMARK    5  A    between atoms: C_20  and  C_16 
REMARK    6  A    between atoms: N_34  and  C_21 
REMARK       I    between atoms: N_35  and  C_22 
REMARK       I    between atoms: N_24  and  C_23 
ROOT
HETATM    1  C   UNK N   1      27.526  14.981   1.760  0.00  0.00     0.052 C 
HETATM    2  C   UNK N   1      28.130  15.731   2.898  0.00  0.00    -0.019 A 
HETATM    3  C   UNK N   1      27.444  16.695   3.650  0.00  0.00     0.020 A 
HETATM    4  C   UNK N   1      29.462  15.534   3.362  0.00  0.00     0.061 A 
HETATM    5  C   UNK N   1      29.802  16.308   4.463  0.00  0.00     0.076 A 
HETATM    6  C   UNK N   1      31.617  14.600   3.361  0.00  0.00     0.120 A 
HETATM    7  C   UNK N   1      31.051  16.169   5.078  0.00  0.00     0.124 A 
HETATM    8  N   UNK N   1      30.366  14.689   2.817  0.00  0.00    -0.340 N 
ATOM      9  HN  UNK N   1      30.115  14.123   2.006  1.00  0.00     0.167 HD
HETATM   10  N   UNK N   1      31.936  15.312   4.490  0.00  0.00    -0.327 N 
ATOM     11  HN  UNK N   1      32.862  15.198   4.902  1.00  0.00     0.169 HD
HETATM   12  S   UNK N   1      28.501  17.255   4.801  0.00  0.00    -0.086 SA
ENDROOT
BRANCH   3  13
HETATM   13  C   UNK N   1      26.017  17.146   3.525  0.00  0.00     0.319 C 
BRANCH  13  14
HETATM   14  N   UNK N   1      25.453  17.701   4.777  0.00  0.00     0.096 N 
HETATM   15  C   UNK N   1      24.262  16.945   5.171  0.00  0.00     0.292 C 
HETATM   16  C   UNK N   1      23.099  17.145   4.187  0.00  0.00     0.156 C 
HETATM   17  N   UNK N   1      22.875  18.546   3.857  0.00  0.00    -0.347 N 
HETATM   18  C   UNK N   1      24.009  19.430   3.736  0.00  0.00     0.156 C 
HETATM   19  C   UNK N   1      21.605  18.974   3.556  0.00  0.00     0.248 C 
HETATM   20  C   UNK N   1      25.099  19.126   4.762  0.00  0.00     0.292 C 
HETATM   21  O   UNK N   1      20.668  18.203   3.711  0.00  0.00    -0.270 OA
BRANCH  19  22
HETATM   22  C   UNK N   1      21.278  20.363   2.999  0.00  0.00     0.206 C 
HETATM   23  C   UNK N   1      20.861  20.260   1.546  0.00  0.00     0.049 C 
BRANCH  22  24
HETATM   24  O   UNK N   1      20.291  21.059   3.698  0.00  0.00    -0.387 OA
HETATM   25  H   UNK N   1      20.499  21.729   4.368  0.00  0.00     0.210 HD
ENDBRANCH  22  24
ENDBRANCH  19  22
ENDBRANCH  13  14
ENDBRANCH   3  13
BRANCH   7  26
HETATM   26  N   UNK N   1      31.421  16.869   6.277  0.00  0.00    -0.362 N 
HETATM   27  C   UNK N   1      30.505  16.933   7.416  0.00  0.00     0.150 C 
HETATM   28  C   UNK N   1      31.082  17.691   8.607  0.00  0.00     0.187 C 
HETATM   29  O   UNK N   1      32.432  17.365   8.748  0.00  0.00    -0.388 OA
HETATM   30  C   UNK N   1      33.058  18.077   7.719  0.00  0.00     0.187 C 
HETATM   31  C   UNK N   1      32.776  17.404   6.373  0.00  0.00     0.150 C 
ENDBRANCH   7  26
BRANCH   6  32
HETATM   32  C   UNK N   1      32.676  13.907   2.618  0.00  0.00     0.040 A 
HETATM   33  C   UNK N   1      32.404  12.716   1.943  0.00  0.00     0.122 A 
HETATM   34  N   UNK N   1      33.325  12.192   1.094  0.00  0.00    -0.201 N 
HETATM   35  C   UNK N   1      34.512  12.821   0.881  0.00  0.00     0.675 A 
HETATM   36  H   UNK N   1      33.130  11.347   0.628  0.00  0.00     0.183 HD
HETATM   37  N   UNK N   1      35.344  12.341   0.041  0.00  0.00    -0.234 N 
HETATM   38  N   UNK N   1      34.805  13.969   1.548  0.00  0.00    -0.201 N 
HETATM   39  H   UNK N   1      36.210  12.781  -0.120  0.00  0.00     0.174 HD
ATOM     40  HN  UNK N   1      35.108  11.490  -0.471  1.00  0.00     0.174 HD
HETATM   41  C   UNK N   1      33.911  14.523   2.406  0.00  0.00     0.122 A 
ATOM     42  HN  UNK N   1      35.709  14.418   1.403  1.00  0.00     0.183 HD
ENDBRANCH   6  32
TORSDOF 6
ENDMDL
