MODEL 1
REMARK VINA RESULT:      -7.8      0.000      0.000
REMARK  3 active torsions:
REMARK  status: ('A' for Active; 'I' for Inactive)
REMARK    1  A    between atoms: C_19  and  C_20 
REMARK    2  A    between atoms: C_20  and  C_22 
REMARK    3  A    between atoms: C_22  and  O_23 
ROOT
HETATM    1  C   UNK N   1      30.745  16.020   6.519  0.00  0.00     0.025 C 
HETATM    2  C   UNK N   1      32.220  15.698   6.303  0.00  0.00     0.003 C 
HETATM    3  C   UNK N   1      32.346  14.644   5.184  0.00  0.00     0.026 C 
HETATM    4  C   UNK N   1      31.889  15.156   3.814  0.00  0.00     0.084 C 
HETATM    5  C   UNK N   1      32.370  16.554   3.538  0.00  0.00     0.149 C 
HETATM    6  O   UNK N   1      32.254  17.020   2.419  0.00  0.00    -0.293 OA
HETATM    7  C   UNK N   1      32.952  17.382   4.613  0.00  0.00     0.054 C 
HETATM    8  C   UNK N   1      32.943  16.978   5.891  0.00  0.00    -0.064 C 
HETATM    9  C   UNK N   1      33.474  17.929   6.932  0.00  0.00     0.036 C 
HETATM   10  C   UNK N   1      32.887  17.627   8.310  0.00  0.00     0.014 C 
HETATM   11  C   UNK N   1      33.151  16.180   8.734  0.00  0.00     0.020 C 
HETATM   12  C   UNK N   1      32.800  15.197   7.625  0.00  0.00    -0.067 C 
HETATM   13  C   UNK N   1      33.152  13.906   7.803  0.00  0.00    -0.022 C 
HETATM   14  C   UNK N   1      33.802  13.496   9.099  0.00  0.00     0.040 C 
HETATM   15  C   UNK N   1      34.915  14.494   9.500  0.00  0.00     0.002 C 
HETATM   16  C   UNK N   1      34.636  15.946   9.054  0.00  0.00     0.006 C 
HETATM   17  C   UNK N   1      35.197  16.850  10.154  0.00  0.00     0.009 C 
HETATM   18  C   UNK N   1      35.860  15.915  11.160  0.00  0.00     0.047 C 
HETATM   19  C   UNK N   1      35.077  14.619  11.032  0.00  0.00     0.128 C 
HETATM   20  O   UNK N   1      33.824  14.817  11.628  0.00  0.00    -0.381 OA
HETATM   21  C   UNK N   1      36.219  14.087   8.811  0.00  0.00     0.019 C 
HETATM   22  H   UNK N   1      32.986  14.913  12.106  0.00  0.00     0.211 HD
ENDROOT
BRANCH  19  23
HETATM   23  C   UNK N   1      35.756  13.453  11.733  0.00  0.00     0.184 C 
HETATM   24  O   UNK N   1      36.962  13.458  11.927  0.00  0.00    -0.292 OA
BRANCH  23  25
HETATM   25  C   UNK N   1      34.965  12.257  12.163  0.00  0.00     0.245 C 
BRANCH  25  26
HETATM   26  O   UNK N   1      34.297  12.523  13.360  0.00  0.00    -0.393 OA
HETATM   27  H   UNK N   1      33.426  12.167  13.597  0.00  0.00     0.209 HD
ENDBRANCH  25  26
ENDBRANCH  23  25
ENDBRANCH  19  23
TORSDOF 3
ENDMDL
MODEL 2
REMARK VINA RESULT:      -7.3      2.838      4.558
REMARK  3 active torsions:
REMARK  status: ('A' for Active; 'I' for Inactive)
REMARK    1  A    between atoms: C_19  and  C_20 
REMARK    2  A    between atoms: C_20  and  C_22 
REMARK    3  A    between atoms: C_22  and  O_23 
ROOT
HETATM    1  C   UNK N   1      28.948  18.124   4.968  0.00  0.00     0.025 C 
HETATM    2  C   UNK N   1      29.187  16.945   5.906  0.00  0.00     0.003 C 
HETATM    3  C   UNK N   1      28.050  16.889   6.946  0.00  0.00     0.026 C 
HETATM    4  C   UNK N   1      26.680  16.581   6.330  0.00  0.00     0.084 C 
HETATM    5  C   UNK N   1      26.752  15.499   5.289  0.00  0.00     0.149 C 
HETATM    6  O   UNK N   1      25.723  15.012   4.856  0.00  0.00    -0.293 OA
HETATM    7  C   UNK N   1      28.052  15.039   4.761  0.00  0.00     0.054 C 
HETATM    8  C   UNK N   1      29.197  15.660   5.080  0.00  0.00    -0.064 C 
HETATM    9  C   UNK N   1      30.463  15.180   4.421  0.00  0.00     0.036 C 
HETATM   10  C   UNK N   1      31.525  16.279   4.394  0.00  0.00     0.014 C 
HETATM   11  C   UNK N   1      31.829  16.808   5.797  0.00  0.00     0.020 C 
HETATM   12  C   UNK N   1      30.553  17.127   6.565  0.00  0.00    -0.067 C 
HETATM   13  C   UNK N   1      30.675  17.432   7.874  0.00  0.00    -0.022 C 
HETATM   14  C   UNK N   1      32.051  17.510   8.484  0.00  0.00     0.040 C 
HETATM   15  C   UNK N   1      32.914  16.298   8.056  0.00  0.00     0.002 C 
HETATM   16  C   UNK N   1      32.585  15.771   6.642  0.00  0.00     0.006 C 
HETATM   17  C   UNK N   1      33.912  15.306   6.036  0.00  0.00     0.009 C 
HETATM   18  C   UNK N   1      34.955  15.490   7.133  0.00  0.00     0.047 C 
HETATM   19  C   UNK N   1      34.418  16.643   7.964  0.00  0.00     0.128 C 
HETATM   20  O   UNK N   1      34.591  17.820   7.222  0.00  0.00    -0.381 OA
HETATM   21  C   UNK N   1      32.645  15.134   9.010  0.00  0.00     0.019 C 
HETATM   22  H   UNK N   1      34.777  18.650   6.756  0.00  0.00     0.211 HD
ENDROOT
BRANCH  19  23
HETATM   23  C   UNK N   1      35.152  16.803   9.286  0.00  0.00     0.184 C 
HETATM   24  O   UNK N   1      35.310  17.908   9.782  0.00  0.00    -0.292 OA
BRANCH  23  25
HETATM   25  C   UNK N   1      35.731  15.613   9.986  0.00  0.00     0.245 C 
BRANCH  25  26
HETATM   26  O   UNK N   1      36.849  15.987  10.734  0.00  0.00    -0.393 OA
HETATM   27  H   UNK N   1      36.844  16.152  11.690  0.00  0.00     0.209 HD
ENDBRANCH  25  26
ENDBRANCH  23  25
ENDBRANCH  19  23
TORSDOF 3
ENDMDL
MODEL 3
REMARK VINA RESULT:      -7.2     17.877     20.535
REMARK  3 active torsions:
REMARK  status: ('A' for Active; 'I' for Inactive)
REMARK    1  A    between atoms: C_19  and  C_20 
REMARK    2  A    between atoms: C_20  and  C_22 
REMARK    3  A    between atoms: C_22  and  O_23 
ROOT
HETATM    1  C   UNK N   1      25.303  27.867  -4.804  0.00  0.00     0.025 C 
HETATM    2  C   UNK N   1      26.571  27.402  -5.512  0.00  0.00     0.003 C 
HETATM    3  C   UNK N   1      27.279  28.625  -6.133  0.00  0.00     0.026 C 
HETATM    4  C   UNK N   1      27.799  29.619  -5.088  0.00  0.00     0.084 C 
HETATM    5  C   UNK N   1      28.450  28.932  -3.921  0.00  0.00     0.149 C 
HETATM    6  O   UNK N   1      29.080  29.589  -3.111  0.00  0.00    -0.293 OA
HETATM    7  C   UNK N   1      28.310  27.476  -3.722  0.00  0.00     0.054 C 
HETATM    8  C   UNK N   1      27.488  26.741  -4.486  0.00  0.00    -0.064 C 
HETATM    9  C   UNK N   1      27.338  25.280  -4.151  0.00  0.00     0.036 C 
HETATM   10  C   UNK N   1      26.009  24.727  -4.663  0.00  0.00     0.014 C 
HETATM   11  C   UNK N   1      25.848  24.942  -6.170  0.00  0.00     0.020 C 
HETATM   12  C   UNK N   1      26.179  26.373  -6.571  0.00  0.00    -0.067 C 
HETATM   13  C   UNK N   1      26.250  26.649  -7.890  0.00  0.00    -0.022 C 
HETATM   14  C   UNK N   1      25.935  25.561  -8.884  0.00  0.00     0.040 C 
HETATM   15  C   UNK N   1      26.639  24.237  -8.498  0.00  0.00     0.002 C 
HETATM   16  C   UNK N   1      26.802  24.045  -6.974  0.00  0.00     0.006 C 
HETATM   17  C   UNK N   1      26.636  22.546  -6.710  0.00  0.00     0.009 C 
HETATM   18  C   UNK N   1      26.470  21.900  -8.081  0.00  0.00     0.047 C 
HETATM   19  C   UNK N   1      25.836  22.990  -8.929  0.00  0.00     0.128 C 
HETATM   20  O   UNK N   1      24.500  23.122  -8.526  0.00  0.00    -0.381 OA
HETATM   21  C   UNK N   1      28.056  24.242  -9.073  0.00  0.00     0.019 C 
HETATM   22  H   UNK N   1      23.555  23.168  -8.313  0.00  0.00     0.211 HD
ENDROOT
BRANCH  19  23
HETATM   23  C   UNK N   1      25.853  22.660 -10.413  0.00  0.00     0.184 C 
HETATM   24  O   UNK N   1      25.538  23.499 -11.242  0.00  0.00    -0.292 OA
BRANCH  23  25
HETATM   25  C   UNK N   1      26.219  21.287 -10.886  0.00  0.00     0.245 C 
BRANCH  25  26
HETATM   26  O   UNK N   1      25.068  20.545 -11.157  0.00  0.00    -0.393 OA
HETATM   27  H   UNK N   1      24.437  20.744 -11.867  0.00  0.00     0.209 HD
ENDBRANCH  25  26
ENDBRANCH  23  25
ENDBRANCH  19  23
TORSDOF 3
ENDMDL
MODEL 4
REMARK VINA RESULT:      -7.1     10.346     13.883
REMARK  3 active torsions:
REMARK  status: ('A' for Active; 'I' for Inactive)
REMARK    1  A    between atoms: C_19  and  C_20 
REMARK    2  A    between atoms: C_20  and  C_22 
REMARK    3  A    between atoms: C_22  and  O_23 
ROOT
HETATM    1  C   UNK N   1      21.607  11.964   7.439  0.00  0.00     0.025 C 
HETATM    2  C   UNK N   1      21.747  13.393   7.953  0.00  0.00     0.003 C 
HETATM    3  C   UNK N   1      20.782  13.599   9.139  0.00  0.00     0.026 C 
HETATM    4  C   UNK N   1      21.134  12.744  10.363  0.00  0.00     0.084 C 
HETATM    5  C   UNK N   1      22.612  12.724  10.638  0.00  0.00     0.149 C 
HETATM    6  O   UNK N   1      23.023  12.252  11.683  0.00  0.00    -0.293 OA
HETATM    7  C   UNK N   1      23.576  13.237   9.645  0.00  0.00     0.054 C 
HETATM    8  C   UNK N   1      23.187  13.606   8.415  0.00  0.00    -0.064 C 
HETATM    9  C   UNK N   1      24.252  14.029   7.439  0.00  0.00     0.036 C 
HETATM   10  C   UNK N   1      23.785  13.848   5.995  0.00  0.00     0.014 C 
HETATM   11  C   UNK N   1      22.486  14.608   5.720  0.00  0.00     0.020 C 
HETATM   12  C   UNK N   1      21.445  14.349   6.801  0.00  0.00    -0.067 C 
HETATM   13  C   UNK N   1      20.320  15.096   6.774  0.00  0.00    -0.022 C 
HETATM   14  C   UNK N   1      20.124  16.085   5.654  0.00  0.00     0.040 C 
HETATM   15  C   UNK N   1      21.412  16.909   5.412  0.00  0.00     0.002 C 
HETATM   16  C   UNK N   1      22.712  16.129   5.705  0.00  0.00     0.006 C 
HETATM   17  C   UNK N   1      23.742  16.605   4.679  0.00  0.00     0.009 C 
HETATM   18  C   UNK N   1      23.050  17.704   3.878  0.00  0.00     0.047 C 
HETATM   19  C   UNK N   1      21.579  17.331   3.934  0.00  0.00     0.128 C 
HETATM   20  O   UNK N   1      21.387  16.222   3.099  0.00  0.00    -0.381 OA
HETATM   21  C   UNK N   1      21.420  18.108   6.361  0.00  0.00     0.019 C 
HETATM   22  H   UNK N   1      21.224  15.507   2.464  0.00  0.00     0.211 HD
ENDROOT
BRANCH  19  23
HETATM   23  C   UNK N   1      20.672  18.452   3.450  0.00  0.00     0.184 C 
HETATM   24  O   UNK N   1      19.510  18.229   3.153  0.00  0.00    -0.292 OA
BRANCH  23  25
HETATM   25  C   UNK N   1      21.200  19.844   3.291  0.00  0.00     0.245 C 
BRANCH  25  26
HETATM   26  O   UNK N   1      20.303  20.767   3.833  0.00  0.00    -0.393 OA
HETATM   27  H   UNK N   1      20.560  21.558   4.333  0.00  0.00     0.209 HD
ENDBRANCH  25  26
ENDBRANCH  23  25
ENDBRANCH  19  23
TORSDOF 3
ENDMDL
MODEL 5
REMARK VINA RESULT:      -7.0      5.437     11.239
REMARK  3 active torsions:
REMARK  status: ('A' for Active; 'I' for Inactive)
REMARK    1  A    between atoms: C_19  and  C_20 
REMARK    2  A    between atoms: C_20  and  C_22 
REMARK    3  A    between atoms: C_22  and  O_23 
ROOT
HETATM    1  C   UNK N   1      34.178   9.373  18.397  0.00  0.00     0.025 C 
HETATM    2  C   UNK N   1      35.369  10.288  18.134  0.00  0.00     0.003 C 
HETATM    3  C   UNK N   1      35.461  11.333  19.265  0.00  0.00     0.026 C 
HETATM    4  C   UNK N   1      35.779  10.720  20.633  0.00  0.00     0.084 C 
HETATM    5  C   UNK N   1      36.842   9.660  20.550  0.00  0.00     0.149 C 
HETATM    6  O   UNK N   1      37.337   9.223  21.574  0.00  0.00    -0.293 OA
HETATM    7  C   UNK N   1      37.272   9.117  19.247  0.00  0.00     0.054 C 
HETATM    8  C   UNK N   1      36.639   9.440  18.110  0.00  0.00    -0.064 C 
HETATM    9  C   UNK N   1      37.088   8.767  16.840  0.00  0.00     0.036 C 
HETATM   10  C   UNK N   1      35.973   8.752  15.795  0.00  0.00     0.014 C 
HETATM   11  C   UNK N   1      35.463  10.163  15.491  0.00  0.00     0.020 C 
HETATM   12  C   UNK N   1      35.178  10.943  16.767  0.00  0.00    -0.067 C 
HETATM   13  C   UNK N   1      34.893  12.257  16.643  0.00  0.00    -0.022 C 
HETATM   14  C   UNK N   1      34.805  12.861  15.265  0.00  0.00     0.040 C 
HETATM   15  C   UNK N   1      35.996  12.407  14.385  0.00  0.00     0.002 C 
HETATM   16  C   UNK N   1      36.503  10.986  14.714  0.00  0.00     0.006 C 
HETATM   17  C   UNK N   1      36.937  10.365  13.384  0.00  0.00     0.009 C 
HETATM   18  C   UNK N   1      36.755  11.459  12.338  0.00  0.00     0.047 C 
HETATM   19  C   UNK N   1      35.625  12.313  12.888  0.00  0.00     0.128 C 
HETATM   20  O   UNK N   1      34.433  11.591  12.737  0.00  0.00    -0.381 OA
HETATM   21  C   UNK N   1      37.180  13.342  14.631  0.00  0.00     0.019 C 
HETATM   22  H   UNK N   1      33.593  11.138  12.567  0.00  0.00     0.211 HD
ENDROOT
BRANCH  19  23
HETATM   23  C   UNK N   1      35.476  13.633  12.149  0.00  0.00     0.184 C 
HETATM   24  O   UNK N   1      34.491  14.334  12.315  0.00  0.00    -0.292 OA
BRANCH  23  25
HETATM   25  C   UNK N   1      36.518  14.082  11.171  0.00  0.00     0.245 C 
BRANCH  25  26
HETATM   26  O   UNK N   1      36.707  15.462  11.263  0.00  0.00    -0.393 OA
HETATM   27  H   UNK N   1      36.011  16.100  11.487  0.00  0.00     0.209 HD
ENDBRANCH  25  26
ENDBRANCH  23  25
ENDBRANCH  19  23
TORSDOF 3
ENDMDL
MODEL 6
REMARK VINA RESULT:      -6.9      4.254      9.194
REMARK  3 active torsions:
REMARK  status: ('A' for Active; 'I' for Inactive)
REMARK    1  A    between atoms: C_19  and  C_20 
REMARK    2  A    between atoms: C_20  and  C_22 
REMARK    3  A    between atoms: C_22  and  O_23 
ROOT
HETATM    1  C   UNK N   1      34.393  10.236  16.064  0.00  0.00     0.025 C 
HETATM    2  C   UNK N   1      35.625  10.267  15.166  0.00  0.00     0.003 C 
HETATM    3  C   UNK N   1      36.890  10.310  16.048  0.00  0.00     0.026 C 
HETATM    4  C   UNK N   1      37.091   9.041  16.884  0.00  0.00     0.084 C 
HETATM    5  C   UNK N   1      36.808   7.790  16.099  0.00  0.00     0.149 C 
HETATM    6  O   UNK N   1      37.110   6.706  16.566  0.00  0.00    -0.293 OA
HETATM    7  C   UNK N   1      36.139   7.854  14.785  0.00  0.00     0.054 C 
HETATM    8  C   UNK N   1      35.636   9.002  14.310  0.00  0.00    -0.064 C 
HETATM    9  C   UNK N   1      34.889   8.954  13.003  0.00  0.00     0.036 C 
HETATM   10  C   UNK N   1      33.906  10.119  12.882  0.00  0.00     0.014 C 
HETATM   11  C   UNK N   1      34.607  11.470  13.039  0.00  0.00     0.020 C 
HETATM   12  C   UNK N   1      35.524  11.488  14.255  0.00  0.00    -0.067 C 
HETATM   13  C   UNK N   1      36.336  12.557  14.406  0.00  0.00    -0.022 C 
HETATM   14  C   UNK N   1      36.245  13.691  13.418  0.00  0.00     0.040 C 
HETATM   15  C   UNK N   1      36.201  13.158  11.965  0.00  0.00     0.002 C 
HETATM   16  C   UNK N   1      35.501  11.789  11.829  0.00  0.00     0.006 C 
HETATM   17  C   UNK N   1      34.764  11.813  10.488  0.00  0.00     0.009 C 
HETATM   18  C   UNK N   1      35.122  13.148   9.843  0.00  0.00     0.047 C 
HETATM   19  C   UNK N   1      35.384  14.069  11.023  0.00  0.00     0.128 C 
HETATM   20  O   UNK N   1      34.147  14.373  11.609  0.00  0.00    -0.381 OA
HETATM   21  C   UNK N   1      37.632  12.947  11.470  0.00  0.00     0.019 C 
HETATM   22  H   UNK N   1      33.295  14.655  11.975  0.00  0.00     0.211 HD
ENDROOT
BRANCH  19  23
HETATM   23  C   UNK N   1      36.046  15.375  10.610  0.00  0.00     0.184 C 
HETATM   24  O   UNK N   1      37.085  15.372   9.969  0.00  0.00    -0.292 OA
BRANCH  23  25
HETATM   25  C   UNK N   1      35.456  16.690  11.017  0.00  0.00     0.245 C 
BRANCH  25  26
HETATM   26  O   UNK N   1      34.427  17.050  10.145  0.00  0.00    -0.393 OA
HETATM   27  H   UNK N   1      33.485  16.877  10.302  0.00  0.00     0.209 HD
ENDBRANCH  25  26
ENDBRANCH  23  25
ENDBRANCH  19  23
TORSDOF 3
ENDMDL
MODEL 7
REMARK VINA RESULT:      -6.8      3.705      5.403
REMARK  3 active torsions:
REMARK  status: ('A' for Active; 'I' for Inactive)
REMARK    1  A    between atoms: C_19  and  C_20 
REMARK    2  A    between atoms: C_20  and  C_22 
REMARK    3  A    between atoms: C_22  and  O_23 
ROOT
HETATM    1  C   UNK N   1      26.762  16.632   6.185  0.00  0.00     0.025 C 
HETATM    2  C   UNK N   1      27.880  17.492   5.606  0.00  0.00     0.003 C 
HETATM    3  C   UNK N   1      27.623  17.707   4.101  0.00  0.00     0.026 C 
HETATM    4  C   UNK N   1      26.360  18.526   3.812  0.00  0.00     0.084 C 
HETATM    5  C   UNK N   1      26.219  19.703   4.738  0.00  0.00     0.149 C 
HETATM    6  O   UNK N   1      25.377  20.552   4.508  0.00  0.00    -0.293 OA
HETATM    7  C   UNK N   1      27.066  19.828   5.940  0.00  0.00     0.054 C 
HETATM    8  C   UNK N   1      27.884  18.838   6.327  0.00  0.00    -0.064 C 
HETATM    9  C   UNK N   1      28.640  19.015   7.617  0.00  0.00     0.036 C 
HETATM   10  C   UNK N   1      29.035  17.667   8.220  0.00  0.00     0.014 C 
HETATM   11  C   UNK N   1      29.856  16.826   7.239  0.00  0.00     0.020 C 
HETATM   12  C   UNK N   1      29.210  16.783   5.861  0.00  0.00    -0.067 C 
HETATM   13  C   UNK N   1      29.921  16.225   4.858  0.00  0.00    -0.022 C 
HETATM   14  C   UNK N   1      31.267  15.620   5.162  0.00  0.00     0.040 C 
HETATM   15  C   UNK N   1      32.108  16.564   6.057  0.00  0.00     0.002 C 
HETATM   16  C   UNK N   1      31.261  17.411   7.031  0.00  0.00     0.006 C 
HETATM   17  C   UNK N   1      32.087  17.547   8.312  0.00  0.00     0.009 C 
HETATM   18  C   UNK N   1      33.416  16.857   8.024  0.00  0.00     0.047 C 
HETATM   19  C   UNK N   1      33.065  15.795   6.996  0.00  0.00     0.128 C 
HETATM   20  O   UNK N   1      32.366  14.775   7.656  0.00  0.00    -0.381 OA
HETATM   21  C   UNK N   1      32.848  17.562   5.167  0.00  0.00     0.019 C 
HETATM   22  H   UNK N   1      31.953  14.027   8.114  0.00  0.00     0.211 HD
ENDROOT
BRANCH  19  23
HETATM   23  C   UNK N   1      34.295  15.182   6.345  0.00  0.00     0.184 C 
HETATM   24  O   UNK N   1      35.313  15.838   6.191  0.00  0.00    -0.292 OA
BRANCH  23  25
HETATM   25  C   UNK N   1      34.268  13.771   5.843  0.00  0.00     0.245 C 
BRANCH  25  26
HETATM   26  O   UNK N   1      34.479  12.879   6.896  0.00  0.00    -0.393 OA
HETATM   27  H   UNK N   1      35.333  12.733   7.334  0.00  0.00     0.209 HD
ENDBRANCH  25  26
ENDBRANCH  23  25
ENDBRANCH  19  23
TORSDOF 3
ENDMDL
MODEL 8
REMARK VINA RESULT:      -6.8      6.805     11.976
REMARK  3 active torsions:
REMARK  status: ('A' for Active; 'I' for Inactive)
REMARK    1  A    between atoms: C_19  and  C_20 
REMARK    2  A    between atoms: C_20  and  C_22 
REMARK    3  A    between atoms: C_22  and  O_23 
ROOT
HETATM    1  C   UNK N   1      36.815   7.667  18.969  0.00  0.00     0.025 C 
HETATM    2  C   UNK N   1      35.501   8.001  18.271  0.00  0.00     0.003 C 
HETATM    3  C   UNK N   1      34.900   6.707  17.685  0.00  0.00     0.026 C 
HETATM    4  C   UNK N   1      34.486   5.691  18.756  0.00  0.00     0.084 C 
HETATM    5  C   UNK N   1      33.790   6.341  19.920  0.00  0.00     0.149 C 
HETATM    6  O   UNK N   1      33.233   5.647  20.751  0.00  0.00    -0.293 OA
HETATM    7  C   UNK N   1      33.800   7.808  20.087  0.00  0.00     0.054 C 
HETATM    8  C   UNK N   1      34.541   8.598  19.297  0.00  0.00    -0.064 C 
HETATM    9  C   UNK N   1      34.562  10.073  19.601  0.00  0.00     0.036 C 
HETATM   10  C   UNK N   1      35.830  10.733  19.058  0.00  0.00     0.014 C 
HETATM   11  C   UNK N   1      35.989  10.502  17.554  0.00  0.00     0.020 C 
HETATM   12  C   UNK N   1      35.784   9.039  17.186  0.00  0.00    -0.067 C 
HETATM   13  C   UNK N   1      35.721   8.730  15.873  0.00  0.00    -0.022 C 
HETATM   14  C   UNK N   1      35.924   9.821  14.853  0.00  0.00     0.040 C 
HETATM   15  C   UNK N   1      35.107  11.083  15.225  0.00  0.00     0.002 C 
HETATM   16  C   UNK N   1      34.948  11.293  16.746  0.00  0.00     0.006 C 
HETATM   17  C   UNK N   1      34.981  12.805  16.978  0.00  0.00     0.009 C 
HETATM   18  C   UNK N   1      35.070  13.435  15.592  0.00  0.00     0.047 C 
HETATM   19  C   UNK N   1      35.788  12.389  14.757  0.00  0.00     0.128 C 
HETATM   20  O   UNK N   1      37.136  12.387  15.143  0.00  0.00    -0.381 OA
HETATM   21  C   UNK N   1      33.690  10.939  14.670  0.00  0.00     0.019 C 
HETATM   22  H   UNK N   1      38.084  12.431  15.342  0.00  0.00     0.211 HD
ENDROOT
BRANCH  19  23
HETATM   23  C   UNK N   1      35.722  12.685  13.267  0.00  0.00     0.184 C 
HETATM   24  O   UNK N   1      34.915  13.486  12.824  0.00  0.00    -0.292 OA
BRANCH  23  25
HETATM   25  C   UNK N   1      36.621  11.968  12.307  0.00  0.00     0.245 C 
BRANCH  25  26
HETATM   26  O   UNK N   1      37.937  12.408  12.455  0.00  0.00    -0.393 OA
HETATM   27  H   UNK N   1      38.349  12.643  13.301  0.00  0.00     0.209 HD
ENDBRANCH  25  26
ENDBRANCH  23  25
ENDBRANCH  19  23
TORSDOF 3
ENDMDL
MODEL 9
REMARK VINA RESULT:      -6.7      3.111      8.232
REMARK  3 active torsions:
REMARK  status: ('A' for Active; 'I' for Inactive)
REMARK    1  A    between atoms: C_19  and  C_20 
REMARK    2  A    between atoms: C_20  and  C_22 
REMARK    3  A    between atoms: C_22  and  O_23 
ROOT
HETATM    1  C   UNK N   1      35.620  10.517  14.581  0.00  0.00     0.025 C 
HETATM    2  C   UNK N   1      36.580  10.988  13.493  0.00  0.00     0.003 C 
HETATM    3  C   UNK N   1      37.965  11.247  14.120  0.00  0.00     0.026 C 
HETATM    4  C   UNK N   1      38.634   9.977  14.658  0.00  0.00     0.084 C 
HETATM    5  C   UNK N   1      38.478   8.810  13.723  0.00  0.00     0.149 C 
HETATM    6  O   UNK N   1      39.118   7.792  13.920  0.00  0.00    -0.293 OA
HETATM    7  C   UNK N   1      37.536   8.867  12.588  0.00  0.00     0.054 C 
HETATM    8  C   UNK N   1      36.689   9.895  12.432  0.00  0.00    -0.064 C 
HETATM    9  C   UNK N   1      35.700   9.824  11.298  0.00  0.00     0.036 C 
HETATM   10  C   UNK N   1      34.475  10.694  11.575  0.00  0.00     0.014 C 
HETATM   11  C   UNK N   1      34.863  12.150  11.846  0.00  0.00     0.020 C 
HETATM   12  C   UNK N   1      35.999  12.249  12.855  0.00  0.00    -0.067 C 
HETATM   13  C   UNK N   1      36.556  13.464  13.048  0.00  0.00    -0.022 C 
HETATM   14  C   UNK N   1      35.988  14.654  12.319  0.00  0.00     0.040 C 
HETATM   15  C   UNK N   1      35.744  14.323  10.826  0.00  0.00     0.002 C 
HETATM   16  C   UNK N   1      35.365  12.848  10.572  0.00  0.00     0.006 C 
HETATM   17  C   UNK N   1      34.362  12.854   9.416  0.00  0.00     0.009 C 
HETATM   18  C   UNK N   1      34.250  14.309   8.972  0.00  0.00     0.047 C 
HETATM   19  C   UNK N   1      34.550  15.104  10.232  0.00  0.00     0.128 C 
HETATM   20  O   UNK N   1      33.440  14.991  11.081  0.00  0.00    -0.381 OA
HETATM   21  C   UNK N   1      37.038  14.564  10.046  0.00  0.00     0.019 C 
HETATM   22  H   UNK N   1      32.649  14.989  11.643  0.00  0.00     0.211 HD
ENDROOT
BRANCH  19  23
HETATM   23  C   UNK N   1      34.784  16.579   9.952  0.00  0.00     0.184 C 
HETATM   24  O   UNK N   1      35.567  17.226  10.629  0.00  0.00    -0.292 OA
BRANCH  23  25
HETATM   25  C   UNK N   1      34.029  17.278   8.863  0.00  0.00     0.245 C 
BRANCH  25  26
HETATM   26  O   UNK N   1      32.665  17.305   9.160  0.00  0.00    -0.393 OA
HETATM   27  H   UNK N   1      32.043  17.976   8.838  0.00  0.00     0.209 HD
ENDBRANCH  25  26
ENDBRANCH  23  25
ENDBRANCH  19  23
TORSDOF 3
ENDMDL
