REMARK  6 active torsions:
REMARK  status: ('A' for Active; 'I' for Inactive)
REMARK    1  A    between atoms: C_2  and  C_3 
REMARK    2  A    between atoms: C_2  and  O_31 
REMARK    3  A    between atoms: C_3  and  N_4 
REMARK    4  A    between atoms: C_8  and  C_20 
REMARK    5  A    between atoms: C_22  and  C_27 
REMARK    6  A    between atoms: C_27  and  O_30 
ROOT
HETATM    1  N   UNK N   1      -0.005  -1.587   0.333  0.00  0.00    -0.294 N 
HETATM    2  C   UNK N   1       0.818  -2.637   0.106  0.00  0.00     0.080 A 
HETATM    3  C   UNK N   1       2.200  -2.665  -0.042  0.00  0.00     0.021 A 
HETATM    4  C   UNK N   1       2.959  -1.514   0.028  0.00  0.00     0.028 A 
HETATM    5  C   UNK N   1       4.347  -1.554  -0.102  0.00  0.00    -0.024 A 
HETATM    6  C   UNK N   1       4.982  -2.793  -0.312  0.00  0.00     0.014 A 
HETATM    7  C   UNK N   1       4.217  -3.973  -0.393  0.00  0.00     0.031 A 
HETATM    8  C   UNK N   1       2.821  -3.917  -0.256  0.00  0.00     0.044 A 
HETATM    9  N   UNK N   1       2.059  -5.058  -0.320  0.00  0.00    -0.363 N 
ATOM     10  HN  UNK N   1       2.519  -5.955  -0.478  1.00  0.00     0.165 HD
HETATM   11  C   UNK N   1       0.695  -5.023  -0.176  0.00  0.00     0.120 A 
HETATM   12  C   UNK N   1       0.084  -3.786   0.041  0.00  0.00     0.081 A 
HETATM   13  N   UNK N   1      -1.218  -3.493   0.224  0.00  0.00    -0.300 N 
HETATM   14  C   UNK N   1      -1.251  -2.140   0.405  0.00  0.00     0.329 A 
HETATM   15  O   UNK N   1      -2.270  -1.502   0.611  0.00  0.00    -0.246 OA
HETATM   16  C   UNK N   1      -2.341  -4.416   0.239  0.00  0.00     0.161 C 
ENDROOT
BRANCH   5  17
HETATM   17  C   UNK N   1       5.086  -0.279   0.024  0.00  0.00    -0.010 A 
HETATM   18  C   UNK N   1       4.359   0.899   0.216  0.00  0.00     0.025 A 
HETATM   19  C   UNK N   1       4.998   2.123   0.386  0.00  0.00    -0.009 A 
HETATM   20  C   UNK N   1       6.399   2.148   0.360  0.00  0.00     0.097 A 
HETATM   21  N   UNK N   1       7.104   0.997   0.162  0.00  0.00    -0.374 N 
HETATM   22  C   UNK N   1       6.483  -0.206  -0.003  0.00  0.00     0.100 A 
ATOM     23  HN  UNK N   1       8.123   1.037   0.137  1.00  0.00     0.164 HD
BRANCH  19  24
HETATM   24  C   UNK N   1       4.168   3.368   0.601  0.00  0.00     0.079 C 
HETATM   25  C   UNK N   1       3.292   3.621  -0.614  0.00  0.00     0.051 C 
HETATM   26  C   UNK N   1       3.272   3.194   1.816  0.00  0.00     0.051 C 
BRANCH  24  27
HETATM   27  O   UNK N   1       4.982   4.483   0.804  0.00  0.00    -0.386 OA
HETATM   28  H   UNK N   1       5.937   4.381   0.945  0.00  0.00     0.211 HD
ENDBRANCH  24  27
ENDBRANCH  19  24
ENDBRANCH   5  17
BRANCH   1  29
HETATM   29  C   UNK N   1       0.375  -0.182   0.497  0.00  0.00     0.165 C 
BRANCH  29  30
HETATM   30  C   UNK N   1      -0.277   0.748  -0.525  0.00  0.00     0.135 C 
HETATM   31  C   UNK N   1      -0.203   0.190  -1.937  0.00  0.00     0.041 C 
BRANCH  30  32
HETATM   32  O   UNK N   1       0.378   1.983  -0.489  0.00  0.00    -0.389 OA
HETATM   33  C   UNK N   1      -0.616   2.925  -0.218  0.00  0.00     0.202 C 
ENDBRANCH  30  32
ENDBRANCH  29  30
ENDBRANCH   1  29
TORSDOF 6
