REMARK  8 active torsions:
REMARK  status: ('A' for Active; 'I' for Inactive)
REMARK    1  A    between atoms: C_3  and  C_2 
REMARK    2  A    between atoms: C_3  and  O_34 
REMARK    3  A    between atoms: C_26  and  C_27 
REMARK    4  A    between atoms: C_27  and  N_28 
REMARK    5  A    between atoms: N_28  and  O_30 
REMARK    6  A    between atoms: O_30  and  C_31 
REMARK    7  A    between atoms: C_31  and  C_32 
REMARK    8  A    between atoms: C_32  and  N_33 
ROOT
HETATM    1  C   UNK N   1       7.183  -1.432  -0.149  0.00  0.00     0.173 A 
HETATM    2  C   UNK N   1       6.213  -0.283  -0.055  0.00  0.00     0.002 A 
HETATM    3  C   UNK N   1       4.833  -0.562  -0.086  0.00  0.00     0.043 A 
HETATM    4  C   UNK N   1       3.941   0.498  -0.043  0.00  0.00     0.066 A 
HETATM    5  N   UNK N   1       4.364   1.773   0.008  0.00  0.00    -0.307 N 
HETATM    6  C   UNK N   1       5.695   2.095   0.064  0.00  0.00     0.257 A 
HETATM    7  O   UNK N   1       6.041   3.263   0.129  0.00  0.00    -0.267 OA
HETATM    8  C   UNK N   1       6.651   1.059   0.039  0.00  0.00     0.044 A 
HETATM    9  C   UNK N   1       8.110   1.404   0.094  0.00  0.00     0.224 A 
HETATM   10  O   UNK N   1       8.973   0.327   0.036  0.00  0.00    -0.314 OA
HETATM   11  C   UNK N   1       8.628  -0.978  -0.091  0.00  0.00     0.298 A 
HETATM   12  O   UNK N   1       9.519  -1.810  -0.176  0.00  0.00    -0.261 OA
HETATM   13  C   UNK N   1       3.233   2.712  -0.004  0.00  0.00     0.174 A 
HETATM   14  C   UNK N   1       2.063   1.750  -0.051  0.00  0.00     0.002 A 
HETATM   15  C   UNK N   1       2.516   0.460  -0.054  0.00  0.00     0.069 A 
HETATM   16  N   UNK N   1       1.689  -0.612  -0.055  0.00  0.00    -0.353 N 
ATOM     17  HN  UNK N   1       2.071  -1.558  -0.061  1.00  0.00     0.166 HD
HETATM   18  C   UNK N   1       0.340  -0.413  -0.048  0.00  0.00     0.043 A 
HETATM   19  C   UNK N   1      -0.523  -1.511  -0.033  0.00  0.00     0.030 A 
HETATM   20  C   UNK N   1      -1.906  -1.318  -0.028  0.00  0.00     0.002 A 
HETATM   21  C   UNK N   1      -2.436  -0.024  -0.044  0.00  0.00     0.001 A 
HETATM   22  C   UNK N   1      -1.587   1.087  -0.061  0.00  0.00     0.014 A 
HETATM   23  C   UNK N   1      -0.195   0.913  -0.059  0.00  0.00     0.003 A 
HETATM   24  C   UNK N   1       0.688   2.021  -0.075  0.00  0.00     0.004 A 
ENDROOT
BRANCH  24  25
HETATM   25  C   UNK N   1       0.183   3.413  -0.124  0.00  0.00     0.127 C 
BRANCH  25  26
HETATM   26  N   UNK N   1       0.972   4.384  -0.424  0.00  0.00    -0.277 N 
ATOM     27  HN  UNK N   1       1.944   4.183  -0.657  1.00  0.00     0.193 HD
BRANCH  26  28
HETATM   28  O   UNK N   1       0.553   5.632  -0.435  0.00  0.00    -0.279 OA
BRANCH  28  29
HETATM   29  C   UNK N   1       0.208   6.267   0.733  0.00  0.00     0.220 C 
BRANCH  29  30
HETATM   30  C   UNK N   1      -0.835   7.326   0.451  0.00  0.00     0.139 C 
BRANCH  30  31
HETATM   31  N   UNK N   1      -2.085   6.690   0.074  0.00  0.00    -0.428 N 
HETATM   32  H   UNK N   1      -2.911   7.227  -0.191  0.00  0.00     0.150 HD
HETATM   33  H   UNK N   1      -2.138   5.672   0.074  0.00  0.00     0.150 HD
ENDBRANCH  30  31
ENDBRANCH  29  30
ENDBRANCH  28  29
ENDBRANCH  26  28
ENDBRANCH  25  26
ENDBRANCH  24  25
BRANCH   1  34
HETATM   34  C   UNK N   1       6.885  -2.408   1.000  0.00  0.00     0.049 C 
HETATM   35  C   UNK N   1       7.577  -3.755   0.839  0.00  0.00     0.009 C 
ENDBRANCH   1  34
BRANCH   1  36
HETATM   36  O   UNK N   1       6.968  -2.073  -1.373  0.00  0.00    -0.375 OA
HETATM   37  H   UNK N   1       6.508  -2.166  -2.222  0.00  0.00     0.211 HD
ENDBRANCH   1  36
TORSDOF 8
