REMARK  5 active torsions:
REMARK  status: ('A' for Active; 'I' for Inactive)
REMARK    1  A    between atoms: C_3  and  N_18 
REMARK    2  A    between atoms: C_7  and  C_8 
REMARK    3  A    between atoms: C_8  and  O_9 
REMARK    4  A    between atoms: O_9  and  C_10 
REMARK    5  A    between atoms: C_13  and  S_16 
ROOT
HETATM    1  C   UNK N   1       1.585  -1.589  -0.359  0.00  0.00     0.159 C 
HETATM    2  N   UNK N   1       2.009  -2.970  -0.181  0.00  0.00    -0.319 N 
HETATM    3  C   UNK N   1       3.257  -3.434   0.014  0.00  0.00     0.192 A 
HETATM    4  C   UNK N   1       3.216  -4.809   0.130  0.00  0.00     0.144 A 
HETATM    5  N   UNK N   1       1.927  -5.198   0.008  0.00  0.00    -0.350 N 
ATOM      6  HN  UNK N   1       1.564  -6.150   0.049  1.00  0.00     0.166 HD
HETATM    7  C   UNK N   1       1.220  -4.063  -0.181  0.00  0.00     0.109 A 
ENDROOT
BRANCH   7   8
HETATM    8  C   UNK N   1      -0.259  -4.051  -0.399  0.00  0.00     0.252 C 
BRANCH   8   9
HETATM    9  O   UNK N   1      -0.870  -3.144   0.438  0.00  0.00    -0.344 OA
BRANCH   9  10
HETATM   10  C   UNK N   1      -2.195  -2.872   0.375  0.00  0.00     0.069 A 
HETATM   11  C   UNK N   1      -3.074  -3.663  -0.388  0.00  0.00     0.038 A 
HETATM   12  C   UNK N   1      -4.431  -3.335  -0.464  0.00  0.00     0.021 A 
HETATM   13  C   UNK N   1      -4.919  -2.215   0.215  0.00  0.00    -0.000 A 
HETATM   14  C   UNK N   1      -4.051  -1.436   0.988  0.00  0.00     0.021 A 
HETATM   15  C   UNK N   1      -2.694  -1.764   1.067  0.00  0.00     0.038 A 
BRANCH  13  16
HETATM   16  S   UNK N   1      -6.657  -1.793   0.108  0.00  0.00    -0.134 SA
HETATM   17  C   UNK N   1      -6.342  -0.174  -0.658  0.00  0.00     0.095 C 
ENDBRANCH  13  16
ENDBRANCH   9  10
ENDBRANCH   8   9
ENDBRANCH   7   8
BRANCH   3  18
HETATM   18  N   UNK N   1       4.433  -2.638   0.084  0.00  0.00    -0.096 N 
HETATM   19  O   UNK N   1       4.371  -1.451  -0.005  0.00  0.00    -0.530 OA
HETATM   20  O   UNK N   1       5.605  -3.215   0.249  0.00  0.00    -0.530 OA
ENDBRANCH   3  18
TORSDOF 5
