MODEL 1
REMARK VINA RESULT:      -6.9      0.000      0.000
REMARK  3 active torsions:
REMARK  status: ('A' for Active; 'I' for Inactive)
REMARK    1  A    between atoms: O_21  and  C_11 
REMARK    2  A    between atoms: O_21  and  C_12 
REMARK    3  A    between atoms: S_22  and  C_14 
ROOT
HETATM    1  C   UNK N   1      33.272  17.032   5.830  0.00  0.00     0.058 A 
HETATM    2  C   UNK N   1      31.134  17.119   7.663  0.00  0.00     0.071 A 
HETATM    3  C   UNK N   1      31.941  17.202   5.375  0.00  0.00     0.070 A 
HETATM    4  C   UNK N   1      33.470  16.912   7.202  0.00  0.00     0.062 A 
HETATM    5  C   UNK N   1      32.439  16.956   8.075  0.00  0.00     0.064 A 
HETATM    6  C   UNK N   1      30.855  17.247   6.305  0.00  0.00     0.100 A 
HETATM    7  C   UNK N   1      34.223  16.692   9.179  0.00  0.00     0.144 A 
HETATM    8 Cl   UNK N   1      31.649  17.358   3.651  0.00  0.00    -0.081 Cl
HETATM    9  N   UNK N   1      34.620  16.745   7.877  0.00  0.00    -0.335 N 
HETATM   10  N   UNK N   1      32.883  16.819   9.326  0.00  0.00    -0.335 N 
ATOM     11  HN  UNK N   1      32.341  16.813  10.190  1.00  0.00     0.168 HD
HETATM   12  H   UNK N   1      35.534  16.678   7.517  0.00  0.00     0.168 HD
ENDROOT
BRANCH   6  13
HETATM   13  O   UNK N   1      29.586  17.412   5.835  0.00  0.00    -0.307 OA
BRANCH  13  14
HETATM   14  C   UNK N   1      28.646  18.402   5.668  0.00  0.00     0.099 A 
HETATM   15  C   UNK N   1      28.317  18.650   4.328  0.00  0.00     0.039 A 
HETATM   16  C   UNK N   1      27.386  19.614   3.958  0.00  0.00     0.005 A 
HETATM   17  C   UNK N   1      26.748  20.368   4.928  0.00  0.00     0.026 A 
HETATM   18  C   UNK N   1      27.033  20.169   6.273  0.00  0.00     0.058 A 
HETATM   19  C   UNK N   1      27.976  19.194   6.679  0.00  0.00     0.089 A 
HETATM   20 Cl   UNK N   1      26.176  21.172   7.444  0.00  0.00    -0.082 Cl
HETATM   21 Cl   UNK N   1      28.207  19.083   8.421  0.00  0.00    -0.080 Cl
ENDBRANCH  13  14
ENDBRANCH   6  13
BRANCH   7  22
HETATM   22  S   UNK N   1      35.318  16.478  10.588  0.00  0.00    -0.098 SA
HETATM   23  C   UNK N   1      34.542  14.958  11.205  0.00  0.00     0.099 C 
ENDBRANCH   7  22
TORSDOF 3
ENDMDL
MODEL 2
REMARK VINA RESULT:      -6.8      3.088      4.494
REMARK  3 active torsions:
REMARK  status: ('A' for Active; 'I' for Inactive)
REMARK    1  A    between atoms: O_21  and  C_11 
REMARK    2  A    between atoms: O_21  and  C_12 
REMARK    3  A    between atoms: S_22  and  C_14 
ROOT
HETATM    1  C   UNK N   1      35.450  16.862  10.309  0.00  0.00     0.058 A 
HETATM    2  C   UNK N   1      33.395  14.971   9.936  0.00  0.00     0.071 A 
HETATM    3  C   UNK N   1      34.476  17.048   9.296  0.00  0.00     0.070 A 
HETATM    4  C   UNK N   1      35.345  15.721  11.098  0.00  0.00     0.062 A 
HETATM    5  C   UNK N   1      34.356  14.819  10.913  0.00  0.00     0.064 A 
HETATM    6  C   UNK N   1      33.433  16.089   9.107  0.00  0.00     0.100 A 
HETATM    7  C   UNK N   1      35.567  14.149  12.512  0.00  0.00     0.144 A 
HETATM    8 Cl   UNK N   1      34.573  18.476   8.280  0.00  0.00    -0.081 Cl
HETATM    9  N   UNK N   1      36.132  15.320  12.111  0.00  0.00    -0.335 N 
HETATM   10  N   UNK N   1      34.471  13.818  11.789  0.00  0.00    -0.335 N 
ATOM     11  HN  UNK N   1      33.873  12.997  11.890  1.00  0.00     0.168 HD
HETATM   12  H   UNK N   1      36.929  15.768  12.477  0.00  0.00     0.168 HD
ENDROOT
BRANCH   6  13
HETATM   13  O   UNK N   1      32.511  16.296   8.124  0.00  0.00    -0.307 OA
BRANCH  13  14
HETATM   14  C   UNK N   1      31.288  16.896   7.938  0.00  0.00     0.099 A 
HETATM   15  C   UNK N   1      31.015  17.921   8.854  0.00  0.00     0.039 A 
HETATM   16  C   UNK N   1      29.829  18.646   8.827  0.00  0.00     0.005 A 
HETATM   17  C   UNK N   1      28.868  18.365   7.870  0.00  0.00     0.026 A 
HETATM   18  C   UNK N   1      29.081  17.360   6.935  0.00  0.00     0.058 A 
HETATM   19  C   UNK N   1      30.280  16.606   6.939  0.00  0.00     0.089 A 
HETATM   20 Cl   UNK N   1      27.807  17.066   5.752  0.00  0.00    -0.082 Cl
HETATM   21 Cl   UNK N   1      30.373  15.377   5.682  0.00  0.00    -0.080 Cl
ENDBRANCH  13  14
ENDBRANCH   6  13
BRANCH   7  22
HETATM   22  S   UNK N   1      36.169  13.112  13.852  0.00  0.00    -0.098 SA
HETATM   23  C   UNK N   1      36.785  14.472  14.884  0.00  0.00     0.099 C 
ENDBRANCH   7  22
TORSDOF 3
ENDMDL
MODEL 3
REMARK VINA RESULT:      -6.7      6.580     10.136
REMARK  3 active torsions:
REMARK  status: ('A' for Active; 'I' for Inactive)
REMARK    1  A    between atoms: O_21  and  C_11 
REMARK    2  A    between atoms: O_21  and  C_12 
REMARK    3  A    between atoms: S_22  and  C_14 
ROOT
HETATM    1  C   UNK N   1      36.337  14.060   9.425  0.00  0.00     0.058 A 
HETATM    2  C   UNK N   1      35.492  15.461  11.718  0.00  0.00     0.071 A 
HETATM    3  C   UNK N   1      36.672  13.590  10.719  0.00  0.00     0.070 A 
HETATM    4  C   UNK N   1      35.583  15.226   9.341  0.00  0.00     0.062 A 
HETATM    5  C   UNK N   1      35.181  15.892  10.446  0.00  0.00     0.064 A 
HETATM    6  C   UNK N   1      36.243  14.300  11.883  0.00  0.00     0.100 A 
HETATM    7  C   UNK N   1      34.464  16.937   8.753  0.00  0.00     0.144 A 
HETATM    8 Cl   UNK N   1      37.622  12.121  10.866  0.00  0.00    -0.081 Cl
HETATM    9  N   UNK N   1      35.141  15.869   8.247  0.00  0.00    -0.335 N 
HETATM   10  N   UNK N   1      34.475  16.973  10.106  0.00  0.00    -0.335 N 
ATOM     11  HN  UNK N   1      34.045  17.665  10.721  1.00  0.00     0.168 HD
HETATM   12  H   UNK N   1      35.273  15.625   7.302  0.00  0.00     0.168 HD
ENDROOT
BRANCH   6  13
HETATM   13  O   UNK N   1      36.582  13.822  13.114  0.00  0.00    -0.307 OA
BRANCH  13  14
HETATM   14  C   UNK N   1      35.986  13.381  14.273  0.00  0.00     0.099 A 
HETATM   15  C   UNK N   1      35.103  12.309  14.083  0.00  0.00     0.039 A 
HETATM   16  C   UNK N   1      34.406  11.726  15.134  0.00  0.00     0.005 A 
HETATM   17  C   UNK N   1      34.572  12.202  16.424  0.00  0.00     0.026 A 
HETATM   18  C   UNK N   1      35.433  13.263  16.675  0.00  0.00     0.058 A 
HETATM   19  C   UNK N   1      36.157  13.876  15.624  0.00  0.00     0.089 A 
HETATM   20 Cl   UNK N   1      35.588  13.808  18.345  0.00  0.00    -0.082 Cl
HETATM   21 Cl   UNK N   1      37.198  15.203  16.130  0.00  0.00    -0.080 Cl
ENDBRANCH  13  14
ENDBRANCH   6  13
BRANCH   7  22
HETATM   22  S   UNK N   1      33.629  18.193   7.775  0.00  0.00    -0.098 SA
HETATM   23  C   UNK N   1      33.759  17.320   6.190  0.00  0.00     0.099 C 
ENDBRANCH   7  22
TORSDOF 3
ENDMDL
MODEL 4
REMARK VINA RESULT:      -6.3      1.694      1.964
REMARK  3 active torsions:
REMARK  status: ('A' for Active; 'I' for Inactive)
REMARK    1  A    between atoms: O_21  and  C_11 
REMARK    2  A    between atoms: O_21  and  C_12 
REMARK    3  A    between atoms: S_22  and  C_14 
ROOT
HETATM    1  C   UNK N   1      32.779  16.957   5.871  0.00  0.00     0.058 A 
HETATM    2  C   UNK N   1      30.876  17.058   7.946  0.00  0.00     0.071 A 
HETATM    3  C   UNK N   1      31.402  17.111   5.577  0.00  0.00     0.070 A 
HETATM    4  C   UNK N   1      33.142  16.860   7.211  0.00  0.00     0.062 A 
HETATM    5  C   UNK N   1      32.223  16.910   8.200  0.00  0.00     0.064 A 
HETATM    6  C   UNK N   1      30.435  17.163   6.630  0.00  0.00     0.100 A 
HETATM    7  C   UNK N   1      34.129  16.676   9.086  0.00  0.00     0.144 A 
HETATM    8 Cl   UNK N   1      30.904  17.238   3.898  0.00  0.00    -0.081 Cl
HETATM    9  N   UNK N   1      34.366  16.711   7.745  0.00  0.00    -0.335 N 
HETATM   10  N   UNK N   1      32.815  16.796   9.391  0.00  0.00    -0.335 N 
ATOM     11  HN  UNK N   1      32.381  16.799  10.314  1.00  0.00     0.168 HD
HETATM   12  H   UNK N   1      35.230  16.644   7.279  0.00  0.00     0.168 HD
ENDROOT
BRANCH   6  13
HETATM   13  O   UNK N   1      29.118  17.312   6.313  0.00  0.00    -0.307 OA
BRANCH  13  14
HETATM   14  C   UNK N   1      28.227  18.296   5.950  0.00  0.00     0.099 A 
HETATM   15  C   UNK N   1      28.123  19.338   6.882  0.00  0.00     0.039 A 
HETATM   16  C   UNK N   1      27.276  20.423   6.691  0.00  0.00     0.005 A 
HETATM   17  C   UNK N   1      26.496  20.500   5.549  0.00  0.00     0.026 A 
HETATM   18  C   UNK N   1      26.555  19.497   4.590  0.00  0.00     0.058 A 
HETATM   19  C   UNK N   1      27.410  18.381   4.757  0.00  0.00     0.089 A 
HETATM   20 Cl   UNK N   1      25.530  19.673   3.165  0.00  0.00    -0.082 Cl
HETATM   21 Cl   UNK N   1      27.351  17.213   3.441  0.00  0.00    -0.080 Cl
ENDBRANCH  13  14
ENDBRANCH   6  13
BRANCH   7  22
HETATM   22  S   UNK N   1      35.387  16.491  10.356  0.00  0.00    -0.098 SA
HETATM   23  C   UNK N   1      36.064  14.929   9.730  0.00  0.00     0.099 C 
ENDBRANCH   7  22
TORSDOF 3
ENDMDL
MODEL 5
REMARK VINA RESULT:      -6.2      2.317      3.401
REMARK  3 active torsions:
REMARK  status: ('A' for Active; 'I' for Inactive)
REMARK    1  A    between atoms: O_21  and  C_11 
REMARK    2  A    between atoms: O_21  and  C_12 
REMARK    3  A    between atoms: S_22  and  C_14 
ROOT
HETATM    1  C   UNK N   1      31.950  17.415   8.596  0.00  0.00     0.058 A 
HETATM    2  C   UNK N   1      30.638  16.806   6.178  0.00  0.00     0.071 A 
HETATM    3  C   UNK N   1      30.606  17.809   8.389  0.00  0.00     0.070 A 
HETATM    4  C   UNK N   1      32.582  16.723   7.566  0.00  0.00     0.062 A 
HETATM    5  C   UNK N   1      31.945  16.435   6.410  0.00  0.00     0.064 A 
HETATM    6  C   UNK N   1      29.938  17.500   7.162  0.00  0.00     0.100 A 
HETATM    7  C   UNK N   1      33.911  15.666   6.286  0.00  0.00     0.144 A 
HETATM    8 Cl   UNK N   1      29.774  18.683   9.664  0.00  0.00    -0.081 Cl
HETATM    9  N   UNK N   1      33.837  16.246   7.516  0.00  0.00    -0.335 N 
HETATM   10  N   UNK N   1      32.757  15.770   5.585  0.00  0.00    -0.335 N 
ATOM     11  HN  UNK N   1      32.556  15.422   4.648  1.00  0.00     0.168 HD
HETATM   12  H   UNK N   1      34.538  16.301   8.205  0.00  0.00     0.168 HD
ENDROOT
BRANCH   6  13
HETATM   13  O   UNK N   1      28.644  17.893   6.994  0.00  0.00    -0.307 OA
BRANCH  13  14
HETATM   14  C   UNK N   1      27.919  18.901   6.403  0.00  0.00     0.099 A 
HETATM   15  C   UNK N   1      27.590  19.949   7.273  0.00  0.00     0.039 A 
HETATM   16  C   UNK N   1      26.861  21.058   6.860  0.00  0.00     0.005 A 
HETATM   17  C   UNK N   1      26.433  21.154   5.546  0.00  0.00     0.026 A 
HETATM   18  C   UNK N   1      26.727  20.147   4.637  0.00  0.00     0.058 A 
HETATM   19  C   UNK N   1      27.468  19.007   5.030  0.00  0.00     0.089 A 
HETATM   20 Cl   UNK N   1      26.144  20.347   2.984  0.00  0.00    -0.082 Cl
HETATM   21 Cl   UNK N   1      27.744  17.836   3.744  0.00  0.00    -0.080 Cl
ENDBRANCH  13  14
ENDBRANCH   6  13
BRANCH   7  22
HETATM   22  S   UNK N   1      35.359  14.839   5.615  0.00  0.00    -0.098 SA
HETATM   23  C   UNK N   1      34.456  13.464   4.849  0.00  0.00     0.099 C 
ENDBRANCH   7  22
TORSDOF 3
ENDMDL
MODEL 6
REMARK VINA RESULT:      -6.2      3.692      5.184
REMARK  3 active torsions:
REMARK  status: ('A' for Active; 'I' for Inactive)
REMARK    1  A    between atoms: O_21  and  C_11 
REMARK    2  A    between atoms: O_21  and  C_12 
REMARK    3  A    between atoms: S_22  and  C_14 
ROOT
HETATM    1  C   UNK N   1      35.419  16.842  10.124  0.00  0.00     0.058 A 
HETATM    2  C   UNK N   1      33.247  15.065   9.875  0.00  0.00     0.071 A 
HETATM    3  C   UNK N   1      34.366  17.116   9.217  0.00  0.00     0.070 A 
HETATM    4  C   UNK N   1      35.331  15.673  10.874  0.00  0.00     0.062 A 
HETATM    5  C   UNK N   1      34.285  14.826  10.748  0.00  0.00     0.064 A 
HETATM    6  C   UNK N   1      33.263  16.216   9.090  0.00  0.00     0.100 A 
HETATM    7  C   UNK N   1      35.604  14.031  12.197  0.00  0.00     0.144 A 
HETATM    8 Cl   UNK N   1      34.440  18.582   8.253  0.00  0.00    -0.081 Cl
HETATM    9  N   UNK N   1      36.188  15.192  11.790  0.00  0.00    -0.335 N 
HETATM   10  N   UNK N   1      34.430  13.784  11.569  0.00  0.00    -0.335 N 
ATOM     11  HN  UNK N   1      33.804  12.988  11.694  1.00  0.00     0.168 HD
HETATM   12  H   UNK N   1      37.037  15.585  12.096  0.00  0.00     0.168 HD
ENDROOT
BRANCH   6  13
HETATM   13  O   UNK N   1      32.265  16.509   8.208  0.00  0.00    -0.307 OA
BRANCH  13  14
HETATM   14  C   UNK N   1      32.043  16.566   6.852  0.00  0.00     0.099 A 
HETATM   15  C   UNK N   1      30.770  17.043   6.507  0.00  0.00     0.039 A 
HETATM   16  C   UNK N   1      30.359  17.173   5.185  0.00  0.00     0.005 A 
HETATM   17  C   UNK N   1      31.219  16.826   4.156  0.00  0.00     0.026 A 
HETATM   18  C   UNK N   1      32.492  16.347   4.436  0.00  0.00     0.058 A 
HETATM   19  C   UNK N   1      32.938  16.206   5.772  0.00  0.00     0.089 A 
HETATM   20 Cl   UNK N   1      33.523  15.929   3.067  0.00  0.00    -0.082 Cl
HETATM   21 Cl   UNK N   1      34.578  15.585   5.932  0.00  0.00    -0.080 Cl
ENDBRANCH  13  14
ENDBRANCH   6  13
BRANCH   7  22
HETATM   22  S   UNK N   1      36.276  12.910  13.432  0.00  0.00    -0.098 SA
HETATM   23  C   UNK N   1      36.640  11.555  12.282  0.00  0.00     0.099 C 
ENDBRANCH   7  22
TORSDOF 3
ENDMDL
MODEL 7
REMARK VINA RESULT:      -6.1      4.411      7.583
REMARK  3 active torsions:
REMARK  status: ('A' for Active; 'I' for Inactive)
REMARK    1  A    between atoms: O_21  and  C_11 
REMARK    2  A    between atoms: O_21  and  C_12 
REMARK    3  A    between atoms: S_22  and  C_14 
ROOT
HETATM    1  C   UNK N   1      28.068  18.463   7.561  0.00  0.00     0.058 A 
HETATM    2  C   UNK N   1      29.702  17.679   5.404  0.00  0.00     0.071 A 
HETATM    3  C   UNK N   1      29.259  17.729   7.790  0.00  0.00     0.070 A 
HETATM    4  C   UNK N   1      27.749  18.773   6.243  0.00  0.00     0.062 A 
HETATM    5  C   UNK N   1      28.539  18.394   5.214  0.00  0.00     0.064 A 
HETATM    6  C   UNK N   1      30.089  17.332   6.696  0.00  0.00     0.100 A 
HETATM    7  C   UNK N   1      26.890  19.453   4.421  0.00  0.00     0.144 A 
HETATM    8 Cl   UNK N   1      29.696  17.319   9.440  0.00  0.00    -0.081 Cl
HETATM    9  N   UNK N   1      26.690  19.451   5.768  0.00  0.00    -0.335 N 
HETATM   10  N   UNK N   1      28.022  18.808   4.055  0.00  0.00    -0.335 N 
ATOM     11  HN  UNK N   1      28.393  18.671   3.114  1.00  0.00     0.168 HD
HETATM   12  H   UNK N   1      25.947  19.851   6.273  0.00  0.00     0.168 HD
ENDROOT
BRANCH   6  13
HETATM   13  O   UNK N   1      31.228  16.627   6.949  0.00  0.00    -0.307 OA
BRANCH  13  14
HETATM   14  C   UNK N   1      32.388  16.729   7.682  0.00  0.00     0.099 A 
HETATM   15  C   UNK N   1      33.046  17.958   7.532  0.00  0.00     0.039 A 
HETATM   16  C   UNK N   1      34.233  18.250   8.192  0.00  0.00     0.005 A 
HETATM   17  C   UNK N   1      34.807  17.310   9.033  0.00  0.00     0.026 A 
HETATM   18  C   UNK N   1      34.202  16.074   9.220  0.00  0.00     0.058 A 
HETATM   19  C   UNK N   1      32.992  15.750   8.562  0.00  0.00     0.089 A 
HETATM   20 Cl   UNK N   1      34.999  14.935  10.307  0.00  0.00    -0.082 Cl
HETATM   21 Cl   UNK N   1      32.374  14.140   8.920  0.00  0.00    -0.080 Cl
ENDBRANCH  13  14
ENDBRANCH   6  13
BRANCH   7  22
HETATM   22  S   UNK N   1      25.799  20.217   3.213  0.00  0.00    -0.098 SA
HETATM   23  C   UNK N   1      24.290  19.366   3.754  0.00  0.00     0.099 C 
ENDBRANCH   7  22
TORSDOF 3
ENDMDL
MODEL 8
REMARK VINA RESULT:      -6.0      3.157      4.416
REMARK  3 active torsions:
REMARK  status: ('A' for Active; 'I' for Inactive)
REMARK    1  A    between atoms: O_21  and  C_11 
REMARK    2  A    between atoms: O_21  and  C_12 
REMARK    3  A    between atoms: S_22  and  C_14 
ROOT
HETATM    1  C   UNK N   1      35.956  14.237   8.519  0.00  0.00     0.058 A 
HETATM    2  C   UNK N   1      34.640  16.575   9.378  0.00  0.00     0.071 A 
HETATM    3  C   UNK N   1      35.352  15.109   7.580  0.00  0.00     0.070 A 
HETATM    4  C   UNK N   1      35.870  14.584   9.864  0.00  0.00     0.062 A 
HETATM    5  C   UNK N   1      35.237  15.708  10.267  0.00  0.00     0.064 A 
HETATM    6  C   UNK N   1      34.684  16.296   8.014  0.00  0.00     0.100 A 
HETATM    7  C   UNK N   1      35.980  14.720  11.983  0.00  0.00     0.144 A 
HETATM    8 Cl   UNK N   1      35.439  14.706   5.873  0.00  0.00    -0.081 Cl
HETATM    9  N   UNK N   1      36.354  13.934  10.936  0.00  0.00    -0.335 N 
HETATM   10  N   UNK N   1      35.290  15.819  11.597  0.00  0.00    -0.335 N 
ATOM     11  HN  UNK N   1      34.903  16.559  12.183  1.00  0.00     0.168 HD
HETATM   12  H   UNK N   1      36.859  13.090  10.959  0.00  0.00     0.168 HD
ENDROOT
BRANCH   6  13
HETATM   13  O   UNK N   1      34.114  17.114   7.085  0.00  0.00    -0.307 OA
BRANCH  13  14
HETATM   14  C   UNK N   1      32.960  17.221   6.344  0.00  0.00     0.099 A 
HETATM   15  C   UNK N   1      33.181  17.509   4.990  0.00  0.00     0.039 A 
HETATM   16  C   UNK N   1      32.140  17.655   4.081  0.00  0.00     0.005 A 
HETATM   17  C   UNK N   1      30.828  17.515   4.504  0.00  0.00     0.026 A 
HETATM   18  C   UNK N   1      30.546  17.230   5.834  0.00  0.00     0.058 A 
HETATM   19  C   UNK N   1      31.586  17.076   6.781  0.00  0.00     0.089 A 
HETATM   20 Cl   UNK N   1      28.849  17.068   6.288  0.00  0.00    -0.082 Cl
HETATM   21 Cl   UNK N   1      31.039  16.718   8.416  0.00  0.00    -0.080 Cl
ENDBRANCH  13  14
ENDBRANCH   6  13
BRANCH   7  22
HETATM   22  S   UNK N   1      36.338  14.382  13.712  0.00  0.00    -0.098 SA
HETATM   23  C   UNK N   1      36.294  12.574  13.567  0.00  0.00     0.099 C 
ENDBRANCH   7  22
TORSDOF 3
ENDMDL
MODEL 9
REMARK VINA RESULT:      -6.0      9.029     11.422
REMARK  3 active torsions:
REMARK  status: ('A' for Active; 'I' for Inactive)
REMARK    1  A    between atoms: O_21  and  C_11 
REMARK    2  A    between atoms: O_21  and  C_12 
REMARK    3  A    between atoms: S_22  and  C_14 
ROOT
HETATM    1  C   UNK N   1      34.461  10.083  15.269  0.00  0.00     0.058 A 
HETATM    2  C   UNK N   1      35.048  12.811  15.664  0.00  0.00     0.071 A 
HETATM    3  C   UNK N   1      34.403  10.995  14.187  0.00  0.00     0.070 A 
HETATM    4  C   UNK N   1      34.817  10.589  16.516  0.00  0.00     0.062 A 
HETATM    5  C   UNK N   1      35.097  11.899  16.696  0.00  0.00     0.064 A 
HETATM    6  C   UNK N   1      34.700  12.380  14.386  0.00  0.00     0.100 A 
HETATM    7  C   UNK N   1      35.308  10.919  18.559  0.00  0.00     0.144 A 
HETATM    8 Cl   UNK N   1      33.958  10.395  12.598  0.00  0.00    -0.081 Cl
HETATM    9  N   UNK N   1      34.943   9.940  17.686  0.00  0.00    -0.335 N 
HETATM   10  N   UNK N   1      35.409  12.136  17.973  0.00  0.00    -0.335 N 
ATOM     11  HN  UNK N   1      35.664  13.024  18.405  1.00  0.00     0.168 HD
HETATM   12  H   UNK N   1      34.805   8.983  17.869  0.00  0.00     0.168 HD
ENDROOT
BRANCH   6  13
HETATM   13  O   UNK N   1      34.635  13.232  13.324  0.00  0.00    -0.307 OA
BRANCH  13  14
HETATM   14  C   UNK N   1      35.404  13.655  12.265  0.00  0.00     0.099 A 
HETATM   15  C   UNK N   1      34.836  14.710  11.538  0.00  0.00     0.039 A 
HETATM   16  C   UNK N   1      35.463  15.275  10.434  0.00  0.00     0.005 A 
HETATM   17  C   UNK N   1      36.695  14.796  10.018  0.00  0.00     0.026 A 
HETATM   18  C   UNK N   1      37.308  13.752  10.698  0.00  0.00     0.058 A 
HETATM   19  C   UNK N   1      36.692  13.158  11.826  0.00  0.00     0.089 A 
HETATM   20 Cl   UNK N   1      38.875  13.202  10.103  0.00  0.00    -0.082 Cl
HETATM   21 Cl   UNK N   1      37.616  11.850  12.558  0.00  0.00    -0.080 Cl
ENDBRANCH  13  14
ENDBRANCH   6  13
BRANCH   7  22
HETATM   22  S   UNK N   1      35.632  10.679  20.310  0.00  0.00    -0.098 SA
HETATM   23  C   UNK N   1      37.143   9.697  20.092  0.00  0.00     0.099 C 
ENDBRANCH   7  22
TORSDOF 3
ENDMDL
