MODEL 1
REMARK VINA RESULT:      -7.6      0.000      0.000
REMARK  4 active torsions:
REMARK  status: ('A' for Active; 'I' for Inactive)
REMARK    1  A    between atoms: C_5  and  O_27 
REMARK    2  A    between atoms: C_15  and  O_25 
REMARK    3  A    between atoms: C_18  and  C_19 
REMARK    4  A    between atoms: C_18  and  O_24 
ROOT
HETATM    1  C   UNK N   1      30.872  16.307   6.256  0.00  0.00     0.016 C 
HETATM    2  C   UNK N   1      32.066  15.617   5.593  0.00  0.00    -0.036 C 
HETATM    3  C   UNK N   1      31.538  14.408   4.793  0.00  0.00     0.012 C 
HETATM    4  C   UNK N   1      31.506  14.603   3.270  0.00  0.00     0.032 C 
HETATM    5  C   UNK N   1      31.074  16.013   2.868  0.00  0.00     0.118 C 
HETATM    6  C   UNK N   1      31.956  17.102   3.494  0.00  0.00     0.037 C 
HETATM    7  C   UNK N   1      32.815  16.602   4.663  0.00  0.00    -0.004 C 
HETATM    8  C   UNK N   1      33.477  17.792   5.375  0.00  0.00     0.006 C 
HETATM    9  C   UNK N   1      33.505  17.663   6.900  0.00  0.00     0.008 C 
HETATM   10  C   UNK N   1      33.893  16.251   7.343  0.00  0.00     0.026 C 
HETATM   11  C   UNK N   1      33.064  15.114   6.662  0.00  0.00     0.001 C 
HETATM   12  C   UNK N   1      32.435  14.085   7.639  0.00  0.00     0.007 C 
HETATM   13  C   UNK N   1      33.342  13.624   8.800  0.00  0.00     0.016 C 
HETATM   14  C   UNK N   1      34.386  14.672   9.222  0.00  0.00     0.023 C 
HETATM   15  C   UNK N   1      33.936  16.096   8.868  0.00  0.00     0.072 C 
HETATM   16  C   UNK N   1      34.954  16.965   9.596  0.00  0.00     0.042 C 
HETATM   17  C   UNK N   1      35.346  16.157  10.849  0.00  0.00     0.047 C 
HETATM   18  C   UNK N   1      34.640  14.793  10.738  0.00  0.00     0.097 C 
HETATM   19  C   UNK N   1      35.704  14.328   8.495  0.00  0.00     0.022 C 
ENDROOT
BRANCH  18  20
HETATM   20  C   UNK N   1      35.445  13.658  11.326  0.00  0.00     0.001 A 
HETATM   21  C   UNK N   1      34.992  12.375  11.547  0.00  0.00     0.036 A 
HETATM   22  C   UNK N   1      36.068  11.698  12.090  0.00  0.00     0.142 A 
HETATM   23  O   UNK N   1      37.091  12.519  12.187  0.00  0.00    -0.334 OA
HETATM   24  C   UNK N   1      36.760  13.707  11.739  0.00  0.00     0.151 A 
ENDBRANCH  18  20
BRANCH  18  25
HETATM   25  O   UNK N   1      33.427  14.873  11.432  0.00  0.00    -0.384 OA
HETATM   26  H   UNK N   1      32.704  15.121  12.030  0.00  0.00     0.211 HD
ENDBRANCH  18  25
BRANCH  15  27
HETATM   27  O   UNK N   1      32.666  16.374   9.396  0.00  0.00    -0.389 OA
HETATM   28  H   UNK N   1      31.731  16.378   9.656  0.00  0.00     0.210 HD
ENDBRANCH  15  27
BRANCH   5  29
HETATM   29  O   UNK N   1      29.739  16.222   3.213  0.00  0.00    -0.396 OA
HETATM   30  H   UNK N   1      28.969  16.624   3.646  0.00  0.00     0.210 HD
ENDBRANCH   5  29
TORSDOF 4
ENDMDL
MODEL 2
REMARK VINA RESULT:      -7.6      1.494      2.503
REMARK  4 active torsions:
REMARK  status: ('A' for Active; 'I' for Inactive)
REMARK    1  A    between atoms: C_5  and  O_27 
REMARK    2  A    between atoms: C_15  and  O_25 
REMARK    3  A    between atoms: C_18  and  C_19 
REMARK    4  A    between atoms: C_18  and  O_24 
ROOT
HETATM    1  C   UNK N   1      32.034  15.829   8.091  0.00  0.00     0.016 C 
HETATM    2  C   UNK N   1      33.347  15.468   7.393  0.00  0.00    -0.036 C 
HETATM    3  C   UNK N   1      33.016  14.571   6.183  0.00  0.00     0.012 C 
HETATM    4  C   UNK N   1      33.117  15.263   4.815  0.00  0.00     0.032 C 
HETATM    5  C   UNK N   1      32.596  16.699   4.847  0.00  0.00     0.118 C 
HETATM    6  C   UNK N   1      33.306  17.563   5.898  0.00  0.00     0.037 C 
HETATM    7  C   UNK N   1      34.088  16.748   6.937  0.00  0.00    -0.004 C 
HETATM    8  C   UNK N   1      34.563  17.665   8.076  0.00  0.00     0.006 C 
HETATM    9  C   UNK N   1      34.451  17.034   9.465  0.00  0.00     0.008 C 
HETATM   10  C   UNK N   1      34.924  15.579   9.467  0.00  0.00     0.026 C 
HETATM   11  C   UNK N   1      34.277  14.692   8.354  0.00  0.00     0.001 C 
HETATM   12  C   UNK N   1      33.653  13.362   8.855  0.00  0.00     0.007 C 
HETATM   13  C   UNK N   1      34.480  12.589   9.905  0.00  0.00     0.016 C 
HETATM   14  C   UNK N   1      35.376  13.491  10.772  0.00  0.00     0.023 C 
HETATM   15  C   UNK N   1      34.831  14.924  10.851  0.00  0.00     0.072 C 
HETATM   16  C   UNK N   1      35.686  15.553  11.943  0.00  0.00     0.042 C 
HETATM   17  C   UNK N   1      36.026  14.394  12.901  0.00  0.00     0.047 C 
HETATM   18  C   UNK N   1      35.466  13.110  12.264  0.00  0.00     0.097 C 
HETATM   19  C   UNK N   1      36.785  13.485  10.142  0.00  0.00     0.022 C 
ENDROOT
BRANCH  18  20
HETATM   20  C   UNK N   1      36.311  11.891  12.544  0.00  0.00     0.001 A 
HETATM   21  C   UNK N   1      37.542  11.884  13.165  0.00  0.00     0.036 A 
HETATM   22  C   UNK N   1      37.926  10.558  13.200  0.00  0.00     0.142 A 
HETATM   23  O   UNK N   1      36.992   9.822  12.637  0.00  0.00    -0.334 OA
HETATM   24  C   UNK N   1      36.004  10.583  12.229  0.00  0.00     0.151 A 
ENDBRANCH  18  20
BRANCH  18  25
HETATM   25  O   UNK N   1      34.188  12.885  12.789  0.00  0.00    -0.384 OA
HETATM   26  H   UNK N   1      33.346  12.493  13.070  0.00  0.00     0.211 HD
ENDBRANCH  18  25
BRANCH  15  27
HETATM   27  O   UNK N   1      33.494  14.938  11.278  0.00  0.00    -0.389 OA
HETATM   28  H   UNK N   1      32.555  15.122  11.436  0.00  0.00     0.210 HD
ENDBRANCH  15  27
BRANCH   5  29
HETATM   29  O   UNK N   1      31.219  16.707   5.071  0.00  0.00    -0.396 OA
HETATM   30  H   UNK N   1      30.367  16.973   5.449  0.00  0.00     0.210 HD
ENDBRANCH   5  29
TORSDOF 4
ENDMDL
MODEL 3
REMARK VINA RESULT:      -7.3     12.843     17.218
REMARK  4 active torsions:
REMARK  status: ('A' for Active; 'I' for Inactive)
REMARK    1  A    between atoms: C_5  and  O_27 
REMARK    2  A    between atoms: C_15  and  O_25 
REMARK    3  A    between atoms: C_18  and  C_19 
REMARK    4  A    between atoms: C_18  and  O_24 
ROOT
HETATM    1  C   UNK N   1      30.765  20.656  -4.863  0.00  0.00     0.016 C 
HETATM    2  C   UNK N   1      31.578  21.842  -4.338  0.00  0.00    -0.036 C 
HETATM    3  C   UNK N   1      32.009  21.526  -2.892  0.00  0.00     0.012 C 
HETATM    4  C   UNK N   1      33.488  21.145  -2.725  0.00  0.00     0.032 C 
HETATM    5  C   UNK N   1      33.999  20.267  -3.866  0.00  0.00     0.118 C 
HETATM    6  C   UNK N   1      33.802  20.915  -5.243  0.00  0.00     0.037 C 
HETATM    7  C   UNK N   1      32.815  22.090  -5.235  0.00  0.00    -0.004 C 
HETATM    8  C   UNK N   1      32.498  22.520  -6.676  0.00  0.00     0.006 C 
HETATM    9  C   UNK N   1      31.027  22.879  -6.905  0.00  0.00     0.008 C 
HETATM   10  C   UNK N   1      30.465  23.724  -5.760  0.00  0.00     0.026 C 
HETATM   11  C   UNK N   1      30.721  23.129  -4.337  0.00  0.00     0.001 C 
HETATM   12  C   UNK N   1      29.461  23.014  -3.438  0.00  0.00     0.007 C 
HETATM   13  C   UNK N   1      28.500  24.221  -3.476  0.00  0.00     0.016 C 
HETATM   14  C   UNK N   1      28.531  24.994  -4.806  0.00  0.00     0.023 C 
HETATM   15  C   UNK N   1      28.994  24.105  -5.968  0.00  0.00     0.072 C 
HETATM   16  C   UNK N   1      28.696  24.962  -7.191  0.00  0.00     0.042 C 
HETATM   17  C   UNK N   1      27.462  25.800  -6.801  0.00  0.00     0.047 C 
HETATM   18  C   UNK N   1      27.166  25.495  -5.322  0.00  0.00     0.097 C 
HETATM   19  C   UNK N   1      29.493  26.188  -4.624  0.00  0.00     0.022 C 
ENDROOT
BRANCH  18  20
HETATM   20  C   UNK N   1      26.615  26.682  -4.569  0.00  0.00     0.001 A 
HETATM   21  C   UNK N   1      26.407  27.943  -5.086  0.00  0.00     0.036 A 
HETATM   22  C   UNK N   1      25.896  28.687  -4.040  0.00  0.00     0.142 A 
HETATM   23  O   UNK N   1      25.806  27.925  -2.972  0.00  0.00    -0.334 OA
HETATM   24  C   UNK N   1      26.228  26.713  -3.245  0.00  0.00     0.151 A 
ENDBRANCH  18  20
BRANCH  18  25
HETATM   25  O   UNK N   1      26.217  24.466  -5.271  0.00  0.00    -0.384 OA
HETATM   26  H   UNK N   1      25.433  23.909  -5.393  0.00  0.00     0.211 HD
ENDBRANCH  18  25
BRANCH  15  27
HETATM   27  O   UNK N   1      28.222  22.936  -6.053  0.00  0.00    -0.389 OA
HETATM   28  H   UNK N   1      27.741  22.108  -5.897  0.00  0.00     0.210 HD
ENDBRANCH  15  27
BRANCH   5  29
HETATM   29  O   UNK N   1      33.376  19.020  -3.830  0.00  0.00    -0.396 OA
HETATM   30  H   UNK N   1      33.264  18.070  -3.671  0.00  0.00     0.210 HD
ENDBRANCH   5  29
TORSDOF 4
ENDMDL
MODEL 4
REMARK VINA RESULT:      -7.0      3.835      8.870
REMARK  4 active torsions:
REMARK  status: ('A' for Active; 'I' for Inactive)
REMARK    1  A    between atoms: C_5  and  O_27 
REMARK    2  A    between atoms: C_15  and  O_25 
REMARK    3  A    between atoms: C_18  and  C_19 
REMARK    4  A    between atoms: C_18  and  O_24 
ROOT
HETATM    1  C   UNK N   1      31.649  15.451   7.080  0.00  0.00     0.016 C 
HETATM    2  C   UNK N   1      31.628  16.959   6.813  0.00  0.00    -0.036 C 
HETATM    3  C   UNK N   1      31.795  17.687   8.162  0.00  0.00     0.012 C 
HETATM    4  C   UNK N   1      33.181  18.304   8.398  0.00  0.00     0.032 C 
HETATM    5  C   UNK N   1      34.313  17.417   7.882  0.00  0.00     0.118 C 
HETATM    6  C   UNK N   1      34.164  17.076   6.393  0.00  0.00     0.037 C 
HETATM    7  C   UNK N   1      32.761  17.353   5.836  0.00  0.00    -0.004 C 
HETATM    8  C   UNK N   1      32.633  16.767   4.421  0.00  0.00     0.006 C 
HETATM    9  C   UNK N   1      31.280  16.108   4.144  0.00  0.00     0.008 C 
HETATM   10  C   UNK N   1      30.120  16.947   4.685  0.00  0.00     0.026 C 
HETATM   11  C   UNK N   1      30.281  17.378   6.179  0.00  0.00     0.001 C 
HETATM   12  C   UNK N   1      29.063  17.064   7.088  0.00  0.00     0.007 C 
HETATM   13  C   UNK N   1      27.677  17.354   6.472  0.00  0.00     0.016 C 
HETATM   14  C   UNK N   1      27.647  17.244   4.937  0.00  0.00     0.023 C 
HETATM   15  C   UNK N   1      28.750  16.314   4.414  0.00  0.00     0.072 C 
HETATM   16  C   UNK N   1      28.378  16.137   2.948  0.00  0.00     0.042 C 
HETATM   17  C   UNK N   1      26.840  16.238   2.911  0.00  0.00     0.047 C 
HETATM   18  C   UNK N   1      26.382  16.598   4.336  0.00  0.00     0.097 C 
HETATM   19  C   UNK N   1      27.830  18.668   4.369  0.00  0.00     0.022 C 
ENDROOT
BRANCH  18  20
HETATM   20  C   UNK N   1      25.160  17.485   4.361  0.00  0.00     0.001 A 
HETATM   21  C   UNK N   1      24.920  18.557   3.529  0.00  0.00     0.036 A 
HETATM   22  C   UNK N   1      23.692  19.055   3.919  0.00  0.00     0.142 A 
HETATM   23  O   UNK N   1      23.230  18.331   4.916  0.00  0.00    -0.334 OA
HETATM   24  C   UNK N   1      24.081  17.378   5.214  0.00  0.00     0.151 A 
ENDBRANCH  18  20
BRANCH  18  25
HETATM   25  O   UNK N   1      26.075  15.409   5.008  0.00  0.00    -0.384 OA
HETATM   26  H   UNK N   1      25.823  14.501   5.236  0.00  0.00     0.211 HD
ENDBRANCH  18  25
BRANCH  15  27
HETATM   27  O   UNK N   1      28.692  15.056   5.035  0.00  0.00    -0.389 OA
HETATM   28  H   UNK N   1      28.506  14.142   5.301  0.00  0.00     0.210 HD
ENDBRANCH  15  27
BRANCH   5  29
HETATM   29  O   UNK N   1      34.388  16.246   8.636  0.00  0.00    -0.396 OA
HETATM   30  H   UNK N   1      34.086  15.486   9.157  0.00  0.00     0.210 HD
ENDBRANCH   5  29
TORSDOF 4
ENDMDL
MODEL 5
REMARK VINA RESULT:      -7.0      2.523      4.282
REMARK  4 active torsions:
REMARK  status: ('A' for Active; 'I' for Inactive)
REMARK    1  A    between atoms: C_5  and  O_27 
REMARK    2  A    between atoms: C_15  and  O_25 
REMARK    3  A    between atoms: C_18  and  C_19 
REMARK    4  A    between atoms: C_18  and  O_24 
ROOT
HETATM    1  C   UNK N   1      29.087  17.818   4.606  0.00  0.00     0.016 C 
HETATM    2  C   UNK N   1      28.803  16.596   5.483  0.00  0.00    -0.036 C 
HETATM    3  C   UNK N   1      27.667  16.961   6.460  0.00  0.00     0.012 C 
HETATM    4  C   UNK N   1      26.299  16.349   6.121  0.00  0.00     0.032 C 
HETATM    5  C   UNK N   1      26.019  16.337   4.619  0.00  0.00     0.118 C 
HETATM    6  C   UNK N   1      27.107  15.605   3.821  0.00  0.00     0.037 C 
HETATM    7  C   UNK N   1      28.404  15.383   4.610  0.00  0.00    -0.004 C 
HETATM    8  C   UNK N   1      29.507  14.865   3.672  0.00  0.00     0.006 C 
HETATM    9  C   UNK N   1      30.885  15.470   3.947  0.00  0.00     0.008 C 
HETATM   10  C   UNK N   1      31.187  15.539   5.445  0.00  0.00     0.026 C 
HETATM   11  C   UNK N   1      30.060  16.209   6.297  0.00  0.00     0.001 C 
HETATM   12  C   UNK N   1      30.539  17.342   7.243  0.00  0.00     0.007 C 
HETATM   13  C   UNK N   1      31.854  17.066   8.004  0.00  0.00     0.016 C 
HETATM   14  C   UNK N   1      32.808  16.113   7.264  0.00  0.00     0.023 C 
HETATM   15  C   UNK N   1      32.568  16.134   5.749  0.00  0.00     0.072 C 
HETATM   16  C   UNK N   1      33.760  15.358   5.204  0.00  0.00     0.042 C 
HETATM   17  C   UNK N   1      34.907  15.642   6.194  0.00  0.00     0.047 C 
HETATM   18  C   UNK N   1      34.307  16.468   7.346  0.00  0.00     0.097 C 
HETATM   19  C   UNK N   1      32.572  14.695   7.827  0.00  0.00     0.022 C 
ENDROOT
BRANCH  18  20
HETATM   20  C   UNK N   1      34.943  16.171   8.683  0.00  0.00     0.001 A 
HETATM   21  C   UNK N   1      34.920  16.993   9.791  0.00  0.00     0.036 A 
HETATM   22  C   UNK N   1      35.622  16.310  10.766  0.00  0.00     0.142 A 
HETATM   23  O   UNK N   1      36.036  15.161  10.276  0.00  0.00    -0.334 OA
HETATM   24  C   UNK N   1      35.650  15.038   9.028  0.00  0.00     0.151 A 
ENDBRANCH  18  20
BRANCH  18  25
HETATM   25  O   UNK N   1      34.504  17.824   7.060  0.00  0.00    -0.384 OA
HETATM   26  H   UNK N   1      34.728  18.767   7.100  0.00  0.00     0.211 HD
ENDBRANCH  18  25
BRANCH  15  27
HETATM   27  O   UNK N   1      32.628  17.441   5.241  0.00  0.00    -0.389 OA
HETATM   28  H   UNK N   1      32.546  18.259   4.726  0.00  0.00     0.210 HD
ENDBRANCH  15  27
BRANCH   5  29
HETATM   29  O   UNK N   1      25.875  17.642   4.147  0.00  0.00    -0.396 OA
HETATM   30  H   UNK N   1      25.443  18.484   3.935  0.00  0.00     0.210 HD
ENDBRANCH   5  29
TORSDOF 4
ENDMDL
MODEL 6
REMARK VINA RESULT:      -7.0      2.915      5.953
REMARK  4 active torsions:
REMARK  status: ('A' for Active; 'I' for Inactive)
REMARK    1  A    between atoms: C_5  and  O_27 
REMARK    2  A    between atoms: C_15  and  O_25 
REMARK    3  A    between atoms: C_18  and  C_19 
REMARK    4  A    between atoms: C_18  and  O_24 
ROOT
HETATM    1  C   UNK N   1      36.498  14.727   9.381  0.00  0.00     0.016 C 
HETATM    2  C   UNK N   1      35.116  14.120   9.636  0.00  0.00    -0.036 C 
HETATM    3  C   UNK N   1      34.075  15.256   9.573  0.00  0.00     0.012 C 
HETATM    4  C   UNK N   1      33.221  15.283   8.296  0.00  0.00     0.032 C 
HETATM    5  C   UNK N   1      34.028  14.937   7.045  0.00  0.00     0.118 C 
HETATM    6  C   UNK N   1      34.728  13.575   7.152  0.00  0.00     0.037 C 
HETATM    7  C   UNK N   1      34.800  13.031   8.584  0.00  0.00    -0.004 C 
HETATM    8  C   UNK N   1      35.715  11.796   8.632  0.00  0.00     0.006 C 
HETATM    9  C   UNK N   1      36.612  11.739   9.870  0.00  0.00     0.008 C 
HETATM   10  C   UNK N   1      35.851  12.121  11.141  0.00  0.00     0.026 C 
HETATM   11  C   UNK N   1      35.061  13.466  11.036  0.00  0.00     0.001 C 
HETATM   12  C   UNK N   1      35.329  14.475  12.185  0.00  0.00     0.007 C 
HETATM   13  C   UNK N   1      35.400  13.870  13.603  0.00  0.00     0.016 C 
HETATM   14  C   UNK N   1      35.871  12.405  13.628  0.00  0.00     0.023 C 
HETATM   15  C   UNK N   1      36.725  12.063  12.400  0.00  0.00     0.072 C 
HETATM   16  C   UNK N   1      37.294  10.695  12.751  0.00  0.00     0.042 C 
HETATM   17  C   UNK N   1      37.433  10.703  14.287  0.00  0.00     0.047 C 
HETATM   18  C   UNK N   1      36.819  12.025  14.783  0.00  0.00     0.097 C 
HETATM   19  C   UNK N   1      34.609  11.516  13.670  0.00  0.00     0.022 C 
ENDROOT
BRANCH  18  20
HETATM   20  C   UNK N   1      36.142  11.898  16.126  0.00  0.00     0.001 A 
HETATM   21  C   UNK N   1      36.099  10.763  16.907  0.00  0.00     0.036 A 
HETATM   22  C   UNK N   1      35.380  11.120  18.032  0.00  0.00     0.142 A 
HETATM   23  O   UNK N   1      35.019  12.381  17.931  0.00  0.00    -0.334 OA
HETATM   24  C   UNK N   1      35.456  12.886  16.801  0.00  0.00     0.151 A 
ENDBRANCH  18  20
BRANCH  18  25
HETATM   25  O   UNK N   1      37.849  12.967  14.899  0.00  0.00    -0.384 OA
HETATM   26  H   UNK N   1      38.553  13.611  14.725  0.00  0.00     0.211 HD
ENDBRANCH  18  25
BRANCH  15  27
HETATM   27  O   UNK N   1      37.795  12.960  12.259  0.00  0.00    -0.389 OA
HETATM   28  H   UNK N   1      38.416  13.705  12.303  0.00  0.00     0.210 HD
ENDBRANCH  15  27
BRANCH   5  29
HETATM   29  O   UNK N   1      34.965  15.937   6.785  0.00  0.00    -0.396 OA
HETATM   30  H   UNK N   1      35.315  16.827   6.622  0.00  0.00     0.210 HD
ENDBRANCH   5  29
TORSDOF 4
ENDMDL
MODEL 7
REMARK VINA RESULT:      -6.9      9.487     13.426
REMARK  4 active torsions:
REMARK  status: ('A' for Active; 'I' for Inactive)
REMARK    1  A    between atoms: C_5  and  O_27 
REMARK    2  A    between atoms: C_15  and  O_25 
REMARK    3  A    between atoms: C_18  and  C_19 
REMARK    4  A    between atoms: C_18  and  O_24 
ROOT
HETATM    1  C   UNK N   1      22.850  11.938   7.673  0.00  0.00     0.016 C 
HETATM    2  C   UNK N   1      22.720  13.222   8.497  0.00  0.00    -0.036 C 
HETATM    3  C   UNK N   1      21.562  13.034   9.498  0.00  0.00     0.012 C 
HETATM    4  C   UNK N   1      21.994  12.797  10.953  0.00  0.00     0.032 C 
HETATM    5  C   UNK N   1      23.227  11.901  11.058  0.00  0.00     0.118 C 
HETATM    6  C   UNK N   1      24.422  12.443  10.263  0.00  0.00     0.037 C 
HETATM    7  C   UNK N   1      24.042  13.524   9.242  0.00  0.00    -0.004 C 
HETATM    8  C   UNK N   1      25.244  13.836   8.335  0.00  0.00     0.006 C 
HETATM    9  C   UNK N   1      24.871  14.047   6.866  0.00  0.00     0.008 C 
HETATM   10  C   UNK N   1      23.614  14.907   6.718  0.00  0.00     0.026 C 
HETATM   11  C   UNK N   1      22.401  14.425   7.579  0.00  0.00     0.001 C 
HETATM   12  C   UNK N   1      21.070  14.253   6.800  0.00  0.00     0.007 C 
HETATM   13  C   UNK N   1      20.744  15.366   5.781  0.00  0.00     0.016 C 
HETATM   14  C   UNK N   1      21.990  16.056   5.199  0.00  0.00     0.023 C 
HETATM   15  C   UNK N   1      23.222  15.143   5.254  0.00  0.00     0.072 C 
HETATM   16  C   UNK N   1      24.240  15.893   4.407  0.00  0.00     0.042 C 
HETATM   17  C   UNK N   1      23.405  16.640   3.347  0.00  0.00     0.047 C 
HETATM   18  C   UNK N   1      21.925  16.400   3.697  0.00  0.00     0.097 C 
HETATM   19  C   UNK N   1      22.233  17.339   6.022  0.00  0.00     0.022 C 
ENDROOT
BRANCH  18  20
HETATM   20  C   UNK N   1      21.039  17.578   3.367  0.00  0.00     0.001 A 
HETATM   21  C   UNK N   1      21.455  18.881   3.193  0.00  0.00     0.036 A 
HETATM   22  C   UNK N   1      20.307  19.596   2.909  0.00  0.00     0.142 A 
HETATM   23  O   UNK N   1      19.277  18.778   2.913  0.00  0.00    -0.334 OA
HETATM   24  C   UNK N   1      19.672  17.556   3.185  0.00  0.00     0.151 A 
ENDBRANCH  18  20
BRANCH  18  25
HETATM   25  O   UNK N   1      21.477  15.297   2.961  0.00  0.00    -0.384 OA
HETATM   26  H   UNK N   1      21.410  14.527   2.374  0.00  0.00     0.211 HD
ENDBRANCH  18  25
BRANCH  15  27
HETATM   27  O   UNK N   1      22.967  13.906   4.641  0.00  0.00    -0.389 OA
HETATM   28  H   UNK N   1      22.580  13.096   4.274  0.00  0.00     0.210 HD
ENDBRANCH  15  27
BRANCH   5  29
HETATM   29  O   UNK N   1      22.918  10.607  10.636  0.00  0.00    -0.396 OA
HETATM   30  H   UNK N   1      22.384   9.817  10.463  0.00  0.00     0.210 HD
ENDBRANCH   5  29
TORSDOF 4
ENDMDL
MODEL 8
REMARK VINA RESULT:      -6.9      1.524      7.255
REMARK  4 active torsions:
REMARK  status: ('A' for Active; 'I' for Inactive)
REMARK    1  A    between atoms: C_5  and  O_27 
REMARK    2  A    between atoms: C_15  and  O_25 
REMARK    3  A    between atoms: C_18  and  C_19 
REMARK    4  A    between atoms: C_18  and  O_24 
ROOT
HETATM    1  C   UNK N   1      36.678  14.219   9.551  0.00  0.00     0.016 C 
HETATM    2  C   UNK N   1      35.263  14.079  10.120  0.00  0.00    -0.036 C 
HETATM    3  C   UNK N   1      35.074  12.619  10.580  0.00  0.00     0.012 C 
HETATM    4  C   UNK N   1      35.113  12.409  12.101  0.00  0.00     0.032 C 
HETATM    5  C   UNK N   1      36.167  13.279  12.785  0.00  0.00     0.118 C 
HETATM    6  C   UNK N   1      35.982  14.773  12.491  0.00  0.00     0.037 C 
HETATM    7  C   UNK N   1      35.055  15.056  11.301  0.00  0.00    -0.004 C 
HETATM    8  C   UNK N   1      35.114  16.546  10.931  0.00  0.00     0.006 C 
HETATM    9  C   UNK N   1      35.111  16.809   9.423  0.00  0.00     0.008 C 
HETATM   10  C   UNK N   1      34.097  15.926   8.694  0.00  0.00     0.026 C 
HETATM   11  C   UNK N   1      34.209  14.404   9.036  0.00  0.00     0.001 C 
HETATM   12  C   UNK N   1      34.297  13.461   7.807  0.00  0.00     0.007 C 
HETATM   13  C   UNK N   1      33.347  13.798   6.637  0.00  0.00     0.016 C 
HETATM   14  C   UNK N   1      32.988  15.291   6.542  0.00  0.00     0.023 C 
HETATM   15  C   UNK N   1      34.067  16.175   7.182  0.00  0.00     0.072 C 
HETATM   16  C   UNK N   1      33.660  17.577   6.748  0.00  0.00     0.042 C 
HETATM   17  C   UNK N   1      32.988  17.390   5.372  0.00  0.00     0.047 C 
HETATM   18  C   UNK N   1      32.914  15.873   5.116  0.00  0.00     0.097 C 
HETATM   19  C   UNK N   1      31.636  15.487   7.261  0.00  0.00     0.022 C 
ENDROOT
BRANCH  18  20
HETATM   20  C   UNK N   1      31.685  15.462   4.341  0.00  0.00     0.001 A 
HETATM   21  C   UNK N   1      30.590  16.257   4.078  0.00  0.00     0.036 A 
HETATM   22  C   UNK N   1      29.728  15.462   3.346  0.00  0.00     0.142 A 
HETATM   23  O   UNK N   1      30.270  14.274   3.184  0.00  0.00    -0.334 OA
HETATM   24  C   UNK N   1      31.445  14.231   3.766  0.00  0.00     0.151 A 
ENDBRANCH  18  20
BRANCH  18  25
HETATM   25  O   UNK N   1      34.042  15.501   4.376  0.00  0.00    -0.384 OA
HETATM   26  H   UNK N   1      34.860  15.495   3.854  0.00  0.00     0.211 HD
ENDBRANCH  18  25
BRANCH  15  27
HETATM   27  O   UNK N   1      35.335  15.901   6.644  0.00  0.00    -0.389 OA
HETATM   28  H   UNK N   1      36.235  15.590   6.459  0.00  0.00     0.210 HD
ENDBRANCH  15  27
BRANCH   5  29
HETATM   29  O   UNK N   1      37.446  12.872  12.406  0.00  0.00    -0.396 OA
HETATM   30  H   UNK N   1      38.165  12.573  11.827  0.00  0.00     0.210 HD
ENDBRANCH   5  29
TORSDOF 4
ENDMDL
MODEL 9
REMARK VINA RESULT:      -6.7     10.649     14.113
REMARK  4 active torsions:
REMARK  status: ('A' for Active; 'I' for Inactive)
REMARK    1  A    between atoms: C_5  and  O_27 
REMARK    2  A    between atoms: C_15  and  O_25 
REMARK    3  A    between atoms: C_18  and  C_19 
REMARK    4  A    between atoms: C_18  and  O_24 
ROOT
HETATM    1  C   UNK N   1      21.066  12.717   7.808  0.00  0.00     0.016 C 
HETATM    2  C   UNK N   1      22.443  13.346   7.579  0.00  0.00    -0.036 C 
HETATM    3  C   UNK N   1      22.947  13.901   8.926  0.00  0.00     0.012 C 
HETATM    4  C   UNK N   1      24.049  13.068   9.599  0.00  0.00     0.032 C 
HETATM    5  C   UNK N   1      23.821  11.565   9.447  0.00  0.00     0.118 C 
HETATM    6  C   UNK N   1      23.692  11.132   7.981  0.00  0.00     0.037 C 
HETATM    7  C   UNK N   1      23.431  12.297   7.016  0.00  0.00    -0.004 C 
HETATM    8  C   UNK N   1      23.081  11.756   5.621  0.00  0.00     0.006 C 
HETATM    9  C   UNK N   1      21.963  12.531   4.920  0.00  0.00     0.008 C 
HETATM   10  C   UNK N   1      22.131  14.043   5.085  0.00  0.00     0.026 C 
HETATM   11  C   UNK N   1      22.346  14.507   6.562  0.00  0.00     0.001 C 
HETATM   12  C   UNK N   1      21.404  15.646   7.035  0.00  0.00     0.007 C 
HETATM   13  C   UNK N   1      21.172  16.787   6.020  0.00  0.00     0.016 C 
HETATM   14  C   UNK N   1      21.306  16.345   4.553  0.00  0.00     0.023 C 
HETATM   15  C   UNK N   1      21.029  14.846   4.384  0.00  0.00     0.072 C 
HETATM   16  C   UNK N   1      20.948  14.683   2.872  0.00  0.00     0.042 C 
HETATM   17  C   UNK N   1      20.390  16.024   2.355  0.00  0.00     0.047 C 
HETATM   18  C   UNK N   1      20.289  16.963   3.571  0.00  0.00     0.097 C 
HETATM   19  C   UNK N   1      22.744  16.681   4.100  0.00  0.00     0.022 C 
ENDROOT
BRANCH  18  20
HETATM   20  C   UNK N   1      20.556  18.409   3.229  0.00  0.00     0.001 A 
HETATM   21  C   UNK N   1      20.513  18.964   1.968  0.00  0.00     0.036 A 
HETATM   22  C   UNK N   1      20.821  20.299   2.145  0.00  0.00     0.142 A 
HETATM   23  O   UNK N   1      21.034  20.527   3.423  0.00  0.00    -0.334 OA
HETATM   24  C   UNK N   1      20.886  19.419   4.110  0.00  0.00     0.151 A 
ENDBRANCH  18  20
BRANCH  18  25
HETATM   25  O   UNK N   1      18.992  16.868   4.088  0.00  0.00    -0.384 OA
HETATM   26  H   UNK N   1      18.127  16.554   4.397  0.00  0.00     0.211 HD
ENDBRANCH  18  25
BRANCH  15  27
HETATM   27  O   UNK N   1      19.785  14.493   4.930  0.00  0.00    -0.389 OA
HETATM   28  H   UNK N   1      18.881  14.467   5.282  0.00  0.00     0.210 HD
ENDBRANCH  15  27
BRANCH   5  29
HETATM   29  O   UNK N   1      22.689  11.175  10.163  0.00  0.00    -0.396 OA
HETATM   30  H   UNK N   1      21.902  10.660  10.398  0.00  0.00     0.210 HD
ENDBRANCH   5  29
TORSDOF 4
ENDMDL
