REMARK  8 active torsions:
REMARK  status: ('A' for Active; 'I' for Inactive)
REMARK    1  A    between atoms: C_14  and  C_11 
REMARK    2  A    between atoms: C_12  and  C_15 
REMARK    3  A    between atoms: C_18  and  C_13 
REMARK    4  A    between atoms: O_32  and  C_15 
REMARK    5  A    between atoms: N_29  and  C_16 
REMARK    6  A    between atoms: N_31  and  C_17 
REMARK    7  A    between atoms: O_33  and  C_17 
REMARK    8  A    between atoms: C_19  and  C_18 
ROOT
HETATM    1  C   UNK N   1      -8.369   7.587  -0.000  0.00  0.00     0.070 C 
HETATM    2  C   UNK N   1      -7.665   6.367   0.486  0.00  0.00     0.025 A 
HETATM    3  C   UNK N   1      -8.316   5.193   0.915  0.00  0.00     0.041 A 
HETATM    4  C   UNK N   1      -5.887   4.974   0.689  0.00  0.00     0.152 A 
HETATM    5  N   UNK N   1      -6.300   6.224   0.340  0.00  0.00    -0.339 N 
ATOM      6  HN  UNK N   1      -5.678   6.962   0.011  1.00  0.00     0.168 HD
HETATM    7  S   UNK N   1      -7.137   4.070   1.163  0.00  0.00    -0.051 SA
ENDROOT
BRANCH   4   8
HETATM    8  N   UNK N   1      -4.619   4.420   0.458  0.00  0.00    -0.302 N 
HETATM    9  C   UNK N   1      -3.794   4.862  -0.425  0.00  0.00     0.221 C 
ATOM     10  HN  UNK N   1      -4.334   3.621   1.024  1.00  0.00     0.171 HD
BRANCH   9  11
HETATM   11  N   UNK N   1      -2.478   4.329  -0.448  0.00  0.00    -0.335 N 
HETATM   12  C   UNK N   1      -2.241   3.047   0.158  0.00  0.00     0.127 C 
HETATM   13  C   UNK N   1      -0.833   3.103   0.710  0.00  0.00     0.022 C 
HETATM   14  C   UNK N   1      -0.463   4.577   0.726  0.00  0.00     0.035 C 
HETATM   15  C   UNK N   1      -1.362   5.241  -0.305  0.00  0.00     0.162 C 
BRANCH  15  16
HETATM   16  C   UNK N   1      -1.764   6.616   0.202  0.00  0.00     0.132 C 
HETATM   17  N   UNK N   1      -2.393   6.743   1.316  0.00  0.00    -0.382 N 
HETATM   18  H   UNK N   1      -2.550   7.208   2.169  0.00  0.00     0.158 HD
ATOM     19  HN  UNK N   1      -3.067   5.978   1.316  1.00  0.00     0.158 HD
BRANCH  16  20
HETATM   20  O   UNK N   1      -1.507   7.708  -0.541  0.00  0.00    -0.348 OA
HETATM   21  H   UNK N   1      -0.759   7.933  -1.058  0.00  0.00     0.219 HD
ENDBRANCH  16  20
ENDBRANCH  15  16
ENDBRANCH   9  11
BRANCH   9  22
HETATM   22  O   UNK N   1      -4.128   5.877  -1.246  0.00  0.00    -0.332 OA
HETATM   23  H   UNK N   1      -3.633   6.431  -1.817  0.00  0.00     0.220 HD
ENDBRANCH   9  22
ENDBRANCH   4   8
BRANCH   3  24
HETATM   24  C   UNK N   1      -9.716   4.819   0.762  0.00  0.00    -0.014 A 
HETATM   25  C   UNK N   1     -10.770   5.719   0.596  0.00  0.00     0.030 A 
HETATM   26  C   UNK N   1     -11.983   5.239   0.078  0.00  0.00     0.089 A 
HETATM   27  N   UNK N   1     -12.076   3.951  -0.374  0.00  0.00    -0.368 N 
HETATM   28  C   UNK N   1     -11.040   3.074  -0.230  0.00  0.00     0.026 A 
ATOM     29  HN  UNK N   1     -12.936   3.641  -0.828  1.00  0.00     0.165 HD
HETATM   30  C   UNK N   1      -9.883   3.504   0.374  0.00  0.00     0.039 A 
BRANCH  28  31
HETATM   31  C   UNK N   1     -11.011   1.711  -0.900  0.00  0.00     0.092 C 
HETATM   32  C   UNK N   1      -9.680   1.533  -1.645  0.00  0.00     0.031 C 
HETATM   33  C   UNK N   1     -12.103   1.604  -1.953  0.00  0.00     0.031 C 
BRANCH  31  34
HETATM   34  C   UNK N   1     -11.164   0.588   0.135  0.00  0.00     0.400 C 
HETATM   35  F   UNK N   1     -10.187   0.677   1.115  0.00  0.00    -0.170 F 
HETATM   36  F   UNK N   1     -11.056  -0.648  -0.482  0.00  0.00    -0.170 F 
HETATM   37  F   UNK N   1     -12.407   0.681   0.735  0.00  0.00    -0.170 F 
ENDBRANCH  31  34
ENDBRANCH  28  31
ENDBRANCH   3  24
TORSDOF 8
