MODEL 1
REMARK VINA RESULT:      -8.5      0.000      0.000
REMARK  11 active torsions:
REMARK  status: ('A' for Active; 'I' for Inactive)
REMARK    1  A    between atoms: C_9  and  C_35 
REMARK    2  A    between atoms: C_12  and  N_15 
REMARK       I    between atoms: N_15  and  C_16 
REMARK    3  A    between atoms: C_18  and  C_16 
REMARK    4  A    between atoms: C_18  and  C_19 
REMARK    5  A    between atoms: C_18  and  C_25 
REMARK    6  A    between atoms: C_19  and  C_20 
REMARK    7  A    between atoms: C_20  and  C_21 
REMARK    8  A    between atoms: C_25  and  C_26 
REMARK    9  A    between atoms: C_25  and  C_32 
REMARK   10  A    between atoms: C_26  and  C_27 
REMARK   11  A    between atoms: C_27  and  C_28 
REMARK       I    between atoms: C_32  and  N_34 
ROOT
HETATM    1  N   UNK N   1      32.550  17.282   5.407  0.00  0.00    -0.332 N 
HETATM    2  C   UNK N   1      33.211  17.475   6.591  0.00  0.00     0.224 C 
HETATM    3  O   UNK N   1      34.344  17.925   6.551  0.00  0.00    -0.273 OA
HETATM    4  H   UNK N   1      33.035  17.578   4.604  0.00  0.00     0.165 HD
ENDROOT
BRANCH   1   5
HETATM    5  C   UNK N   1      31.234  16.703   5.160  0.00  0.00     0.279 C 
HETATM    6  N   UNK N   1      30.246  17.733   5.037  0.00  0.00    -0.360 N 
HETATM    7  C   UNK N   1      28.970  17.555   5.117  0.00  0.00     0.053 C 
ATOM      8  HN  UNK N   1      30.577  18.684   4.873  1.00  0.00     0.162 HD
HETATM    9  C   UNK N   1      28.346  16.173   5.216  0.00  0.00     0.018 A 
HETATM   10  C   UNK N   1      27.100  16.084   5.870  0.00  0.00     0.016 A 
HETATM   11  C   UNK N   1      28.880  14.963   4.640  0.00  0.00     0.049 A 
HETATM   12  C   UNK N   1      26.389  14.895   5.978  0.00  0.00     0.001 A 
HETATM   13  C   UNK N   1      26.895  13.741   5.410  0.00  0.00     0.002 A 
HETATM   14  C   UNK N   1      28.113  13.781   4.745  0.00  0.00     0.030 A 
HETATM   15  N   UNK N   1      30.107  14.871   3.893  0.00  0.00    -0.318 N 
HETATM   16  C   UNK N   1      30.242  13.778   2.943  0.00  0.00     0.159 C 
HETATM   17  C   UNK N   1      31.197  15.663   4.092  0.00  0.00     0.266 C 
HETATM   18  O   UNK N   1      32.218  15.441   3.467  0.00  0.00    -0.269 OA
BRANCH   7  19
HETATM   19  C   UNK N   1      28.129  18.804   5.232  0.00  0.00    -0.009 A 
HETATM   20  C   UNK N   1      27.452  19.364   4.134  0.00  0.00     0.014 A 
HETATM   21  C   UNK N   1      26.642  20.493   4.284  0.00  0.00     0.001 A 
HETATM   22  C   UNK N   1      26.498  21.084   5.539  0.00  0.00     0.000 A 
HETATM   23  C   UNK N   1      27.173  20.553   6.640  0.00  0.00     0.001 A 
HETATM   24  C   UNK N   1      27.982  19.423   6.488  0.00  0.00     0.014 A 
ENDBRANCH   7  19
ENDBRANCH   1   5
BRANCH   2  25
HETATM   25  C   UNK N   1      32.622  17.187   7.953  0.00  0.00     0.091 C 
BRANCH  25  26
HETATM   26  C   UNK N   1      31.473  18.052   8.479  0.00  0.00     0.023 C 
BRANCH  26  27
HETATM   27  C   UNK N   1      30.150  17.298   8.651  0.00  0.00     0.118 C 
BRANCH  27  28
HETATM   28  C   UNK N   1      29.284  17.789   9.810  0.00  0.00     0.387 C 
HETATM   29  F   UNK N   1      27.971  17.955   9.407  0.00  0.00    -0.171 F 
HETATM   30  F   UNK N   1      29.772  18.988  10.297  0.00  0.00    -0.171 F 
HETATM   31  F   UNK N   1      29.319  16.846  10.820  0.00  0.00    -0.171 F 
ENDBRANCH  27  28
ENDBRANCH  26  27
ENDBRANCH  25  26
BRANCH  25  32
HETATM   32  C   UNK N   1      33.218  15.999   8.748  0.00  0.00     0.091 C 
BRANCH  32  33
HETATM   33  C   UNK N   1      34.728  16.075   8.918  0.00  0.00     0.023 C 
BRANCH  33  34
HETATM   34  C   UNK N   1      35.076  16.484  10.340  0.00  0.00     0.118 C 
BRANCH  34  35
HETATM   35  C   UNK N   1      35.299  15.276  11.241  0.00  0.00     0.387 C 
HETATM   36  F   UNK N   1      35.981  14.309  10.529  0.00  0.00    -0.171 F 
HETATM   37  F   UNK N   1      34.083  14.758  11.650  0.00  0.00    -0.171 F 
HETATM   38  F   UNK N   1      36.046  15.631  12.348  0.00  0.00    -0.171 F 
ENDBRANCH  34  35
ENDBRANCH  33  34
ENDBRANCH  32  33
BRANCH  32  39
HETATM   39  C   UNK N   1      32.821  14.654   8.233  0.00  0.00     0.220 C 
HETATM   40  O   UNK N   1      32.904  14.419   7.037  0.00  0.00    -0.273 OA
HETATM   41  N   UNK N   1      32.376  13.699   9.074  0.00  0.00    -0.370 N 
HETATM   42  H   UNK N   1      31.978  13.367   9.911  0.00  0.00     0.159 HD
HETATM   43  H   UNK N   1      32.545  12.869   8.571  0.00  0.00     0.159 HD
ENDBRANCH  32  39
ENDBRANCH  25  32
ENDBRANCH   2  25
TORSDOF 11
ENDMDL
MODEL 2
REMARK VINA RESULT:      -8.5     13.516     16.999
REMARK  11 active torsions:
REMARK  status: ('A' for Active; 'I' for Inactive)
REMARK    1  A    between atoms: C_9  and  C_35 
REMARK    2  A    between atoms: C_12  and  N_15 
REMARK       I    between atoms: N_15  and  C_16 
REMARK    3  A    between atoms: C_18  and  C_16 
REMARK    4  A    between atoms: C_18  and  C_19 
REMARK    5  A    between atoms: C_18  and  C_25 
REMARK    6  A    between atoms: C_19  and  C_20 
REMARK    7  A    between atoms: C_20  and  C_21 
REMARK    8  A    between atoms: C_25  and  C_26 
REMARK    9  A    between atoms: C_25  and  C_32 
REMARK   10  A    between atoms: C_26  and  C_27 
REMARK   11  A    between atoms: C_27  and  C_28 
REMARK       I    between atoms: C_32  and  N_34 
ROOT
HETATM    1  N   UNK N   1      26.560  25.594  -3.592  0.00  0.00    -0.332 N 
HETATM    2  C   UNK N   1      27.297  24.459  -3.382  0.00  0.00     0.224 C 
HETATM    3  O   UNK N   1      26.853  23.618  -2.618  0.00  0.00    -0.273 OA
HETATM    4  H   UNK N   1      25.687  25.617  -3.138  0.00  0.00     0.165 HD
ENDROOT
BRANCH   1   5
HETATM    5  C   UNK N   1      26.877  26.775  -4.387  0.00  0.00     0.279 C 
HETATM    6  N   UNK N   1      26.627  26.529  -5.776  0.00  0.00    -0.360 N 
HETATM    7  C   UNK N   1      27.079  27.242  -6.752  0.00  0.00     0.053 C 
ATOM      8  HN  UNK N   1      26.047  25.724  -6.012  1.00  0.00     0.162 HD
HETATM    9  C   UNK N   1      27.834  28.542  -6.529  0.00  0.00     0.018 A 
HETATM   10  C   UNK N   1      28.758  28.919  -7.525  0.00  0.00     0.016 A 
HETATM   11  C   UNK N   1      27.635  29.455  -5.429  0.00  0.00     0.049 A 
HETATM   12  C   UNK N   1      29.471  30.110  -7.478  0.00  0.00     0.001 A 
HETATM   13  C   UNK N   1      29.266  30.991  -6.432  0.00  0.00     0.002 A 
HETATM   14  C   UNK N   1      28.357  30.670  -5.434  0.00  0.00     0.030 A 
HETATM   15  N   UNK N   1      26.699  29.265  -4.352  0.00  0.00    -0.318 N 
HETATM   16  C   UNK N   1      26.221  30.448  -3.654  0.00  0.00     0.159 C 
HETATM   17  C   UNK N   1      26.315  28.054  -3.862  0.00  0.00     0.266 C 
HETATM   18  O   UNK N   1      25.588  28.007  -2.888  0.00  0.00    -0.269 OA
BRANCH   7  19
HETATM   19  C   UNK N   1      26.925  26.653  -8.134  0.00  0.00    -0.009 A 
HETATM   20  C   UNK N   1      28.001  26.545  -9.034  0.00  0.00     0.014 A 
HETATM   21  C   UNK N   1      27.836  25.949 -10.287  0.00  0.00     0.001 A 
HETATM   22  C   UNK N   1      26.589  25.453 -10.664  0.00  0.00     0.000 A 
HETATM   23  C   UNK N   1      25.504  25.563  -9.792  0.00  0.00     0.001 A 
HETATM   24  C   UNK N   1      25.671  26.158  -8.537  0.00  0.00     0.014 A 
ENDBRANCH   7  19
ENDBRANCH   1   5
BRANCH   2  25
HETATM   25  C   UNK N   1      28.619  24.164  -4.053  0.00  0.00     0.091 C 
BRANCH  25  26
HETATM   26  C   UNK N   1      28.636  23.543  -5.452  0.00  0.00     0.023 C 
BRANCH  26  27
HETATM   27  C   UNK N   1      27.245  23.307  -6.050  0.00  0.00     0.118 C 
BRANCH  27  28
HETATM   28  C   UNK N   1      27.249  22.713  -7.457  0.00  0.00     0.387 C 
HETATM   29  F   UNK N   1      26.002  22.831  -8.044  0.00  0.00    -0.171 F 
HETATM   30  F   UNK N   1      27.613  21.379  -7.412  0.00  0.00    -0.171 F 
HETATM   31  F   UNK N   1      28.166  23.403  -8.227  0.00  0.00    -0.171 F 
ENDBRANCH  27  28
ENDBRANCH  26  27
ENDBRANCH  25  26
BRANCH  25  32
HETATM   32  C   UNK N   1      29.908  24.531  -3.275  0.00  0.00     0.091 C 
BRANCH  32  33
HETATM   33  C   UNK N   1      30.906  25.336  -4.095  0.00  0.00     0.023 C 
BRANCH  33  34
HETATM   34  C   UNK N   1      30.270  26.632  -4.570  0.00  0.00     0.118 C 
BRANCH  34  35
HETATM   35  C   UNK N   1      30.569  27.791  -3.627  0.00  0.00     0.387 C 
HETATM   36  F   UNK N   1      31.047  28.855  -4.366  0.00  0.00    -0.171 F 
HETATM   37  F   UNK N   1      31.530  27.417  -2.704  0.00  0.00    -0.171 F 
HETATM   38  F   UNK N   1      29.421  28.182  -2.965  0.00  0.00    -0.171 F 
ENDBRANCH  34  35
ENDBRANCH  33  34
ENDBRANCH  32  33
BRANCH  32  39
HETATM   39  C   UNK N   1      30.587  23.368  -2.627  0.00  0.00     0.220 C 
HETATM   40  O   UNK N   1      30.283  23.053  -1.488  0.00  0.00    -0.273 OA
HETATM   41  N   UNK N   1      31.526  22.664  -3.291  0.00  0.00    -0.370 N 
HETATM   42  H   UNK N   1      32.213  22.531  -3.982  0.00  0.00     0.159 HD
HETATM   43  H   UNK N   1      31.521  21.799  -2.820  0.00  0.00     0.159 HD
ENDBRANCH  32  39
ENDBRANCH  25  32
ENDBRANCH   2  25
TORSDOF 11
ENDMDL
MODEL 3
REMARK VINA RESULT:      -8.5      1.878      2.447
REMARK  11 active torsions:
REMARK  status: ('A' for Active; 'I' for Inactive)
REMARK    1  A    between atoms: C_9  and  C_35 
REMARK    2  A    between atoms: C_12  and  N_15 
REMARK       I    between atoms: N_15  and  C_16 
REMARK    3  A    between atoms: C_18  and  C_16 
REMARK    4  A    between atoms: C_18  and  C_19 
REMARK    5  A    between atoms: C_18  and  C_25 
REMARK    6  A    between atoms: C_19  and  C_20 
REMARK    7  A    between atoms: C_20  and  C_21 
REMARK    8  A    between atoms: C_25  and  C_26 
REMARK    9  A    between atoms: C_25  and  C_32 
REMARK   10  A    between atoms: C_26  and  C_27 
REMARK   11  A    between atoms: C_27  and  C_28 
REMARK       I    between atoms: C_32  and  N_34 
ROOT
HETATM    1  N   UNK N   1      32.606  17.418   5.321  0.00  0.00    -0.332 N 
HETATM    2  C   UNK N   1      33.318  17.534   6.485  0.00  0.00     0.224 C 
HETATM    3  O   UNK N   1      34.439  18.012   6.429  0.00  0.00    -0.273 OA
HETATM    4  H   UNK N   1      33.046  17.786   4.522  0.00  0.00     0.165 HD
ENDROOT
BRANCH   1   5
HETATM    5  C   UNK N   1      31.291  16.829   5.090  0.00  0.00     0.279 C 
HETATM    6  N   UNK N   1      30.287  17.849   5.028  0.00  0.00    -0.360 N 
HETATM    7  C   UNK N   1      29.016  17.651   5.137  0.00  0.00     0.053 C 
ATOM      8  HN  UNK N   1      30.602  18.809   4.889  1.00  0.00     0.162 HD
HETATM    9  C   UNK N   1      28.413  16.257   5.205  0.00  0.00     0.018 A 
HETATM   10  C   UNK N   1      27.186  16.129   5.888  0.00  0.00     0.016 A 
HETATM   11  C   UNK N   1      28.947  15.075   4.573  0.00  0.00     0.049 A 
HETATM   12  C   UNK N   1      26.495  14.928   5.975  0.00  0.00     0.001 A 
HETATM   13  C   UNK N   1      27.000  13.800   5.354  0.00  0.00     0.002 A 
HETATM   14  C   UNK N   1      28.198  13.880   4.659  0.00  0.00     0.030 A 
HETATM   15  N   UNK N   1      30.154  15.026   3.791  0.00  0.00    -0.318 N 
HETATM   16  C   UNK N   1      30.277  13.968   2.801  0.00  0.00     0.159 C 
HETATM   17  C   UNK N   1      31.239  15.826   3.988  0.00  0.00     0.266 C 
HETATM   18  O   UNK N   1      32.245  15.639   3.329  0.00  0.00    -0.269 OA
BRANCH   7  19
HETATM   19  C   UNK N   1      28.163  18.884   5.318  0.00  0.00    -0.009 A 
HETATM   20  C   UNK N   1      27.471  19.487   4.252  0.00  0.00     0.014 A 
HETATM   21  C   UNK N   1      26.650  20.598   4.462  0.00  0.00     0.001 A 
HETATM   22  C   UNK N   1      26.509  21.128   5.744  0.00  0.00     0.000 A 
HETATM   23  C   UNK N   1      27.198  20.553   6.814  0.00  0.00     0.001 A 
HETATM   24  C   UNK N   1      28.019  19.440   6.603  0.00  0.00     0.014 A 
ENDBRANCH   7  19
ENDBRANCH   1   5
BRANCH   2  25
HETATM   25  C   UNK N   1      32.800  17.128   7.846  0.00  0.00     0.091 C 
BRANCH  25  26
HETATM   26  C   UNK N   1      31.588  17.850   8.440  0.00  0.00     0.023 C 
BRANCH  26  27
HETATM   27  C   UNK N   1      30.325  16.987   8.526  0.00  0.00     0.118 C 
BRANCH  27  28
HETATM   28  C   UNK N   1      29.295  17.464   9.548  0.00  0.00     0.387 C 
HETATM   29  F   UNK N   1      29.475  18.804   9.839  0.00  0.00    -0.171 F 
HETATM   30  F   UNK N   1      29.395  16.722  10.711  0.00  0.00    -0.171 F 
HETATM   31  F   UNK N   1      28.031  17.295   9.015  0.00  0.00    -0.171 F 
ENDBRANCH  27  28
ENDBRANCH  26  27
ENDBRANCH  25  26
BRANCH  25  32
HETATM   32  C   UNK N   1      33.532  15.970   8.569  0.00  0.00     0.091 C 
BRANCH  32  33
HETATM   33  C   UNK N   1      32.649  14.758   8.828  0.00  0.00     0.023 C 
BRANCH  33  34
HETATM   34  C   UNK N   1      33.188  13.547   8.084  0.00  0.00     0.118 C 
BRANCH  34  35
HETATM   35  C   UNK N   1      32.715  13.512   6.637  0.00  0.00     0.387 C 
HETATM   36  F   UNK N   1      32.698  12.199   6.206  0.00  0.00    -0.171 F 
HETATM   37  F   UNK N   1      33.579  14.237   5.836  0.00  0.00    -0.171 F 
HETATM   38  F   UNK N   1      31.440  14.036   6.534  0.00  0.00    -0.171 F 
ENDBRANCH  34  35
ENDBRANCH  33  34
ENDBRANCH  32  33
BRANCH  32  39
HETATM   39  C   UNK N   1      34.237  16.376   9.823  0.00  0.00     0.220 C 
HETATM   40  O   UNK N   1      34.881  17.413   9.842  0.00  0.00    -0.273 OA
HETATM   41  N   UNK N   1      34.165  15.610  10.930  0.00  0.00    -0.370 N 
HETATM   42  H   UNK N   1      34.021  14.770  11.421  0.00  0.00     0.159 HD
HETATM   43  H   UNK N   1      34.373  16.249  11.650  0.00  0.00     0.159 HD
ENDBRANCH  32  39
ENDBRANCH  25  32
ENDBRANCH   2  25
TORSDOF 11
ENDMDL
MODEL 4
REMARK VINA RESULT:      -8.4      1.477      3.702
REMARK  11 active torsions:
REMARK  status: ('A' for Active; 'I' for Inactive)
REMARK    1  A    between atoms: C_9  and  C_35 
REMARK    2  A    between atoms: C_12  and  N_15 
REMARK       I    between atoms: N_15  and  C_16 
REMARK    3  A    between atoms: C_18  and  C_16 
REMARK    4  A    between atoms: C_18  and  C_19 
REMARK    5  A    between atoms: C_18  and  C_25 
REMARK    6  A    between atoms: C_19  and  C_20 
REMARK    7  A    between atoms: C_20  and  C_21 
REMARK    8  A    between atoms: C_25  and  C_26 
REMARK    9  A    between atoms: C_25  and  C_32 
REMARK   10  A    between atoms: C_26  and  C_27 
REMARK   11  A    between atoms: C_27  and  C_28 
REMARK       I    between atoms: C_32  and  N_34 
ROOT
HETATM    1  N   UNK N   1      32.219  17.300   4.950  0.00  0.00    -0.332 N 
HETATM    2  C   UNK N   1      33.198  17.076   5.880  0.00  0.00     0.224 C 
HETATM    3  O   UNK N   1      34.291  17.587   5.700  0.00  0.00    -0.273 OA
HETATM    4  H   UNK N   1      32.466  17.912   4.221  0.00  0.00     0.165 HD
ENDROOT
BRANCH   1   5
HETATM    5  C   UNK N   1      30.863  16.766   4.880  0.00  0.00     0.279 C 
HETATM    6  N   UNK N   1      29.905  17.830   4.831  0.00  0.00    -0.360 N 
HETATM    7  C   UNK N   1      28.642  17.706   5.065  0.00  0.00     0.053 C 
ATOM      8  HN  UNK N   1      30.249  18.760   4.593  1.00  0.00     0.162 HD
HETATM    9  C   UNK N   1      27.984  16.354   5.290  0.00  0.00     0.018 A 
HETATM   10  C   UNK N   1      26.821  16.339   6.086  0.00  0.00     0.016 A 
HETATM   11  C   UNK N   1      28.404  15.104   4.704  0.00  0.00     0.049 A 
HETATM   12  C   UNK N   1      26.086  15.184   6.322  0.00  0.00     0.001 A 
HETATM   13  C   UNK N   1      26.480  13.990   5.745  0.00  0.00     0.002 A 
HETATM   14  C   UNK N   1      27.612  13.958   4.944  0.00  0.00     0.030 A 
HETATM   15  N   UNK N   1      29.531  14.937   3.824  0.00  0.00    -0.318 N 
HETATM   16  C   UNK N   1      29.515  13.807   2.909  0.00  0.00     0.159 C 
HETATM   17  C   UNK N   1      30.665  15.691   3.865  0.00  0.00     0.266 C 
HETATM   18  O   UNK N   1      31.597  15.406   3.136  0.00  0.00    -0.269 OA
BRANCH   7  19
HETATM   19  C   UNK N   1      27.866  18.991   5.227  0.00  0.00    -0.009 A 
HETATM   20  C   UNK N   1      27.049  19.515   4.209  0.00  0.00     0.014 A 
HETATM   21  C   UNK N   1      26.305  20.681   4.408  0.00  0.00     0.001 A 
HETATM   22  C   UNK N   1      26.367  21.346   5.632  0.00  0.00     0.000 A 
HETATM   23  C   UNK N   1      27.182  20.851   6.652  0.00  0.00     0.001 A 
HETATM   24  C   UNK N   1      27.926  19.683   6.451  0.00  0.00     0.014 A 
ENDBRANCH   7  19
ENDBRANCH   1   5
BRANCH   2  25
HETATM   25  C   UNK N   1      33.012  16.252   7.134  0.00  0.00     0.091 C 
BRANCH  25  26
HETATM   26  C   UNK N   1      33.014  14.723   7.043  0.00  0.00     0.023 C 
BRANCH  26  27
HETATM   27  C   UNK N   1      32.707  14.016   8.367  0.00  0.00     0.118 C 
BRANCH  27  28
HETATM   28  C   UNK N   1      33.940  13.604   9.169  0.00  0.00     0.387 C 
HETATM   29  F   UNK N   1      34.017  12.227   9.281  0.00  0.00    -0.171 F 
HETATM   30  F   UNK N   1      33.900  14.167  10.432  0.00  0.00    -0.171 F 
HETATM   31  F   UNK N   1      35.068  14.056   8.512  0.00  0.00    -0.171 F 
ENDBRANCH  27  28
ENDBRANCH  26  27
ENDBRANCH  25  26
BRANCH  25  32
HETATM   32  C   UNK N   1      32.842  17.018   8.470  0.00  0.00     0.091 C 
BRANCH  32  33
HETATM   33  C   UNK N   1      31.731  18.058   8.438  0.00  0.00     0.023 C 
BRANCH  33  34
HETATM   34  C   UNK N   1      30.374  17.375   8.428  0.00  0.00     0.118 C 
BRANCH  34  35
HETATM   35  C   UNK N   1      29.494  17.842   9.580  0.00  0.00     0.387 C 
HETATM   36  F   UNK N   1      29.506  16.878  10.569  0.00  0.00    -0.171 F 
HETATM   37  F   UNK N   1      28.194  18.021   9.143  0.00  0.00    -0.171 F 
HETATM   38  F   UNK N   1      29.973  19.029  10.102  0.00  0.00    -0.171 F 
ENDBRANCH  34  35
ENDBRANCH  33  34
ENDBRANCH  32  33
BRANCH  32  39
HETATM   39  C   UNK N   1      34.104  17.622   8.996  0.00  0.00     0.220 C 
HETATM   40  O   UNK N   1      34.663  17.108   9.952  0.00  0.00    -0.273 OA
HETATM   41  N   UNK N   1      34.630  18.723   8.424  0.00  0.00    -0.370 N 
HETATM   42  H   UNK N   1      34.597  19.547   7.887  0.00  0.00     0.159 HD
HETATM   43  H   UNK N   1      35.576  18.678   8.694  0.00  0.00     0.159 HD
ENDBRANCH  32  39
ENDBRANCH  25  32
ENDBRANCH   2  25
TORSDOF 11
ENDMDL
MODEL 5
REMARK VINA RESULT:      -8.2      9.047     11.168
REMARK  11 active torsions:
REMARK  status: ('A' for Active; 'I' for Inactive)
REMARK    1  A    between atoms: C_9  and  C_35 
REMARK    2  A    between atoms: C_12  and  N_15 
REMARK       I    between atoms: N_15  and  C_16 
REMARK    3  A    between atoms: C_18  and  C_16 
REMARK    4  A    between atoms: C_18  and  C_19 
REMARK    5  A    between atoms: C_18  and  C_25 
REMARK    6  A    between atoms: C_19  and  C_20 
REMARK    7  A    between atoms: C_20  and  C_21 
REMARK    8  A    between atoms: C_25  and  C_26 
REMARK    9  A    between atoms: C_25  and  C_32 
REMARK   10  A    between atoms: C_26  and  C_27 
REMARK   11  A    between atoms: C_27  and  C_28 
REMARK       I    between atoms: C_32  and  N_34 
ROOT
HETATM    1  N   UNK N   1      18.809  14.855   4.748  0.00  0.00    -0.332 N 
HETATM    2  C   UNK N   1      18.672  15.799   5.730  0.00  0.00     0.224 C 
HETATM    3  O   UNK N   1      17.550  16.041   6.144  0.00  0.00    -0.273 OA
HETATM    4  H   UNK N   1      17.977  14.401   4.484  0.00  0.00     0.165 HD
ENDROOT
BRANCH   1   5
HETATM    5  C   UNK N   1      20.005  14.424   4.032  0.00  0.00     0.279 C 
HETATM    6  N   UNK N   1      20.928  13.796   4.929  0.00  0.00    -0.360 N 
HETATM    7  C   UNK N   1      22.178  13.582   4.683  0.00  0.00     0.053 C 
ATOM      8  HN  UNK N   1      20.571  13.495   5.836  1.00  0.00     0.162 HD
HETATM    9  C   UNK N   1      22.796  13.852   3.321  0.00  0.00     0.018 A 
HETATM   10  C   UNK N   1      24.173  14.158   3.299  0.00  0.00     0.016 A 
HETATM   11  C   UNK N   1      22.118  13.752   2.052  0.00  0.00     0.049 A 
HETATM   12  C   UNK N   1      24.878  14.367   2.121  0.00  0.00     0.001 A 
HETATM   13  C   UNK N   1      24.230  14.254   0.905  0.00  0.00     0.002 A 
HETATM   14  C   UNK N   1      22.878  13.942   0.875  0.00  0.00     0.030 A 
HETATM   15  N   UNK N   1      20.734  13.399   1.876  0.00  0.00    -0.318 N 
HETATM   16  C   UNK N   1      20.340  12.818   0.602  0.00  0.00     0.159 C 
HETATM   17  C   UNK N   1      19.744  13.674   2.770  0.00  0.00     0.266 C 
HETATM   18  O   UNK N   1      18.590  13.413   2.481  0.00  0.00    -0.269 OA
BRANCH   7  19
HETATM   19  C   UNK N   1      23.026  13.161   5.860  0.00  0.00    -0.009 A 
HETATM   20  C   UNK N   1      23.660  14.089   6.705  0.00  0.00     0.014 A 
HETATM   21  C   UNK N   1      24.397  13.668   7.815  0.00  0.00     0.001 A 
HETATM   22  C   UNK N   1      24.516  12.308   8.097  0.00  0.00     0.000 A 
HETATM   23  C   UNK N   1      23.906  11.369   7.263  0.00  0.00     0.001 A 
HETATM   24  C   UNK N   1      23.167  11.791   6.153  0.00  0.00     0.014 A 
ENDBRANCH   7  19
ENDBRANCH   1   5
BRANCH   2  25
HETATM   25  C   UNK N   1      19.824  16.549   6.359  0.00  0.00     0.091 C 
BRANCH  25  26
HETATM   26  C   UNK N   1      20.627  17.545   5.518  0.00  0.00     0.023 C 
BRANCH  26  27
HETATM   27  C   UNK N   1      22.102  17.169   5.340  0.00  0.00     0.118 C 
BRANCH  27  28
HETATM   28  C   UNK N   1      22.714  17.602   4.009  0.00  0.00     0.387 C 
HETATM   29  F   UNK N   1      22.112  16.943   2.953  0.00  0.00    -0.171 F 
HETATM   30  F   UNK N   1      24.072  17.343   4.001  0.00  0.00    -0.171 F 
HETATM   31  F   UNK N   1      22.515  18.961   3.852  0.00  0.00    -0.171 F 
ENDBRANCH  27  28
ENDBRANCH  26  27
ENDBRANCH  25  26
BRANCH  25  32
HETATM   32  C   UNK N   1      20.121  16.274   7.854  0.00  0.00     0.091 C 
BRANCH  32  33
HETATM   33  C   UNK N   1      20.340  14.801   8.170  0.00  0.00     0.023 C 
BRANCH  33  34
HETATM   34  C   UNK N   1      21.206  14.655   9.411  0.00  0.00     0.118 C 
BRANCH  34  35
HETATM   35  C   UNK N   1      21.229  13.220   9.921  0.00  0.00     0.387 C 
HETATM   36  F   UNK N   1      21.183  12.361   8.840  0.00  0.00    -0.171 F 
HETATM   37  F   UNK N   1      20.131  12.984  10.728  0.00  0.00    -0.171 F 
HETATM   38  F   UNK N   1      22.388  12.981  10.636  0.00  0.00    -0.171 F 
ENDBRANCH  34  35
ENDBRANCH  33  34
ENDBRANCH  32  33
BRANCH  32  39
HETATM   39  C   UNK N   1      19.124  16.865   8.798  0.00  0.00     0.220 C 
HETATM   40  O   UNK N   1      18.260  16.153   9.285  0.00  0.00    -0.273 OA
HETATM   41  N   UNK N   1      19.173  18.174   9.118  0.00  0.00    -0.370 N 
HETATM   42  H   UNK N   1      19.421  19.115   8.972  0.00  0.00     0.159 HD
HETATM   43  H   UNK N   1      18.693  18.206   9.977  0.00  0.00     0.159 HD
ENDBRANCH  32  39
ENDBRANCH  25  32
ENDBRANCH   2  25
TORSDOF 11
ENDMDL
MODEL 6
REMARK VINA RESULT:      -8.1     13.364     16.691
REMARK  11 active torsions:
REMARK  status: ('A' for Active; 'I' for Inactive)
REMARK    1  A    between atoms: C_9  and  C_35 
REMARK    2  A    between atoms: C_12  and  N_15 
REMARK       I    between atoms: N_15  and  C_16 
REMARK    3  A    between atoms: C_18  and  C_16 
REMARK    4  A    between atoms: C_18  and  C_19 
REMARK    5  A    between atoms: C_18  and  C_25 
REMARK    6  A    between atoms: C_19  and  C_20 
REMARK    7  A    between atoms: C_20  and  C_21 
REMARK    8  A    between atoms: C_25  and  C_26 
REMARK    9  A    between atoms: C_25  and  C_32 
REMARK   10  A    between atoms: C_26  and  C_27 
REMARK   11  A    between atoms: C_27  and  C_28 
REMARK       I    between atoms: C_32  and  N_34 
ROOT
HETATM    1  N   UNK N   1      28.489  25.470  -8.408  0.00  0.00    -0.332 N 
HETATM    2  C   UNK N   1      27.211  25.961  -8.432  0.00  0.00     0.224 C 
HETATM    3  O   UNK N   1      26.822  26.503  -9.453  0.00  0.00    -0.273 OA
HETATM    4  H   UNK N   1      28.984  25.550  -9.254  0.00  0.00     0.165 HD
ENDROOT
BRANCH   1   5
HETATM    5  C   UNK N   1      29.226  24.845  -7.314  0.00  0.00     0.279 C 
HETATM    6  N   UNK N   1      29.648  23.527  -7.680  0.00  0.00    -0.360 N 
HETATM    7  C   UNK N   1      30.046  22.616  -6.856  0.00  0.00     0.053 C 
ATOM      8  HN  UNK N   1      29.633  23.287  -8.672  1.00  0.00     0.162 HD
HETATM    9  C   UNK N   1      30.249  22.892  -5.375  0.00  0.00     0.018 A 
HETATM   10  C   UNK N   1      30.098  21.797  -4.499  0.00  0.00     0.016 A 
HETATM   11  C   UNK N   1      30.651  24.151  -4.799  0.00  0.00     0.049 A 
HETATM   12  C   UNK N   1      30.315  21.893  -3.130  0.00  0.00     0.001 A 
HETATM   13  C   UNK N   1      30.717  23.097  -2.583  0.00  0.00     0.002 A 
HETATM   14  C   UNK N   1      30.890  24.201  -3.407  0.00  0.00     0.030 A 
HETATM   15  N   UNK N   1      30.905  25.359  -5.539  0.00  0.00    -0.318 N 
HETATM   16  C   UNK N   1      31.794  26.345  -4.945  0.00  0.00     0.159 C 
HETATM   17  C   UNK N   1      30.285  25.700  -6.703  0.00  0.00     0.266 C 
HETATM   18  O   UNK N   1      30.506  26.789  -7.201  0.00  0.00    -0.269 OA
BRANCH   7  19
HETATM   19  C   UNK N   1      30.182  21.222  -7.419  0.00  0.00    -0.009 A 
HETATM   20  C   UNK N   1      31.411  20.704  -7.869  0.00  0.00     0.014 A 
HETATM   21  C   UNK N   1      31.512  19.392  -8.338  0.00  0.00     0.001 A 
HETATM   22  C   UNK N   1      30.384  18.574  -8.370  0.00  0.00     0.000 A 
HETATM   23  C   UNK N   1      29.151  19.072  -7.942  0.00  0.00     0.001 A 
HETATM   24  C   UNK N   1      29.051  20.385  -7.471  0.00  0.00     0.014 A 
ENDBRANCH   7  19
ENDBRANCH   1   5
BRANCH   2  25
HETATM   25  C   UNK N   1      26.236  25.857  -7.281  0.00  0.00     0.091 C 
BRANCH  25  26
HETATM   26  C   UNK N   1      25.810  27.124  -6.534  0.00  0.00     0.023 C 
BRANCH  26  27
HETATM   27  C   UNK N   1      26.978  27.997  -6.063  0.00  0.00     0.118 C 
BRANCH  27  28
HETATM   28  C   UNK N   1      26.727  28.744  -4.754  0.00  0.00     0.387 C 
HETATM   29  F   UNK N   1      26.845  30.110  -4.937  0.00  0.00    -0.171 F 
HETATM   30  F   UNK N   1      27.624  28.329  -3.787  0.00  0.00    -0.171 F 
HETATM   31  F   UNK N   1      25.443  28.466  -4.324  0.00  0.00    -0.171 F 
ENDBRANCH  27  28
ENDBRANCH  26  27
ENDBRANCH  25  26
BRANCH  25  32
HETATM   32  C   UNK N   1      25.701  24.447  -6.927  0.00  0.00     0.091 C 
BRANCH  32  33
HETATM   33  C   UNK N   1      26.494  23.752  -5.830  0.00  0.00     0.023 C 
BRANCH  33  34
HETATM   34  C   UNK N   1      25.913  24.094  -4.467  0.00  0.00     0.118 C 
BRANCH  34  35
HETATM   35  C   UNK N   1      26.910  24.849  -3.598  0.00  0.00     0.387 C 
HETATM   36  F   UNK N   1      26.248  25.873  -2.948  0.00  0.00    -0.171 F 
HETATM   37  F   UNK N   1      27.912  25.390  -4.384  0.00  0.00    -0.171 F 
HETATM   38  F   UNK N   1      27.467  24.004  -2.657  0.00  0.00    -0.171 F 
ENDBRANCH  34  35
ENDBRANCH  33  34
ENDBRANCH  32  33
BRANCH  32  39
HETATM   39  C   UNK N   1      25.536  23.540  -8.103  0.00  0.00     0.220 C 
HETATM   40  O   UNK N   1      24.624  23.735  -8.891  0.00  0.00    -0.273 OA
HETATM   41  N   UNK N   1      26.387  22.513  -8.303  0.00  0.00    -0.370 N 
HETATM   42  H   UNK N   1      27.048  21.840  -8.024  0.00  0.00     0.159 HD
HETATM   43  H   UNK N   1      26.293  22.338  -9.268  0.00  0.00     0.159 HD
ENDBRANCH  32  39
ENDBRANCH  25  32
ENDBRANCH   2  25
TORSDOF 11
ENDMDL
MODEL 7
REMARK VINA RESULT:      -8.0      7.379     10.834
REMARK  11 active torsions:
REMARK  status: ('A' for Active; 'I' for Inactive)
REMARK    1  A    between atoms: C_9  and  C_35 
REMARK    2  A    between atoms: C_12  and  N_15 
REMARK       I    between atoms: N_15  and  C_16 
REMARK    3  A    between atoms: C_18  and  C_16 
REMARK    4  A    between atoms: C_18  and  C_19 
REMARK    5  A    between atoms: C_18  and  C_25 
REMARK    6  A    between atoms: C_19  and  C_20 
REMARK    7  A    between atoms: C_20  and  C_21 
REMARK    8  A    between atoms: C_25  and  C_26 
REMARK    9  A    between atoms: C_25  and  C_32 
REMARK   10  A    between atoms: C_26  and  C_27 
REMARK   11  A    between atoms: C_27  and  C_28 
REMARK       I    between atoms: C_32  and  N_34 
ROOT
HETATM    1  N   UNK N   1      20.539  13.005   3.871  0.00  0.00    -0.332 N 
HETATM    2  C   UNK N   1      19.671  13.990   3.483  0.00  0.00     0.224 C 
HETATM    3  O   UNK N   1      18.617  13.659   2.966  0.00  0.00    -0.273 OA
HETATM    4  H   UNK N   1      20.211  12.085   3.745  0.00  0.00     0.165 HD
ENDROOT
BRANCH   1   5
HETATM    5  C   UNK N   1      21.877  13.114   4.442  0.00  0.00     0.279 C 
HETATM    6  N   UNK N   1      21.870  12.719   5.818  0.00  0.00    -0.360 N 
HETATM    7  C   UNK N   1      22.801  12.981   6.674  0.00  0.00     0.053 C 
ATOM      8  HN  UNK N   1      21.065  12.188   6.150  1.00  0.00     0.162 HD
HETATM    9  C   UNK N   1      24.112  13.638   6.273  0.00  0.00     0.018 A 
HETATM   10  C   UNK N   1      24.771  14.396   7.263  0.00  0.00     0.016 A 
HETATM   11  C   UNK N   1      24.773  13.495   4.999  0.00  0.00     0.049 A 
HETATM   12  C   UNK N   1      26.005  14.999   7.053  0.00  0.00     0.001 A 
HETATM   13  C   UNK N   1      26.644  14.846   5.836  0.00  0.00     0.002 A 
HETATM   14  C   UNK N   1      26.040  14.098   4.834  0.00  0.00     0.030 A 
HETATM   15  N   UNK N   1      24.280  12.719   3.891  0.00  0.00    -0.318 N 
HETATM   16  C   UNK N   1      25.248  12.225   2.925  0.00  0.00     0.159 C 
HETATM   17  C   UNK N   1      22.962  12.508   3.617  0.00  0.00     0.266 C 
HETATM   18  O   UNK N   1      22.651  11.913   2.602  0.00  0.00    -0.269 OA
BRANCH   7  19
HETATM   19  C   UNK N   1      22.470  12.713   8.122  0.00  0.00    -0.009 A 
HETATM   20  C   UNK N   1      23.123  11.721   8.876  0.00  0.00     0.014 A 
HETATM   21  C   UNK N   1      22.828  11.531  10.228  0.00  0.00     0.001 A 
HETATM   22  C   UNK N   1      21.869  12.330  10.851  0.00  0.00     0.000 A 
HETATM   23  C   UNK N   1      21.199  13.311  10.118  0.00  0.00     0.001 A 
HETATM   24  C   UNK N   1      21.496  13.501   8.764  0.00  0.00     0.014 A 
ENDBRANCH   7  19
ENDBRANCH   1   5
BRANCH   2  25
HETATM   25  C   UNK N   1      19.921  15.469   3.672  0.00  0.00     0.091 C 
BRANCH  25  26
HETATM   26  C   UNK N   1      19.266  16.204   4.845  0.00  0.00     0.023 C 
BRANCH  26  27
HETATM   27  C   UNK N   1      19.744  15.737   6.223  0.00  0.00     0.118 C 
BRANCH  27  28
HETATM   28  C   UNK N   1      20.793  16.638   6.873  0.00  0.00     0.387 C 
HETATM   29  F   UNK N   1      22.067  16.146   6.655  0.00  0.00    -0.171 F 
HETATM   30  F   UNK N   1      20.562  16.736   8.233  0.00  0.00    -0.171 F 
HETATM   31  F   UNK N   1      20.704  17.897   6.311  0.00  0.00    -0.171 F 
ENDBRANCH  27  28
ENDBRANCH  26  27
ENDBRANCH  25  26
BRANCH  25  32
HETATM   32  C   UNK N   1      20.860  16.167   2.657  0.00  0.00     0.091 C 
BRANCH  32  33
HETATM   33  C   UNK N   1      21.836  17.143   3.299  0.00  0.00     0.023 C 
BRANCH  33  34
HETATM   34  C   UNK N   1      23.149  16.442   3.610  0.00  0.00     0.118 C 
BRANCH  34  35
HETATM   35  C   UNK N   1      24.224  17.424   4.059  0.00  0.00     0.387 C 
HETATM   36  F   UNK N   1      23.847  18.699   3.685  0.00  0.00    -0.171 F 
HETATM   37  F   UNK N   1      25.429  17.117   3.455  0.00  0.00    -0.171 F 
HETATM   38  F   UNK N   1      24.371  17.382   5.433  0.00  0.00    -0.171 F 
ENDBRANCH  34  35
ENDBRANCH  33  34
ENDBRANCH  32  33
BRANCH  32  39
HETATM   39  C   UNK N   1      20.153  16.819   1.513  0.00  0.00     0.220 C 
HETATM   40  O   UNK N   1      20.414  16.476   0.370  0.00  0.00    -0.273 OA
HETATM   41  N   UNK N   1      19.228  17.775   1.732  0.00  0.00    -0.370 N 
HETATM   42  H   UNK N   1      18.790  18.484   2.255  0.00  0.00     0.159 HD
HETATM   43  H   UNK N   1      18.691  17.751   0.906  0.00  0.00     0.159 HD
ENDBRANCH  32  39
ENDBRANCH  25  32
ENDBRANCH   2  25
TORSDOF 11
ENDMDL
MODEL 8
REMARK VINA RESULT:      -7.9      8.434     11.748
REMARK  11 active torsions:
REMARK  status: ('A' for Active; 'I' for Inactive)
REMARK    1  A    between atoms: C_9  and  C_35 
REMARK    2  A    between atoms: C_12  and  N_15 
REMARK       I    between atoms: N_15  and  C_16 
REMARK    3  A    between atoms: C_18  and  C_16 
REMARK    4  A    between atoms: C_18  and  C_19 
REMARK    5  A    between atoms: C_18  and  C_25 
REMARK    6  A    between atoms: C_19  and  C_20 
REMARK    7  A    between atoms: C_20  and  C_21 
REMARK    8  A    between atoms: C_25  and  C_26 
REMARK    9  A    between atoms: C_25  and  C_32 
REMARK   10  A    between atoms: C_26  and  C_27 
REMARK   11  A    between atoms: C_27  and  C_28 
REMARK       I    between atoms: C_32  and  N_34 
ROOT
HETATM    1  N   UNK N   1      20.969  16.745   7.233  0.00  0.00    -0.332 N 
HETATM    2  C   UNK N   1      21.191  17.886   6.509  0.00  0.00     0.224 C 
HETATM    3  O   UNK N   1      20.927  18.958   7.028  0.00  0.00    -0.273 OA
HETATM    4  H   UNK N   1      20.655  16.889   8.154  0.00  0.00     0.165 HD
ENDROOT
BRANCH   1   5
HETATM    5  C   UNK N   1      21.128  15.349   6.841  0.00  0.00     0.279 C 
HETATM    6  N   UNK N   1      21.576  14.563   7.951  0.00  0.00    -0.360 N 
HETATM    7  C   UNK N   1      22.093  13.383   7.869  0.00  0.00     0.053 C 
ATOM      8  HN  UNK N   1      21.480  14.969   8.882  1.00  0.00     0.162 HD
HETATM    9  C   UNK N   1      22.159  12.614   6.560  0.00  0.00     0.018 A 
HETATM   10  C   UNK N   1      23.202  11.674   6.427  0.00  0.00     0.016 A 
HETATM   11  C   UNK N   1      21.211  12.709   5.476  0.00  0.00     0.049 A 
HETATM   12  C   UNK N   1      23.345  10.860   5.311  0.00  0.00     0.001 A 
HETATM   13  C   UNK N   1      22.425  10.941   4.281  0.00  0.00     0.002 A 
HETATM   14  C   UNK N   1      21.374  11.843   4.371  0.00  0.00     0.030 A 
HETATM   15  N   UNK N   1      20.057  13.569   5.457  0.00  0.00    -0.318 N 
HETATM   16  C   UNK N   1      18.940  13.186   4.608  0.00  0.00     0.159 C 
HETATM   17  C   UNK N   1      19.978  14.775   6.085  0.00  0.00     0.266 C 
HETATM   18  O   UNK N   1      18.988  15.466   5.929  0.00  0.00    -0.269 OA
BRANCH   7  19
HETATM   19  C   UNK N   1      22.743  12.851   9.124  0.00  0.00    -0.009 A 
HETATM   20  C   UNK N   1      24.135  12.882   9.325  0.00  0.00     0.014 A 
HETATM   21  C   UNK N   1      24.702  12.427  10.519  0.00  0.00     0.001 A 
HETATM   22  C   UNK N   1      23.884  11.930  11.533  0.00  0.00     0.000 A 
HETATM   23  C   UNK N   1      22.501  11.877  11.348  0.00  0.00     0.001 A 
HETATM   24  C   UNK N   1      21.935  12.334  10.153  0.00  0.00     0.014 A 
ENDBRANCH   7  19
ENDBRANCH   1   5
BRANCH   2  25
HETATM   25  C   UNK N   1      21.766  17.911   5.111  0.00  0.00     0.091 C 
BRANCH  25  26
HETATM   26  C   UNK N   1      23.283  17.982   4.918  0.00  0.00     0.023 C 
BRANCH  26  27
HETATM   27  C   UNK N   1      24.036  16.739   5.405  0.00  0.00     0.118 C 
BRANCH  27  28
HETATM   28  C   UNK N   1      24.297  15.689   4.326  0.00  0.00     0.387 C 
HETATM   29  F   UNK N   1      25.390  14.908   4.655  0.00  0.00    -0.171 F 
HETATM   30  F   UNK N   1      24.519  16.302   3.107  0.00  0.00    -0.171 F 
HETATM   31  F   UNK N   1      23.187  14.873   4.224  0.00  0.00    -0.171 F 
ENDBRANCH  27  28
ENDBRANCH  26  27
ENDBRANCH  25  26
BRANCH  25  32
HETATM   32  C   UNK N   1      20.766  17.845   3.930  0.00  0.00     0.091 C 
BRANCH  32  33
HETATM   33  C   UNK N   1      21.274  17.035   2.746  0.00  0.00     0.023 C 
BRANCH  33  34
HETATM   34  C   UNK N   1      20.359  15.849   2.491  0.00  0.00     0.118 C 
BRANCH  34  35
HETATM   35  C   UNK N   1      20.255  15.520   1.007  0.00  0.00     0.387 C 
HETATM   36  F   UNK N   1      20.245  16.699   0.288  0.00  0.00    -0.171 F 
HETATM   37  F   UNK N   1      19.083  14.830   0.754  0.00  0.00    -0.171 F 
HETATM   38  F   UNK N   1      21.336  14.757   0.606  0.00  0.00    -0.171 F 
ENDBRANCH  34  35
ENDBRANCH  33  34
ENDBRANCH  32  33
BRANCH  32  39
HETATM   39  C   UNK N   1      20.267  19.178   3.472  0.00  0.00     0.220 C 
HETATM   40  O   UNK N   1      20.662  20.191   4.027  0.00  0.00    -0.273 OA
HETATM   41  N   UNK N   1      19.390  19.270   2.452  0.00  0.00    -0.370 N 
HETATM   42  H   UNK N   1      18.692  18.930   1.848  0.00  0.00     0.159 HD
HETATM   43  H   UNK N   1      19.523  20.192   2.134  0.00  0.00     0.159 HD
ENDBRANCH  32  39
ENDBRANCH  25  32
ENDBRANCH   2  25
TORSDOF 11
ENDMDL
MODEL 9
REMARK VINA RESULT:      -7.7      7.214     10.551
REMARK  11 active torsions:
REMARK  status: ('A' for Active; 'I' for Inactive)
REMARK    1  A    between atoms: C_9  and  C_35 
REMARK    2  A    between atoms: C_12  and  N_15 
REMARK       I    between atoms: N_15  and  C_16 
REMARK    3  A    between atoms: C_18  and  C_16 
REMARK    4  A    between atoms: C_18  and  C_19 
REMARK    5  A    between atoms: C_18  and  C_25 
REMARK    6  A    between atoms: C_19  and  C_20 
REMARK    7  A    between atoms: C_20  and  C_21 
REMARK    8  A    between atoms: C_25  and  C_26 
REMARK    9  A    between atoms: C_25  and  C_32 
REMARK   10  A    between atoms: C_26  and  C_27 
REMARK   11  A    between atoms: C_27  and  C_28 
REMARK       I    between atoms: C_32  and  N_34 
ROOT
HETATM    1  N   UNK N   1      21.267  16.508   7.056  0.00  0.00    -0.332 N 
HETATM    2  C   UNK N   1      21.686  17.541   6.261  0.00  0.00     0.224 C 
HETATM    3  O   UNK N   1      21.450  18.681   6.626  0.00  0.00    -0.273 OA
HETATM    4  H   UNK N   1      20.843  16.777   7.903  0.00  0.00     0.165 HD
ENDROOT
BRANCH   1   5
HETATM    5  C   UNK N   1      21.353  15.069   6.834  0.00  0.00     0.279 C 
HETATM    6  N   UNK N   1      21.704  14.393   8.047  0.00  0.00    -0.360 N 
HETATM    7  C   UNK N   1      22.148  13.183   8.125  0.00  0.00     0.053 C 
ATOM      8  HN  UNK N   1      21.596  14.910   8.920  1.00  0.00     0.162 HD
HETATM    9  C   UNK N   1      22.219  12.264   6.916  0.00  0.00     0.018 A 
HETATM   10  C   UNK N   1      23.205  11.256   6.943  0.00  0.00     0.016 A 
HETATM   11  C   UNK N   1      21.324  12.287   5.785  0.00  0.00     0.049 A 
HETATM   12  C   UNK N   1      23.341  10.310   5.934  0.00  0.00     0.001 A 
HETATM   13  C   UNK N   1      22.471  10.324   4.859  0.00  0.00     0.002 A 
HETATM   14  C   UNK N   1      21.476  11.290   4.795  0.00  0.00     0.030 A 
HETATM   15  N   UNK N   1      20.228  13.205   5.612  0.00  0.00    -0.318 N 
HETATM   16  C   UNK N   1      19.125  12.790   4.760  0.00  0.00     0.159 C 
HETATM   17  C   UNK N   1      20.200  14.478   6.094  0.00  0.00     0.266 C 
HETATM   18  O   UNK N   1      19.263  15.202   5.813  0.00  0.00    -0.269 OA
BRANCH   7  19
HETATM   19  C   UNK N   1      22.712  12.765   9.462  0.00  0.00    -0.009 A 
HETATM   20  C   UNK N   1      21.895  12.362  10.534  0.00  0.00     0.014 A 
HETATM   21  C   UNK N   1      22.451  11.933  11.742  0.00  0.00     0.001 A 
HETATM   22  C   UNK N   1      23.836  11.903  11.900  0.00  0.00     0.000 A 
HETATM   23  C   UNK N   1      24.664  12.312  10.854  0.00  0.00     0.001 A 
HETATM   24  C   UNK N   1      24.107  12.740   9.644  0.00  0.00     0.014 A 
ENDBRANCH   7  19
ENDBRANCH   1   5
BRANCH   2  25
HETATM   25  C   UNK N   1      22.447  17.366   4.967  0.00  0.00     0.091 C 
BRANCH  25  26
HETATM   26  C   UNK N   1      21.701  16.931   3.703  0.00  0.00     0.023 C 
BRANCH  26  27
HETATM   27  C   UNK N   1      20.321  17.577   3.536  0.00  0.00     0.118 C 
BRANCH  27  28
HETATM   28  C   UNK N   1      20.292  18.782   2.598  0.00  0.00     0.387 C 
HETATM   29  F   UNK N   1      19.093  19.463   2.710  0.00  0.00    -0.171 F 
HETATM   30  F   UNK N   1      20.469  18.374   1.289  0.00  0.00    -0.171 F 
HETATM   31  F   UNK N   1      21.319  19.639   2.945  0.00  0.00    -0.171 F 
ENDBRANCH  27  28
ENDBRANCH  26  27
ENDBRANCH  25  26
BRANCH  25  32
HETATM   32  C   UNK N   1      23.968  17.660   4.991  0.00  0.00     0.091 C 
BRANCH  32  33
HETATM   33  C   UNK N   1      24.463  18.412   3.764  0.00  0.00     0.023 C 
BRANCH  33  34
HETATM   34  C   UNK N   1      24.825  19.840   4.135  0.00  0.00     0.118 C 
BRANCH  34  35
HETATM   35  C   UNK N   1      26.249  20.191   3.723  0.00  0.00     0.387 C 
HETATM   36  F   UNK N   1      26.206  20.911   2.544  0.00  0.00    -0.171 F 
HETATM   37  F   UNK N   1      26.983  19.037   3.518  0.00  0.00    -0.171 F 
HETATM   38  F   UNK N   1      26.857  20.960   4.697  0.00  0.00    -0.171 F 
ENDBRANCH  34  35
ENDBRANCH  33  34
ENDBRANCH  32  33
BRANCH  32  39
HETATM   39  C   UNK N   1      24.822  16.459   5.243  0.00  0.00     0.220 C 
HETATM   40  O   UNK N   1      25.510  16.010   4.341  0.00  0.00    -0.273 OA
HETATM   41  N   UNK N   1      24.840  15.872   6.457  0.00  0.00    -0.370 N 
HETATM   42  H   UNK N   1      24.475  15.655   7.344  0.00  0.00     0.159 HD
HETATM   43  H   UNK N   1      25.701  15.394   6.454  0.00  0.00     0.159 HD
ENDBRANCH  32  39
ENDBRANCH  25  32
ENDBRANCH   2  25
TORSDOF 11
ENDMDL
