MODEL 1
REMARK VINA RESULT:      -7.9      0.000      0.000
REMARK  7 active torsions:
REMARK  status: ('A' for Active; 'I' for Inactive)
REMARK    1  A    between atoms: C_3  and  C_27 
REMARK    2  A    between atoms: N_11  and  C_12 
REMARK    3  A    between atoms: C_12  and  C_13 
REMARK    4  A    between atoms: C_16  and  S_23 
REMARK    5  A    between atoms: C_18  and  C_19 
REMARK    6  A    between atoms: C_27  and  C_28 
REMARK    7  A    between atoms: C_28  and  O_30 
ROOT
HETATM    1  C   UNK N   1      27.457  19.864   6.186  0.00  0.00     0.069 C 
HETATM    2  C   UNK N   1      27.086  18.651   5.397  0.00  0.00     0.017 A 
HETATM    3  C   UNK N   1      26.560  18.657   4.105  0.00  0.00    -0.012 A 
HETATM    4  C   UNK N   1      26.379  17.333   3.764  0.00  0.00     0.017 A 
HETATM    5  C   UNK N   1      25.867  16.732   2.620  0.00  0.00     0.017 A 
HETATM    6  C   UNK N   1      25.825  15.329   2.586  0.00  0.00     0.018 A 
HETATM    7  C   UNK N   1      26.314  14.587   3.683  0.00  0.00     0.090 A 
HETATM    8  N   UNK N   1      26.813  15.226   4.785  0.00  0.00    -0.351 N 
ATOM      9  HN  UNK N   1      27.174  14.689   5.572  1.00  0.00     0.166 HD
HETATM   10  C   UNK N   1      26.821  16.584   4.819  0.00  0.00     0.118 A 
HETATM   11  N   UNK N   1      27.232  17.377   5.840  0.00  0.00    -0.332 N 
ENDROOT
BRANCH  11  12
HETATM   12  C   UNK N   1      27.769  17.013   7.164  0.00  0.00     0.170 C 
BRANCH  12  13
HETATM   13  C   UNK N   1      29.283  16.987   7.307  0.00  0.00    -0.025 A 
HETATM   14  C   UNK N   1      30.084  16.448   6.294  0.00  0.00     0.011 A 
HETATM   15  C   UNK N   1      31.467  16.560   6.325  0.00  0.00     0.024 A 
HETATM   16  C   UNK N   1      32.087  17.202   7.390  0.00  0.00     0.059 A 
HETATM   17  C   UNK N   1      31.319  17.685   8.454  0.00  0.00     0.040 A 
HETATM   18  C   UNK N   1      29.916  17.576   8.433  0.00  0.00     0.057 A 
BRANCH  16  19
HETATM   19  S   UNK N   1      33.844  17.533   7.313  0.00  0.00     0.171 S 
HETATM   20  O   UNK N   1      34.123  17.913   5.850  0.00  0.00    -0.223 OA
HETATM   21  O   UNK N   1      34.565  16.175   7.321  0.00  0.00    -0.223 OA
HETATM   22  C   UNK N   1      34.818  18.666   8.337  0.00  0.00     0.167 C 
ENDBRANCH  16  19
BRANCH  18  23
HETATM   23  C   UNK N   1      29.118  18.104   9.602  0.00  0.00     0.418 C 
HETATM   24  F   UNK N   1      27.989  18.763   9.153  0.00  0.00    -0.166 F 
HETATM   25  F   UNK N   1      28.739  17.049  10.413  0.00  0.00    -0.166 F 
HETATM   26  F   UNK N   1      29.871  18.985  10.362  0.00  0.00    -0.166 F 
ENDBRANCH  18  23
ENDBRANCH  12  13
ENDBRANCH  11  12
BRANCH   3  27
HETATM   27  C   UNK N   1      26.257  19.866   3.268  0.00  0.00     0.151 C 
BRANCH  27  28
HETATM   28  C   UNK N   1      24.783  20.127   3.169  0.00  0.00     0.143 C 
HETATM   29  O   UNK N   1      24.018  19.603   3.960  0.00  0.00    -0.650 OA
BRANCH  28  30
HETATM   30  O   UNK N   1      24.294  20.904   2.183  0.00  0.00    -0.776 OA
HETATM   31  H   UNK N   1      23.475  20.742   1.758  0.00  0.00     0.167 HD
ENDBRANCH  28  30
ENDBRANCH  27  28
ENDBRANCH   3  27
TORSDOF 7
ENDMDL
MODEL 2
REMARK VINA RESULT:      -7.8      3.346      4.590
REMARK  7 active torsions:
REMARK  status: ('A' for Active; 'I' for Inactive)
REMARK    1  A    between atoms: C_3  and  C_27 
REMARK    2  A    between atoms: N_11  and  C_12 
REMARK    3  A    between atoms: C_12  and  C_13 
REMARK    4  A    between atoms: C_16  and  S_23 
REMARK    5  A    between atoms: C_18  and  C_19 
REMARK    6  A    between atoms: C_27  and  C_28 
REMARK    7  A    between atoms: C_28  and  O_30 
ROOT
HETATM    1  C   UNK N   1      24.788  20.575   2.399  0.00  0.00     0.069 C 
HETATM    2  C   UNK N   1      24.048  19.650   3.309  0.00  0.00     0.017 A 
HETATM    3  C   UNK N   1      22.672  19.668   3.534  0.00  0.00    -0.012 A 
HETATM    4  C   UNK N   1      22.421  18.646   4.425  0.00  0.00     0.017 A 
HETATM    5  C   UNK N   1      21.246  18.207   5.026  0.00  0.00     0.017 A 
HETATM    6  C   UNK N   1      21.332  17.110   5.898  0.00  0.00     0.018 A 
HETATM    7  C   UNK N   1      22.580  16.486   6.116  0.00  0.00     0.090 A 
HETATM    8  N   UNK N   1      23.706  16.952   5.497  0.00  0.00    -0.351 N 
ATOM      9  HN  UNK N   1      24.605  16.494   5.649  1.00  0.00     0.166 HD
HETATM   10  C   UNK N   1      23.617  18.032   4.679  0.00  0.00     0.118 A 
HETATM   11  N   UNK N   1      24.629  18.653   4.024  0.00  0.00    -0.332 N 
ENDROOT
BRANCH  11  12
HETATM   12  C   UNK N   1      26.072  18.352   4.009  0.00  0.00     0.170 C 
BRANCH  12  13
HETATM   13  C   UNK N   1      26.755  18.198   5.359  0.00  0.00    -0.025 A 
HETATM   14  C   UNK N   1      26.901  16.935   5.943  0.00  0.00     0.011 A 
HETATM   15  C   UNK N   1      27.662  16.747   7.088  0.00  0.00     0.024 A 
HETATM   16  C   UNK N   1      28.283  17.833   7.694  0.00  0.00     0.059 A 
HETATM   17  C   UNK N   1      28.094  19.119   7.178  0.00  0.00     0.040 A 
HETATM   18  C   UNK N   1      27.324  19.320   6.017  0.00  0.00     0.057 A 
BRANCH  16  19
HETATM   19  S   UNK N   1      29.433  17.551   9.034  0.00  0.00     0.171 S 
HETATM   20  O   UNK N   1      30.003  18.936   9.382  0.00  0.00    -0.223 OA
HETATM   21  O   UNK N   1      30.707  16.944   8.424  0.00  0.00    -0.223 OA
HETATM   22  C   UNK N   1      29.135  16.704  10.608  0.00  0.00     0.167 C 
ENDBRANCH  16  19
BRANCH  18  23
HETATM   23  C   UNK N   1      27.137  20.724   5.490  0.00  0.00     0.418 C 
HETATM   24  F   UNK N   1      27.517  20.792   4.163  0.00  0.00    -0.166 F 
HETATM   25  F   UNK N   1      25.805  21.082   5.603  0.00  0.00    -0.166 F 
HETATM   26  F   UNK N   1      27.893  21.632   6.214  0.00  0.00    -0.166 F 
ENDBRANCH  18  23
ENDBRANCH  12  13
ENDBRANCH  11  12
BRANCH   3  27
HETATM   27  C   UNK N   1      21.678  20.615   2.926  0.00  0.00     0.151 C 
BRANCH  27  28
HETATM   28  C   UNK N   1      21.187  20.137   1.592  0.00  0.00     0.143 C 
HETATM   29  O   UNK N   1      21.576  20.679   0.572  0.00  0.00    -0.650 OA
BRANCH  28  30
HETATM   30  O   UNK N   1      20.286  19.139   1.515  0.00  0.00    -0.776 OA
HETATM   31  H   UNK N   1      19.585  19.029   2.127  0.00  0.00     0.167 HD
ENDBRANCH  28  30
ENDBRANCH  27  28
ENDBRANCH   3  27
TORSDOF 7
ENDMDL
MODEL 3
REMARK VINA RESULT:      -7.5      4.256      7.742
REMARK  7 active torsions:
REMARK  status: ('A' for Active; 'I' for Inactive)
REMARK    1  A    between atoms: C_3  and  C_27 
REMARK    2  A    between atoms: N_11  and  C_12 
REMARK    3  A    between atoms: C_12  and  C_13 
REMARK    4  A    between atoms: C_16  and  S_23 
REMARK    5  A    between atoms: C_18  and  C_19 
REMARK    6  A    between atoms: C_27  and  C_28 
REMARK    7  A    between atoms: C_28  and  O_30 
ROOT
HETATM    1  C   UNK N   1      27.460  19.772   6.605  0.00  0.00     0.069 C 
HETATM    2  C   UNK N   1      28.234  18.549   6.236  0.00  0.00     0.017 A 
HETATM    3  C   UNK N   1      29.204  17.937   7.030  0.00  0.00    -0.012 A 
HETATM    4  C   UNK N   1      29.647  16.846   6.311  0.00  0.00     0.017 A 
HETATM    5  C   UNK N   1      30.616  15.887   6.584  0.00  0.00     0.017 A 
HETATM    6  C   UNK N   1      30.825  14.882   5.626  0.00  0.00     0.018 A 
HETATM    7  C   UNK N   1      30.045  14.864   4.450  0.00  0.00     0.090 A 
HETATM    8  N   UNK N   1      29.100  15.828   4.229  0.00  0.00    -0.351 N 
ATOM      9  HN  UNK N   1      28.532  15.808   3.383  1.00  0.00     0.166 HD
HETATM   10  C   UNK N   1      28.927  16.812   5.148  0.00  0.00     0.118 A 
HETATM   11  N   UNK N   1      28.077  17.866   5.074  0.00  0.00    -0.332 N 
ENDROOT
BRANCH  11  12
HETATM   12  C   UNK N   1      27.125  18.240   4.012  0.00  0.00     0.170 C 
BRANCH  12  13
HETATM   13  C   UNK N   1      25.651  17.991   4.292  0.00  0.00    -0.025 A 
HETATM   14  C   UNK N   1      25.232  16.794   4.884  0.00  0.00     0.011 A 
HETATM   15  C   UNK N   1      23.920  16.611   5.300  0.00  0.00     0.024 A 
HETATM   16  C   UNK N   1      22.984  17.620   5.111  0.00  0.00     0.059 A 
HETATM   17  C   UNK N   1      23.354  18.797   4.454  0.00  0.00     0.040 A 
HETATM   18  C   UNK N   1      24.682  18.994   4.029  0.00  0.00     0.057 A 
BRANCH  16  19
HETATM   19  S   UNK N   1      21.360  17.459   5.843  0.00  0.00     0.171 S 
HETATM   20  O   UNK N   1      20.369  17.763   4.708  0.00  0.00    -0.223 OA
HETATM   21  O   UNK N   1      21.111  18.721   6.686  0.00  0.00    -0.223 OA
HETATM   22  C   UNK N   1      20.679  16.055   6.763  0.00  0.00     0.167 C 
ENDBRANCH  16  19
BRANCH  18  23
HETATM   23  C   UNK N   1      25.046  20.277   3.317  0.00  0.00     0.418 C 
HETATM   24  F   UNK N   1      25.499  20.004   2.041  0.00  0.00    -0.166 F 
HETATM   25  F   UNK N   1      23.930  21.092   3.242  0.00  0.00    -0.166 F 
HETATM   26  F   UNK N   1      26.037  20.962   4.002  0.00  0.00    -0.166 F 
ENDBRANCH  18  23
ENDBRANCH  12  13
ENDBRANCH  11  12
BRANCH   3  27
HETATM   27  C   UNK N   1      29.662  18.384   8.386  0.00  0.00     0.151 C 
BRANCH  27  28
HETATM   28  C   UNK N   1      28.853  17.766   9.488  0.00  0.00     0.143 C 
HETATM   29  O   UNK N   1      29.394  17.045  10.309  0.00  0.00    -0.650 OA
BRANCH  28  30
HETATM   30  O   UNK N   1      27.523  17.966   9.551  0.00  0.00    -0.776 OA
HETATM   31  H   UNK N   1      26.928  17.694   8.880  0.00  0.00     0.167 HD
ENDBRANCH  28  30
ENDBRANCH  27  28
ENDBRANCH   3  27
TORSDOF 7
ENDMDL
MODEL 4
REMARK VINA RESULT:      -7.4      3.539      7.787
REMARK  7 active torsions:
REMARK  status: ('A' for Active; 'I' for Inactive)
REMARK    1  A    between atoms: C_3  and  C_27 
REMARK    2  A    between atoms: N_11  and  C_12 
REMARK    3  A    between atoms: C_12  and  C_13 
REMARK    4  A    between atoms: C_16  and  S_23 
REMARK    5  A    between atoms: C_18  and  C_19 
REMARK    6  A    between atoms: C_27  and  C_28 
REMARK    7  A    between atoms: C_28  and  O_30 
ROOT
HETATM    1  C   UNK N   1      31.089  17.165   4.042  0.00  0.00     0.069 C 
HETATM    2  C   UNK N   1      30.467  17.385   5.382  0.00  0.00     0.017 A 
HETATM    3  C   UNK N   1      31.072  17.108   6.608  0.00  0.00    -0.012 A 
HETATM    4  C   UNK N   1      30.154  17.470   7.572  0.00  0.00     0.017 A 
HETATM    5  C   UNK N   1      30.191  17.400   8.961  0.00  0.00     0.017 A 
HETATM    6  C   UNK N   1      29.071  17.869   9.666  0.00  0.00     0.018 A 
HETATM    7  C   UNK N   1      27.974  18.407   8.958  0.00  0.00     0.090 A 
HETATM    8  N   UNK N   1      27.988  18.458   7.592  0.00  0.00    -0.351 N 
ATOM      9  HN  UNK N   1      27.198  18.855   7.083  1.00  0.00     0.166 HD
HETATM   10  C   UNK N   1      29.063  17.975   6.919  0.00  0.00     0.118 A 
HETATM   11  N   UNK N   1      29.228  17.904   5.575  0.00  0.00    -0.332 N 
ENDROOT
BRANCH  11  12
HETATM   12  C   UNK N   1      28.321  18.314   4.487  0.00  0.00     0.170 C 
BRANCH  12  13
HETATM   13  C   UNK N   1      26.870  17.870   4.599  0.00  0.00    -0.025 A 
HETATM   14  C   UNK N   1      26.554  16.534   4.869  0.00  0.00     0.011 A 
HETATM   15  C   UNK N   1      25.252  16.137   5.139  0.00  0.00     0.024 A 
HETATM   16  C   UNK N   1      24.223  17.072   5.124  0.00  0.00     0.059 A 
HETATM   17  C   UNK N   1      24.496  18.400   4.784  0.00  0.00     0.040 A 
HETATM   18  C   UNK N   1      25.813  18.814   4.508  0.00  0.00     0.057 A 
BRANCH  16  19
HETATM   19  S   UNK N   1      22.594  16.592   5.685  0.00  0.00     0.171 S 
HETATM   20  O   UNK N   1      22.827  15.447   6.684  0.00  0.00    -0.223 OA
HETATM   21  O   UNK N   1      21.949  15.766   4.561  0.00  0.00    -0.223 OA
HETATM   22  C   UNK N   1      21.298  17.642   6.393  0.00  0.00     0.167 C 
ENDBRANCH  16  19
BRANCH  18  23
HETATM   23  C   UNK N   1      26.071  20.256   4.139  0.00  0.00     0.418 C 
HETATM   24  F   UNK N   1      26.824  20.327   2.982  0.00  0.00    -0.166 F 
HETATM   25  F   UNK N   1      24.863  20.901   3.939  0.00  0.00    -0.166 F 
HETATM   26  F   UNK N   1      26.751  20.914   5.151  0.00  0.00    -0.166 F 
ENDBRANCH  18  23
ENDBRANCH  12  13
ENDBRANCH  11  12
BRANCH   3  27
HETATM   27  C   UNK N   1      32.441  16.532   6.821  0.00  0.00     0.151 C 
BRANCH  27  28
HETATM   28  C   UNK N   1      33.487  17.599   6.955  0.00  0.00     0.143 C 
HETATM   29  O   UNK N   1      34.289  17.781   6.055  0.00  0.00    -0.650 OA
BRANCH  28  30
HETATM   30  O   UNK N   1      33.574  18.330   8.082  0.00  0.00    -0.776 OA
HETATM   31  H   UNK N   1      33.729  17.958   8.928  0.00  0.00     0.167 HD
ENDBRANCH  28  30
ENDBRANCH  27  28
ENDBRANCH   3  27
TORSDOF 7
ENDMDL
MODEL 5
REMARK VINA RESULT:      -7.2      1.902      3.074
REMARK  7 active torsions:
REMARK  status: ('A' for Active; 'I' for Inactive)
REMARK    1  A    between atoms: C_3  and  C_27 
REMARK    2  A    between atoms: N_11  and  C_12 
REMARK    3  A    between atoms: C_12  and  C_13 
REMARK    4  A    between atoms: C_16  and  S_23 
REMARK    5  A    between atoms: C_18  and  C_19 
REMARK    6  A    between atoms: C_27  and  C_28 
REMARK    7  A    between atoms: C_28  and  O_30 
ROOT
HETATM    1  C   UNK N   1      26.083  14.773   5.778  0.00  0.00     0.069 C 
HETATM    2  C   UNK N   1      26.202  16.196   5.340  0.00  0.00     0.017 A 
HETATM    3  C   UNK N   1      25.582  16.751   4.220  0.00  0.00    -0.012 A 
HETATM    4  C   UNK N   1      25.954  18.079   4.202  0.00  0.00     0.017 A 
HETATM    5  C   UNK N   1      25.665  19.111   3.316  0.00  0.00     0.017 A 
HETATM    6  C   UNK N   1      26.204  20.377   3.594  0.00  0.00     0.018 A 
HETATM    7  C   UNK N   1      26.988  20.565   4.753  0.00  0.00     0.090 A 
HETATM    8  N   UNK N   1      27.239  19.519   5.597  0.00  0.00    -0.351 N 
ATOM      9  HN  UNK N   1      27.798  19.658   6.439  1.00  0.00     0.166 HD
HETATM   10  C   UNK N   1      26.738  18.291   5.303  0.00  0.00     0.118 A 
HETATM   11  N   UNK N   1      26.923  17.141   5.996  0.00  0.00    -0.332 N 
ENDROOT
BRANCH  11  12
HETATM   12  C   UNK N   1      27.695  16.891   7.227  0.00  0.00     0.170 C 
BRANCH  12  13
HETATM   13  C   UNK N   1      29.206  16.797   7.082  0.00  0.00    -0.025 A 
HETATM   14  C   UNK N   1      29.776  16.000   6.083  0.00  0.00     0.011 A 
HETATM   15  C   UNK N   1      31.140  16.026   5.824  0.00  0.00     0.024 A 
HETATM   16  C   UNK N   1      31.975  16.841   6.580  0.00  0.00     0.059 A 
HETATM   17  C   UNK N   1      31.445  17.590   7.635  0.00  0.00     0.040 A 
HETATM   18  C   UNK N   1      30.064  17.571   7.906  0.00  0.00     0.057 A 
BRANCH  16  19
HETATM   19  S   UNK N   1      33.687  17.031   6.098  0.00  0.00     0.171 S 
HETATM   20  O   UNK N   1      34.268  18.078   7.062  0.00  0.00    -0.223 OA
HETATM   21  O   UNK N   1      33.709  17.882   4.819  0.00  0.00    -0.223 OA
HETATM   22  C   UNK N   1      34.948  15.744   5.911  0.00  0.00     0.167 C 
ENDBRANCH  16  19
BRANCH  18  23
HETATM   23  C   UNK N   1      29.527  18.390   9.057  0.00  0.00     0.418 C 
HETATM   24  F   UNK N   1      28.446  19.145   8.643  0.00  0.00    -0.166 F 
HETATM   25  F   UNK N   1      29.131  17.543  10.076  0.00  0.00    -0.166 F 
HETATM   26  F   UNK N   1      30.498  19.244   9.555  0.00  0.00    -0.166 F 
ENDBRANCH  18  23
ENDBRANCH  12  13
ENDBRANCH  11  12
BRANCH   3  27
HETATM   27  C   UNK N   1      24.697  16.037   3.242  0.00  0.00     0.151 C 
BRANCH  27  28
HETATM   28  C   UNK N   1      25.480  15.413   2.124  0.00  0.00     0.143 C 
HETATM   29  O   UNK N   1      26.681  15.605   2.043  0.00  0.00    -0.650 OA
BRANCH  28  30
HETATM   30  O   UNK N   1      24.857  14.678   1.183  0.00  0.00    -0.776 OA
HETATM   31  H   UNK N   1      25.291  14.028   0.666  0.00  0.00     0.167 HD
ENDBRANCH  28  30
ENDBRANCH  27  28
ENDBRANCH   3  27
TORSDOF 7
ENDMDL
MODEL 6
REMARK VINA RESULT:      -7.2      2.680      3.995
REMARK  7 active torsions:
REMARK  status: ('A' for Active; 'I' for Inactive)
REMARK    1  A    between atoms: C_3  and  C_27 
REMARK    2  A    between atoms: N_11  and  C_12 
REMARK    3  A    between atoms: C_12  and  C_13 
REMARK    4  A    between atoms: C_16  and  S_23 
REMARK    5  A    between atoms: C_18  and  C_19 
REMARK    6  A    between atoms: C_27  and  C_28 
REMARK    7  A    between atoms: C_28  and  O_30 
ROOT
HETATM    1  C   UNK N   1      26.615  16.745   3.091  0.00  0.00     0.069 C 
HETATM    2  C   UNK N   1      26.707  17.847   4.095  0.00  0.00     0.017 A 
HETATM    3  C   UNK N   1      26.090  19.093   3.986  0.00  0.00    -0.012 A 
HETATM    4  C   UNK N   1      26.430  19.785   5.130  0.00  0.00     0.017 A 
HETATM    5  C   UNK N   1      26.130  21.074   5.558  0.00  0.00     0.017 A 
HETATM    6  C   UNK N   1      26.636  21.479   6.803  0.00  0.00     0.018 A 
HETATM    7  C   UNK N   1      27.400  20.578   7.576  0.00  0.00     0.090 A 
HETATM    8  N   UNK N   1      27.664  19.319   7.112  0.00  0.00    -0.351 N 
ATOM      9  HN  UNK N   1      28.208  18.666   7.675  1.00  0.00     0.166 HD
HETATM   10  C   UNK N   1      27.195  18.947   5.893  0.00  0.00     0.118 A 
HETATM   11  N   UNK N   1      27.397  17.764   5.261  0.00  0.00    -0.332 N 
ENDROOT
BRANCH  11  12
HETATM   12  C   UNK N   1      28.159  16.578   5.693  0.00  0.00     0.170 C 
BRANCH  12  13
HETATM   13  C   UNK N   1      29.643  16.775   5.957  0.00  0.00    -0.025 A 
HETATM   14  C   UNK N   1      30.088  17.263   7.191  0.00  0.00     0.011 A 
HETATM   15  C   UNK N   1      31.437  17.295   7.516  0.00  0.00     0.024 A 
HETATM   16  C   UNK N   1      32.383  16.856   6.597  0.00  0.00     0.059 A 
HETATM   17  C   UNK N   1      31.976  16.434   5.328  0.00  0.00     0.040 A 
HETATM   18  C   UNK N   1      30.610  16.397   4.988  0.00  0.00     0.057 A 
BRANCH  16  19
HETATM   19  S   UNK N   1      34.091  16.698   7.104  0.00  0.00     0.171 S 
HETATM   20  O   UNK N   1      34.638  18.134   7.148  0.00  0.00    -0.223 OA
HETATM   21  O   UNK N   1      34.886  16.205   5.884  0.00  0.00    -0.223 OA
HETATM   22  C   UNK N   1      34.754  15.847   8.559  0.00  0.00     0.167 C 
ENDBRANCH  16  19
BRANCH  18  23
HETATM   23  C   UNK N   1      30.206  15.940   3.606  0.00  0.00     0.418 C 
HETATM   24  F   UNK N   1      29.645  16.987   2.900  0.00  0.00    -0.166 F 
HETATM   25  F   UNK N   1      31.323  15.479   2.931  0.00  0.00    -0.166 F 
HETATM   26  F   UNK N   1      29.284  14.907   3.673  0.00  0.00    -0.166 F 
ENDBRANCH  18  23
ENDBRANCH  12  13
ENDBRANCH  11  12
BRANCH   3  27
HETATM   27  C   UNK N   1      25.234  19.571   2.850  0.00  0.00     0.151 C 
BRANCH  27  28
HETATM   28  C   UNK N   1      23.854  19.948   3.302  0.00  0.00     0.143 C 
HETATM   29  O   UNK N   1      23.176  19.143   3.918  0.00  0.00    -0.650 OA
BRANCH  28  30
HETATM   30  O   UNK N   1      23.342  21.155   2.996  0.00  0.00    -0.776 OA
HETATM   31  H   UNK N   1      23.789  21.785   2.466  0.00  0.00     0.167 HD
ENDBRANCH  28  30
ENDBRANCH  27  28
ENDBRANCH   3  27
TORSDOF 7
ENDMDL
MODEL 7
REMARK VINA RESULT:      -7.1      1.128      2.953
REMARK  7 active torsions:
REMARK  status: ('A' for Active; 'I' for Inactive)
REMARK    1  A    between atoms: C_3  and  C_27 
REMARK    2  A    between atoms: N_11  and  C_12 
REMARK    3  A    between atoms: C_12  and  C_13 
REMARK    4  A    between atoms: C_16  and  S_23 
REMARK    5  A    between atoms: C_18  and  C_19 
REMARK    6  A    between atoms: C_27  and  C_28 
REMARK    7  A    between atoms: C_28  and  O_30 
ROOT
HETATM    1  C   UNK N   1      26.654  16.663   3.844  0.00  0.00     0.069 C 
HETATM    2  C   UNK N   1      26.678  17.923   4.646  0.00  0.00     0.017 A 
HETATM    3  C   UNK N   1      26.226  19.168   4.209  0.00  0.00    -0.012 A 
HETATM    4  C   UNK N   1      26.424  20.034   5.264  0.00  0.00     0.017 A 
HETATM    5  C   UNK N   1      26.189  21.398   5.402  0.00  0.00     0.017 A 
HETATM    6  C   UNK N   1      26.501  21.990   6.636  0.00  0.00     0.018 A 
HETATM    7  C   UNK N   1      27.013  21.195   7.684  0.00  0.00     0.090 A 
HETATM    8  N   UNK N   1      27.222  19.857   7.501  0.00  0.00    -0.351 N 
ATOM      9  HN  UNK N   1      27.583  19.282   8.262  1.00  0.00     0.166 HD
HETATM   10  C   UNK N   1      26.945  19.299   6.294  0.00  0.00     0.118 A 
HETATM   11  N   UNK N   1      27.133  18.009   5.922  0.00  0.00    -0.332 N 
ENDROOT
BRANCH  11  12
HETATM   12  C   UNK N   1      27.674  16.872   6.689  0.00  0.00     0.170 C 
BRANCH  12  13
HETATM   13  C   UNK N   1      29.183  16.828   6.878  0.00  0.00    -0.025 A 
HETATM   14  C   UNK N   1      30.026  16.536   5.800  0.00  0.00     0.011 A 
HETATM   15  C   UNK N   1      31.405  16.651   5.906  0.00  0.00     0.024 A 
HETATM   16  C   UNK N   1      31.979  17.043   7.110  0.00  0.00     0.059 A 
HETATM   17  C   UNK N   1      31.168  17.268   8.226  0.00  0.00     0.040 A 
HETATM   18  C   UNK N   1      29.768  17.154   8.130  0.00  0.00     0.057 A 
BRANCH  16  19
HETATM   19  S   UNK N   1      33.731  17.397   7.172  0.00  0.00     0.171 S 
HETATM   20  O   UNK N   1      34.106  17.850   5.752  0.00  0.00    -0.223 OA
HETATM   21  O   UNK N   1      34.470  16.050   7.168  0.00  0.00    -0.223 OA
HETATM   22  C   UNK N   1      34.613  18.492   8.315  0.00  0.00     0.167 C 
ENDBRANCH  16  19
BRANCH  18  23
HETATM   23  C   UNK N   1      28.922  17.400   9.358  0.00  0.00     0.418 C 
HETATM   24  F   UNK N   1      29.370  16.625  10.411  0.00  0.00    -0.166 F 
HETATM   25  F   UNK N   1      28.999  18.736   9.708  0.00  0.00    -0.166 F 
HETATM   26  F   UNK N   1      27.593  17.091   9.115  0.00  0.00    -0.166 F 
ENDBRANCH  18  23
ENDBRANCH  12  13
ENDBRANCH  11  12
BRANCH   3  27
HETATM   27  C   UNK N   1      25.645  19.487   2.863  0.00  0.00     0.151 C 
BRANCH  27  28
HETATM   28  C   UNK N   1      24.251  20.031   2.964  0.00  0.00     0.143 C 
HETATM   29  O   UNK N   1      23.945  21.035   2.344  0.00  0.00    -0.650 OA
BRANCH  28  30
HETATM   30  O   UNK N   1      23.347  19.444   3.770  0.00  0.00    -0.776 OA
HETATM   31  H   UNK N   1      23.486  18.615   4.185  0.00  0.00     0.167 HD
ENDBRANCH  28  30
ENDBRANCH  27  28
ENDBRANCH   3  27
TORSDOF 7
ENDMDL
MODEL 8
REMARK VINA RESULT:      -7.0      3.426      7.613
REMARK  7 active torsions:
REMARK  status: ('A' for Active; 'I' for Inactive)
REMARK    1  A    between atoms: C_3  and  C_27 
REMARK    2  A    between atoms: N_11  and  C_12 
REMARK    3  A    between atoms: C_12  and  C_13 
REMARK    4  A    between atoms: C_16  and  S_23 
REMARK    5  A    between atoms: C_18  and  C_19 
REMARK    6  A    between atoms: C_27  and  C_28 
REMARK    7  A    between atoms: C_28  and  O_30 
ROOT
HETATM    1  C   UNK N   1      31.648  17.438   4.398  0.00  0.00     0.069 C 
HETATM    2  C   UNK N   1      30.847  17.459   5.658  0.00  0.00     0.017 A 
HETATM    3  C   UNK N   1      31.300  17.044   6.911  0.00  0.00    -0.012 A 
HETATM    4  C   UNK N   1      30.248  17.245   7.779  0.00  0.00     0.017 A 
HETATM    5  C   UNK N   1      30.107  16.994   9.139  0.00  0.00     0.017 A 
HETATM    6  C   UNK N   1      28.882  17.329   9.739  0.00  0.00     0.018 A 
HETATM    7  C   UNK N   1      27.861  17.920   8.963  0.00  0.00     0.090 A 
HETATM    8  N   UNK N   1      28.051  18.151   7.629  0.00  0.00    -0.351 N 
ATOM      9  HN  UNK N   1      27.315  18.585   7.072  1.00  0.00     0.166 HD
HETATM   10  C   UNK N   1      29.228  17.795   7.052  0.00  0.00     0.118 A 
HETATM   11  N   UNK N   1      29.569  17.907   5.745  0.00  0.00    -0.332 N 
ENDROOT
BRANCH  11  12
HETATM   12  C   UNK N   1      28.792  18.427   4.605  0.00  0.00     0.170 C 
BRANCH  12  13
HETATM   13  C   UNK N   1      27.934  17.426   3.846  0.00  0.00    -0.025 A 
HETATM   14  C   UNK N   1      28.474  16.209   3.416  0.00  0.00     0.011 A 
HETATM   15  C   UNK N   1      27.676  15.213   2.870  0.00  0.00     0.024 A 
HETATM   16  C   UNK N   1      26.310  15.423   2.719  0.00  0.00     0.059 A 
HETATM   17  C   UNK N   1      25.754  16.657   3.069  0.00  0.00     0.040 A 
HETATM   18  C   UNK N   1      26.554  17.673   3.623  0.00  0.00     0.057 A 
BRANCH  16  19
HETATM   19  S   UNK N   1      25.263  14.061   2.221  0.00  0.00     0.171 S 
HETATM   20  O   UNK N   1      24.496  14.567   0.989  0.00  0.00    -0.223 OA
HETATM   21  O   UNK N   1      24.081  14.011   3.202  0.00  0.00    -0.223 OA
HETATM   22  C   UNK N   1      25.742  12.350   1.866  0.00  0.00     0.167 C 
ENDBRANCH  16  19
BRANCH  18  23
HETATM   23  C   UNK N   1      25.920  18.997   3.985  0.00  0.00     0.418 C 
HETATM   24  F   UNK N   1      25.969  19.193   5.352  0.00  0.00    -0.166 F 
HETATM   25  F   UNK N   1      26.602  20.020   3.351  0.00  0.00    -0.166 F 
HETATM   26  F   UNK N   1      24.596  19.041   3.579  0.00  0.00    -0.166 F 
ENDBRANCH  18  23
ENDBRANCH  12  13
ENDBRANCH  11  12
BRANCH   3  27
HETATM   27  C   UNK N   1      32.657  16.490   7.233  0.00  0.00     0.151 C 
BRANCH  27  28
HETATM   28  C   UNK N   1      33.632  17.568   7.604  0.00  0.00     0.143 C 
HETATM   29  O   UNK N   1      33.676  17.979   8.750  0.00  0.00    -0.650 OA
BRANCH  28  30
HETATM   30  O   UNK N   1      34.431  18.115   6.668  0.00  0.00    -0.776 OA
HETATM   31  H   UNK N   1      34.110  18.618   5.945  0.00  0.00     0.167 HD
ENDBRANCH  28  30
ENDBRANCH  27  28
ENDBRANCH   3  27
TORSDOF 7
ENDMDL
MODEL 9
REMARK VINA RESULT:      -7.0      3.401      5.027
REMARK  7 active torsions:
REMARK  status: ('A' for Active; 'I' for Inactive)
REMARK    1  A    between atoms: C_3  and  C_27 
REMARK    2  A    between atoms: N_11  and  C_12 
REMARK    3  A    between atoms: C_12  and  C_13 
REMARK    4  A    between atoms: C_16  and  S_23 
REMARK    5  A    between atoms: C_18  and  C_19 
REMARK    6  A    between atoms: C_27  and  C_28 
REMARK    7  A    between atoms: C_28  and  O_30 
ROOT
HETATM    1  C   UNK N   1      30.485  16.424   3.994  0.00  0.00     0.069 C 
HETATM    2  C   UNK N   1      30.085  16.756   5.395  0.00  0.00     0.017 A 
HETATM    3  C   UNK N   1      28.834  17.234   5.786  0.00  0.00    -0.012 A 
HETATM    4  C   UNK N   1      28.901  17.392   7.155  0.00  0.00     0.017 A 
HETATM    5  C   UNK N   1      27.974  17.856   8.081  0.00  0.00     0.017 A 
HETATM    6  C   UNK N   1      28.361  17.885   9.430  0.00  0.00     0.018 A 
HETATM    7  C   UNK N   1      29.645  17.430   9.800  0.00  0.00     0.090 A 
HETATM    8  N   UNK N   1      30.520  16.977   8.851  0.00  0.00    -0.351 N 
ATOM      9  HN  UNK N   1      31.444  16.640   9.121  1.00  0.00     0.166 HD
HETATM   10  C   UNK N   1      30.146  16.982   7.545  0.00  0.00     0.118 A 
HETATM   11  N   UNK N   1      30.894  16.615   6.475  0.00  0.00    -0.332 N 
ENDROOT
BRANCH  11  12
HETATM   12  C   UNK N   1      32.283  16.124   6.415  0.00  0.00     0.170 C 
BRANCH  12  13
HETATM   13  C   UNK N   1      32.954  15.799   7.740  0.00  0.00    -0.025 A 
HETATM   14  C   UNK N   1      32.793  14.539   8.329  0.00  0.00     0.011 A 
HETATM   15  C   UNK N   1      33.524  14.162   9.447  0.00  0.00     0.024 A 
HETATM   16  C   UNK N   1      34.424  15.052  10.021  0.00  0.00     0.059 A 
HETATM   17  C   UNK N   1      34.551  16.344   9.502  0.00  0.00     0.040 A 
HETATM   18  C   UNK N   1      33.815  16.737   8.368  0.00  0.00     0.057 A 
BRANCH  16  19
HETATM   19  S   UNK N   1      35.513  14.483  11.321  0.00  0.00     0.171 S 
HETATM   20  O   UNK N   1      34.589  13.877  12.390  0.00  0.00    -0.223 OA
HETATM   21  O   UNK N   1      35.967  15.721  12.111  0.00  0.00    -0.223 OA
HETATM   22  C   UNK N   1      36.941  13.378  11.183  0.00  0.00     0.167 C 
ENDBRANCH  16  19
BRANCH  18  23
HETATM   23  C   UNK N   1      33.973  18.143   7.836  0.00  0.00     0.418 C 
HETATM   24  F   UNK N   1      34.104  18.122   6.460  0.00  0.00    -0.166 F 
HETATM   25  F   UNK N   1      32.861  18.891   8.179  0.00  0.00    -0.166 F 
HETATM   26  F   UNK N   1      35.092  18.756   8.378  0.00  0.00    -0.166 F 
ENDBRANCH  18  23
ENDBRANCH  12  13
ENDBRANCH  11  12
BRANCH   3  27
HETATM   27  C   UNK N   1      27.664  17.517   4.890  0.00  0.00     0.151 C 
BRANCH  27  28
HETATM   28  C   UNK N   1      27.470  18.987   4.663  0.00  0.00     0.143 C 
HETATM   29  O   UNK N   1      26.571  19.577   5.238  0.00  0.00    -0.650 OA
BRANCH  28  30
HETATM   30  O   UNK N   1      28.256  19.653   3.796  0.00  0.00    -0.776 OA
HETATM   31  H   UNK N   1      28.004  20.457   3.384  0.00  0.00     0.167 HD
ENDBRANCH  28  30
ENDBRANCH  27  28
ENDBRANCH   3  27
TORSDOF 7
ENDMDL
