REMARK  20 active torsions:
REMARK  status: ('A' for Active; 'I' for Inactive)
REMARK    1  A    between atoms: C_2  and  C_3 
REMARK    2  A    between atoms: C_2  and  O_66 
REMARK    3  A    between atoms: C_3  and  C_4 
REMARK    4  A    between atoms: C_3  and  N_7 
REMARK       I    between atoms: C_4  and  N_6 
REMARK       I    between atoms: N_7  and  C_8 
REMARK    5  A    between atoms: C_10  and  C_8 
REMARK    6  A    between atoms: C_15  and  N_54 
REMARK    7  A    between atoms: C_19  and  C_46 
REMARK    8  A    between atoms: C_23  and  C_36 
REMARK    9  A    between atoms: C_27  and  C_31 
REMARK   10  A    between atoms: C_31  and  C_32 
REMARK   11  A    between atoms: C_32  and  C_33 
REMARK   12  A    between atoms: C_33  and  C_34 
REMARK   13  A    between atoms: C_34  and  N_35 
REMARK   14  A    between atoms: C_36  and  C_37 
REMARK   15  A    between atoms: C_46  and  C_47 
REMARK   16  A    between atoms: C_50  and  O_53 
REMARK       I    between atoms: N_54  and  C_55 
REMARK   17  A    between atoms: C_55  and  C_57 
REMARK   18  A    between atoms: C_57  and  C_58 
REMARK   19  A    between atoms: C_57  and  N_65 
REMARK   20  A    between atoms: C_58  and  C_59 
ROOT
HETATM    1  C   UNK N   1       2.654   3.239   1.169  0.00  0.00     0.186 C 
HETATM    2  C   UNK N   1       3.698   3.620   0.115  0.00  0.00     0.120 C 
HETATM    3  S   UNK N   1       3.392   2.883  -1.528  0.00  0.00    -0.095 SA
HETATM    4  S   UNK N   1       5.429   2.902  -2.100  0.00  0.00    -0.095 SA
HETATM    5  C   UNK N   1       5.823   1.646  -0.857  0.00  0.00     0.120 C 
HETATM    6  C   UNK N   1       7.278   1.629  -0.409  0.00  0.00     0.186 C 
HETATM    7  C   UNK N   1       8.280   1.361  -1.503  0.00  0.00     0.242 C 
HETATM    8  O   UNK N   1       8.600   2.247  -2.277  0.00  0.00    -0.271 OA
HETATM    9  N   UNK N   1       8.852   0.141  -1.616  0.00  0.00    -0.346 N 
HETATM   10  C   UNK N   1       8.448  -0.946  -0.755  0.00  0.00     0.180 C 
HETATM   11  C   UNK N   1       8.276  -2.183  -1.568  0.00  0.00     0.241 C 
HETATM   12  O   UNK N   1       9.267  -2.704  -2.055  0.00  0.00    -0.271 OA
HETATM   13  N   UNK N   1       7.068  -2.765  -1.780  0.00  0.00    -0.346 N 
HETATM   14  C   UNK N   1       5.724  -2.335  -1.410  0.00  0.00     0.181 C 
HETATM   15  C   UNK N   1       5.463  -1.573  -0.134  0.00  0.00     0.241 C 
HETATM   16  O   UNK N   1       6.289  -1.517   0.763  0.00  0.00    -0.271 OA
HETATM   17  N   UNK N   1       4.254  -0.974   0.012  0.00  0.00    -0.346 N 
HETATM   18  C   UNK N   1       3.863  -0.273   1.217  0.00  0.00     0.176 C 
HETATM   19  C   UNK N   1       2.783   0.739   0.995  0.00  0.00     0.241 C 
HETATM   20  O   UNK N   1       2.022   0.633   0.043  0.00  0.00    -0.271 OA
HETATM   21  N   UNK N   1       2.913   1.903   1.676  0.00  0.00    -0.345 N 
HETATM   22  H   UNK N   1       9.552  -0.008  -2.292  0.00  0.00     0.163 HD
HETATM   23  H   UNK N   1       7.105  -3.621  -2.264  0.00  0.00     0.163 HD
HETATM   24  H   UNK N   1       3.614  -1.019  -0.735  0.00  0.00     0.163 HD
HETATM   25  H   UNK N   1       3.213   1.837   2.611  0.00  0.00     0.163 HD
ENDROOT
BRANCH   6  26
HETATM   26  N   UNK N   1       7.697   2.674   0.512  0.00  0.00    -0.345 N 
HETATM   27  C   UNK N   1       7.840   3.990   0.210  0.00  0.00     0.240 C 
HETATM   28  O   UNK N   1       7.526   4.422  -0.886  0.00  0.00    -0.271 OA
HETATM   29  H   UNK N   1       7.894   2.403   1.438  0.00  0.00     0.163 HD
BRANCH  27  30
HETATM   30  C   UNK N   1       8.510   4.898   1.201  0.00  0.00     0.171 C 
BRANCH  30  31
HETATM   31  C   UNK N   1       7.676   6.007   1.860  0.00  0.00     0.072 C 
BRANCH  31  32
HETATM   32  C   UNK N   1       6.328   6.294   1.283  0.00  0.00    -0.056 A 
HETATM   33  C   UNK N   1       5.194   6.047   2.063  0.00  0.00     0.007 A 
HETATM   34  C   UNK N   1       3.922   6.340   1.565  0.00  0.00     0.001 A 
HETATM   35  C   UNK N   1       3.780   6.878   0.283  0.00  0.00     0.000 A 
HETATM   36  C   UNK N   1       4.913   7.136  -0.496  0.00  0.00     0.001 A 
HETATM   37  C   UNK N   1       6.187   6.853   0.006  0.00  0.00     0.007 A 
ENDBRANCH  31  32
ENDBRANCH  30  31
BRANCH  30  38
HETATM   38  N   UNK N   1       9.711   5.465   0.612  0.00  0.00    -0.418 N 
HETATM   39  H   UNK N   1      10.477   4.933   0.199  0.00  0.00     0.150 HD
HETATM   40  H   UNK N   1       9.796   6.481   0.612  0.00  0.00     0.150 HD
ENDBRANCH  30  38
ENDBRANCH  27  30
ENDBRANCH   6  26
BRANCH  10  41
HETATM   41  C   UNK N   1       9.431  -1.207   0.409  0.00  0.00     0.073 C 
BRANCH  41  42
HETATM   42  C   UNK N   1      10.339  -0.050   0.657  0.00  0.00    -0.056 A 
HETATM   43  C   UNK N   1       9.997   0.938   1.586  0.00  0.00     0.010 A 
HETATM   44  C   UNK N   1      10.785   2.088   1.699  0.00  0.00     0.037 A 
HETATM   45  C   UNK N   1      11.907   2.250   0.879  0.00  0.00     0.065 A 
HETATM   46  C   UNK N   1      12.257   1.253  -0.033  0.00  0.00     0.037 A 
HETATM   47  C   UNK N   1      11.471   0.107  -0.148  0.00  0.00     0.010 A 
BRANCH  45  48
HETATM   48  O   UNK N   1      12.646   3.367   0.964  0.00  0.00    -0.361 OA
HETATM   49  H   UNK N   1      13.580   3.310   1.023  0.00  0.00     0.217 HD
ENDBRANCH  45  48
ENDBRANCH  41  42
ENDBRANCH  10  41
BRANCH   1  50
HETATM   50  C   UNK N   1       1.258   3.596   0.766  0.00  0.00     0.242 C 
HETATM   51  N   UNK N   1       0.692   2.981  -0.303  0.00  0.00    -0.344 N 
HETATM   52  H   UNK N   1       1.274   2.327  -0.755  0.00  0.00     0.163 HD
HETATM   53  O   UNK N   1       0.691   4.494   1.363  0.00  0.00    -0.271 OA
BRANCH  51  54
HETATM   54  C   UNK N   1      -0.628   3.123  -0.893  0.00  0.00     0.204 C 
BRANCH  54  55
HETATM   55  C   UNK N   1      -1.580   4.163  -0.279  0.00  0.00     0.146 C 
HETATM   56  C   UNK N   1      -1.119   5.591  -0.517  0.00  0.00     0.042 C 
BRANCH  55  57
HETATM   57  O   UNK N   1      -1.827   3.928   1.076  0.00  0.00    -0.393 OA
HETATM   58  H   UNK N   1      -2.054   3.994   2.016  0.00  0.00     0.210 HD
ENDBRANCH  55  57
ENDBRANCH  54  55
BRANCH  54  59
HETATM   59  C   UNK N   1      -1.243   1.764  -0.922  0.00  0.00     0.240 C 
HETATM   60  O   UNK N   1      -1.474   1.227  -1.992  0.00  0.00    -0.271 OA
HETATM   61  N   UNK N   1      -1.473   1.097   0.228  0.00  0.00    -0.368 N 
HETATM   62  H   UNK N   1      -1.978   0.999   1.067  0.00  0.00     0.159 HD
HETATM   63  H   UNK N   1      -0.827   0.354   0.228  0.00  0.00     0.159 HD
ENDBRANCH  54  59
ENDBRANCH  51  54
ENDBRANCH   1  50
BRANCH  14  64
HETATM   64  C   UNK N   1       4.795  -3.551  -1.460  0.00  0.00     0.075 C 
BRANCH  64  65
HETATM   65  C   UNK N   1       5.307  -4.813  -0.791  0.00  0.00    -0.028 A 
HETATM   66  C   UNK N   1       4.746  -6.067  -1.021  0.00  0.00     0.096 A 
HETATM   67  N   UNK N   1       5.451  -7.018  -0.368  0.00  0.00    -0.365 N 
HETATM   68  C   UNK N   1       6.453  -6.379   0.274  0.00  0.00     0.042 A 
HETATM   69  H   UNK N   1       5.270  -7.986  -0.362  0.00  0.00     0.165 HD
HETATM   70  C   UNK N   1       6.387  -5.034   0.050  0.00  0.00    -0.002 A 
HETATM   71  C   UNK N   1       7.449  -6.963   1.044  0.00  0.00     0.030 A 
HETATM   72  C   UNK N   1       7.332  -4.175   0.624  0.00  0.00     0.014 A 
HETATM   73  C   UNK N   1       8.354  -4.725   1.411  0.00  0.00     0.001 A 
HETATM   74  C   UNK N   1       8.419  -6.118   1.617  0.00  0.00     0.002 A 
ENDBRANCH  64  65
ENDBRANCH  14  64
BRANCH  18  75
HETATM   75  C   UNK N   1       3.714  -1.150   2.452  0.00  0.00     0.035 C 
BRANCH  75  76
HETATM   76  C   UNK N   1       3.181  -2.531   2.119  0.00  0.00     0.004 C 
BRANCH  76  77
HETATM   77  C   UNK N   1       1.786  -2.452   1.530  0.00  0.00     0.019 C 
BRANCH  77  78
HETATM   78  C   UNK N   1       1.384  -3.815   1.010  0.00  0.00     0.111 C 
BRANCH  78  79
HETATM   79  N   UNK N   1       1.196  -4.730   2.122  0.00  0.00    -0.430 N 
HETATM   80  H   UNK N   1       0.573  -4.936   2.903  0.00  0.00     0.149 HD
HETATM   81  H   UNK N   1       1.958  -5.407   2.122  0.00  0.00     0.149 HD
ENDBRANCH  78  79
ENDBRANCH  77  78
ENDBRANCH  76  77
ENDBRANCH  75  76
ENDBRANCH  18  75
TORSDOF 20
