REMARK  12 active torsions:
REMARK  status: ('A' for Active; 'I' for Inactive)
REMARK    1  A    between atoms: O_2  and  C_3 
REMARK    2  A    between atoms: C_6  and  C_14 
REMARK    3  A    between atoms: C_8  and  N_9 
REMARK    4  A    between atoms: N_9  and  C_10 
REMARK    5  A    between atoms: C_10  and  C_11 
REMARK    6  A    between atoms: C_11  and  O_13 
REMARK    7  A    between atoms: C_14  and  S_15 
REMARK    8  A    between atoms: S_15  and  C_18 
REMARK    9  A    between atoms: C_19  and  C_20 
REMARK   10  A    between atoms: C_21  and  O_30 
REMARK   11  A    between atoms: C_23  and  O_28 
REMARK   12  A    between atoms: C_25  and  O_26 
ROOT
HETATM    1  S   UNK N   1      -2.013  -7.071   0.965  0.00  0.00     0.169 S 
HETATM    2  O   UNK N   1      -3.182  -7.820   1.621  0.00  0.00    -0.223 OA
HETATM    3  O   UNK N   1      -1.703  -6.089   2.108  0.00  0.00    -0.223 OA
ENDROOT
BRANCH   1   4
HETATM    4  C   UNK N   1      -2.664  -6.117  -0.442  0.00  0.00     0.183 C 
BRANCH   4   5
HETATM    5  C   UNK N   1      -2.151  -4.721  -0.391  0.00  0.00    -0.042 A 
HETATM    6  C   UNK N   1      -0.802  -4.440  -0.617  0.00  0.00     0.011 A 
HETATM    7  C   UNK N   1      -0.335  -3.130  -0.496  0.00  0.00     0.039 A 
HETATM    8  C   UNK N   1      -1.198  -2.087  -0.136  0.00  0.00     0.094 A 
HETATM    9  C   UNK N   1      -2.575  -2.377   0.087  0.00  0.00     0.062 A 
HETATM   10  C   UNK N   1      -3.026  -3.698  -0.048  0.00  0.00     0.040 A 
BRANCH   8  11
HETATM   11  O   UNK N   1      -0.659  -0.844  -0.014  0.00  0.00    -0.354 OA
HETATM   12  C   UNK N   1      -1.331   0.292   0.374  0.00  0.00     0.210 C 
ENDBRANCH   8  11
BRANCH   9  13
HETATM   13  N   UNK N   1      -3.495  -1.367   0.469  0.00  0.00    -0.378 N 
HETATM   14  H   UNK N   1      -3.166  -0.449   0.602  0.00  0.00     0.160 HD
BRANCH  13  15
HETATM   15  C   UNK N   1      -4.899  -1.645   0.670  0.00  0.00     0.229 C 
BRANCH  15  16
HETATM   16  C   UNK N   1      -5.761  -0.579   0.068  0.00  0.00     0.158 C 
HETATM   17  O   UNK N   1      -5.267   0.429  -0.415  0.00  0.00    -0.649 OA
BRANCH  16  18
HETATM   18  O   UNK N   1      -7.099  -0.728   0.075  0.00  0.00    -0.775 OA
HETATM   19  H   UNK N   1      -7.654   0.027   0.079  0.00  0.00     0.167 HD
ENDBRANCH  16  18
ENDBRANCH  15  16
ENDBRANCH  13  15
ENDBRANCH   9  13
ENDBRANCH   4   5
ENDBRANCH   1   4
BRANCH   1  20
HETATM   20  C   UNK N   1      -0.632  -8.187   0.860  0.00  0.00     0.110 C 
HETATM   21  C   UNK N   1       0.404  -7.839   0.106  0.00  0.00     0.028 C 
BRANCH  21  22
HETATM   22  C   UNK N   1       1.634  -8.643  -0.067  0.00  0.00     0.031 A 
HETATM   23  C   UNK N   1       2.827  -7.907  -0.230  0.00  0.00     0.083 A 
HETATM   24  C   UNK N   1       4.056  -8.572  -0.321  0.00  0.00     0.074 A 
HETATM   25  C   UNK N   1       4.126  -9.958  -0.247  0.00  0.00     0.073 A 
HETATM   26  C   UNK N   1       2.946 -10.698  -0.106  0.00  0.00     0.074 A 
HETATM   27  C   UNK N   1       1.696 -10.076  -0.031  0.00  0.00     0.083 A 
BRANCH  23  28
HETATM   28  O   UNK N   1       2.769  -6.549  -0.269  0.00  0.00    -0.355 OA
HETATM   29  C   UNK N   1       3.878  -5.743  -0.394  0.00  0.00     0.210 C 
ENDBRANCH  23  28
BRANCH  25  30
HETATM   30  O   UNK N   1       5.338 -10.557  -0.313  0.00  0.00    -0.356 OA
HETATM   31  C   UNK N   1       5.512 -11.920  -0.225  0.00  0.00     0.210 C 
ENDBRANCH  25  30
BRANCH  27  32
HETATM   32  O   UNK N   1       0.618 -10.899   0.053  0.00  0.00    -0.355 OA
HETATM   33  C   UNK N   1      -0.622 -10.645  -0.484  0.00  0.00     0.210 C 
ENDBRANCH  27  32
ENDBRANCH  21  22
ENDBRANCH   1  20
TORSDOF 12
