MODEL 1
REMARK VINA RESULT:      -7.1      0.000      0.000
REMARK  8 active torsions:
REMARK  status: ('A' for Active; 'I' for Inactive)
REMARK    1  A    between atoms: C_5  and  N_25 
REMARK       I    between atoms: C_8  and  N_24 
REMARK    2  A    between atoms: C_13  and  N_12 
REMARK    3  A    between atoms: C_15  and  C_18 
REMARK    4  A    between atoms: C_18  and  O_19 
REMARK    5  A    between atoms: O_19  and  C_20 
REMARK    6  A    between atoms: C_20  and  C_22 
REMARK    7  A    between atoms: C_22  and  O_23 
REMARK    8  A    between atoms: N_25  and  C_26 
ROOT
HETATM    1  C   UNK N   1      30.348  17.011   3.990  0.00  0.00     0.186 A 
HETATM    2  N   UNK N   1      29.024  17.279   3.769  0.00  0.00    -0.346 N 
ATOM      3  HN  UNK N   1      28.519  17.252   2.883  1.00  0.00     0.167 HD
HETATM    4  C   UNK N   1      28.539  17.586   4.990  0.00  0.00     0.123 A 
HETATM    5  C   UNK N   1      27.282  18.015   5.393  0.00  0.00     0.148 A 
HETATM    6  N   UNK N   1      27.094  18.299   6.720  0.00  0.00    -0.175 N 
ATOM      7  HN  UNK N   1      26.179  18.617   7.040  1.00  0.00     0.186 HD
HETATM    8  C   UNK N   1      28.112  18.163   7.630  0.00  0.00     0.679 A 
HETATM    9  N   UNK N   1      29.346  17.772   7.211  0.00  0.00    -0.174 N 
ATOM     10  HN  UNK N   1      30.121  17.689   7.869  1.00  0.00     0.186 HD
HETATM   11  C   UNK N   1      29.517  17.496   5.899  0.00  0.00     0.155 A 
HETATM   12  N   UNK N   1      30.650  17.148   5.302  0.00  0.00    -0.318 N 
HETATM   13  N   UNK N   1      27.893  18.445   8.991  0.00  0.00    -0.234 N 
HETATM   14  H   UNK N   1      28.621  18.330   9.642  0.00  0.00     0.174 HD
HETATM   15  H   UNK N   1      27.009  18.757   9.292  0.00  0.00     0.174 HD
ENDROOT
BRANCH  12  16
HETATM   16  C   UNK N   1      31.885  17.075   6.047  0.00  0.00     0.115 C 
HETATM   17  C   UNK N   1      32.167  15.724   6.655  0.00  0.00     0.040 C 
HETATM   18  C   UNK N   1      33.505  16.006   7.286  0.00  0.00     0.034 C 
HETATM   19  C   UNK N   1      34.117  16.944   6.270  0.00  0.00    -0.022 C 
HETATM   20  C   UNK N   1      33.183  17.494   5.503  0.00  0.00    -0.005 C 
BRANCH  18  21
HETATM   21  C   UNK N   1      33.204  16.737   8.604  0.00  0.00     0.187 C 
BRANCH  21  22
HETATM   22  O   UNK N   1      33.896  16.132   9.609  0.00  0.00    -0.319 OA
BRANCH  22  23
HETATM   23  C   UNK N   1      35.028  16.690  10.076  0.00  0.00     0.282 C 
HETATM   24  O   UNK N   1      35.349  17.824   9.747  0.00  0.00    -0.263 OA
BRANCH  23  25
HETATM   25  C   UNK N   1      35.792  15.960  11.118  0.00  0.00     0.275 C 
BRANCH  25  26
HETATM   26  O   UNK N   1      37.152  16.006  10.843  0.00  0.00    -0.391 OA
HETATM   27  H   UNK N   1      37.687  15.227  10.619  0.00  0.00     0.210 HD
ENDBRANCH  25  26
ENDBRANCH  23  25
ENDBRANCH  22  23
ENDBRANCH  21  22
ENDBRANCH  18  21
ENDBRANCH  12  16
BRANCH   5  28
HETATM   28  N   UNK N   1      26.247  18.212   4.449  0.00  0.00    -0.369 N 
HETATM   29  H   UNK N   1      25.997  17.469   3.852  0.00  0.00     0.161 HD
BRANCH  28  30
HETATM   30  C   UNK N   1      25.542  19.472   4.331  0.00  0.00     0.083 A 
HETATM   31  C   UNK N   1      26.507  20.540   3.859  0.00  0.00     0.027 A 
HETATM   32  C   UNK N   1      25.479  19.987   2.902  0.00  0.00     0.027 A 
ENDBRANCH  28  30
ENDBRANCH   5  28
TORSDOF 8
ENDMDL
MODEL 2
REMARK VINA RESULT:      -7.0      5.658      9.138
REMARK  8 active torsions:
REMARK  status: ('A' for Active; 'I' for Inactive)
REMARK    1  A    between atoms: C_5  and  N_25 
REMARK       I    between atoms: C_8  and  N_24 
REMARK    2  A    between atoms: C_13  and  N_12 
REMARK    3  A    between atoms: C_15  and  C_18 
REMARK    4  A    between atoms: C_18  and  O_19 
REMARK    5  A    between atoms: O_19  and  C_20 
REMARK    6  A    between atoms: C_20  and  C_22 
REMARK    7  A    between atoms: C_22  and  O_23 
REMARK    8  A    between atoms: N_25  and  C_26 
ROOT
HETATM    1  C   UNK N   1      36.237  12.362   8.205  0.00  0.00     0.186 A 
HETATM    2  N   UNK N   1      36.813  12.280   9.444  0.00  0.00    -0.346 N 
ATOM      3  HN  UNK N   1      37.332  11.498   9.843  1.00  0.00     0.167 HD
HETATM    4  C   UNK N   1      36.538  13.470  10.017  0.00  0.00     0.123 A 
HETATM    5  C   UNK N   1      36.795  13.951  11.293  0.00  0.00     0.148 A 
HETATM    6  N   UNK N   1      36.348  15.207  11.610  0.00  0.00    -0.175 N 
ATOM      7  HN  UNK N   1      36.524  15.582  12.543  1.00  0.00     0.186 HD
HETATM    8  C   UNK N   1      35.668  15.973  10.697  0.00  0.00     0.679 A 
HETATM    9  N   UNK N   1      35.397  15.472   9.462  0.00  0.00    -0.174 N 
ATOM     10  HN  UNK N   1      34.871  16.018   8.779  1.00  0.00     0.186 HD
HETATM   11  C   UNK N   1      35.843  14.231   9.164  0.00  0.00     0.155 A 
HETATM   12  N   UNK N   1      35.638  13.564   8.036  0.00  0.00    -0.318 N 
HETATM   13  N   UNK N   1      35.231  17.267  11.039  0.00  0.00    -0.234 N 
HETATM   14  H   UNK N   1      34.758  17.818  10.375  0.00  0.00     0.174 HD
HETATM   15  H   UNK N   1      35.399  17.620  11.942  0.00  0.00     0.174 HD
ENDROOT
BRANCH  12  16
HETATM   16  C   UNK N   1      34.828  14.127   6.982  0.00  0.00     0.115 C 
HETATM   17  C   UNK N   1      35.573  15.048   6.048  0.00  0.00     0.040 C 
HETATM   18  C   UNK N   1      34.462  15.389   5.090  0.00  0.00     0.034 C 
HETATM   19  C   UNK N   1      33.711  14.078   5.032  0.00  0.00    -0.022 C 
HETATM   20  C   UNK N   1      33.992  13.319   6.085  0.00  0.00    -0.005 C 
BRANCH  18  21
HETATM   21  C   UNK N   1      33.625  16.475   5.785  0.00  0.00     0.187 C 
BRANCH  21  22
HETATM   22  O   UNK N   1      34.466  17.422   6.289  0.00  0.00    -0.319 OA
BRANCH  22  23
HETATM   23  C   UNK N   1      34.182  18.019   7.461  0.00  0.00     0.282 C 
HETATM   24  O   UNK N   1      34.994  18.756   8.001  0.00  0.00    -0.263 OA
BRANCH  23  25
HETATM   25  C   UNK N   1      32.805  17.885   7.999  0.00  0.00     0.275 C 
BRANCH  25  26
HETATM   26  O   UNK N   1      32.820  17.190   9.201  0.00  0.00    -0.391 OA
HETATM   27  H   UNK N   1      32.824  17.616  10.073  0.00  0.00     0.210 HD
ENDBRANCH  25  26
ENDBRANCH  23  25
ENDBRANCH  22  23
ENDBRANCH  21  22
ENDBRANCH  18  21
ENDBRANCH  12  16
BRANCH   5  28
HETATM   28  N   UNK N   1      37.445  13.141  12.255  0.00  0.00    -0.369 N 
HETATM   29  H   UNK N   1      38.429  13.141  12.292  0.00  0.00     0.161 HD
BRANCH  28  30
HETATM   30  C   UNK N   1      36.708  12.313  13.188  0.00  0.00     0.083 A 
HETATM   31  C   UNK N   1      37.686  11.512  14.022  0.00  0.00     0.027 A 
HETATM   32  C   UNK N   1      36.961  12.682  14.640  0.00  0.00     0.027 A 
ENDBRANCH  28  30
ENDBRANCH   5  28
TORSDOF 8
ENDMDL
MODEL 3
REMARK VINA RESULT:      -6.5      4.957      9.265
REMARK  8 active torsions:
REMARK  status: ('A' for Active; 'I' for Inactive)
REMARK    1  A    between atoms: C_5  and  N_25 
REMARK       I    between atoms: C_8  and  N_24 
REMARK    2  A    between atoms: C_13  and  N_12 
REMARK    3  A    between atoms: C_15  and  C_18 
REMARK    4  A    between atoms: C_18  and  O_19 
REMARK    5  A    between atoms: O_19  and  C_20 
REMARK    6  A    between atoms: C_20  and  C_22 
REMARK    7  A    between atoms: C_22  and  O_23 
REMARK    8  A    between atoms: N_25  and  C_26 
ROOT
HETATM    1  C   UNK N   1      35.269  16.677  10.583  0.00  0.00     0.186 A 
HETATM    2  N   UNK N   1      35.743  15.879  11.589  0.00  0.00    -0.346 N 
ATOM      3  HN  UNK N   1      36.362  16.141  12.358  1.00  0.00     0.167 HD
HETATM    4  C   UNK N   1      35.205  14.668  11.335  0.00  0.00     0.123 A 
HETATM    5  C   UNK N   1      35.377  13.442  11.961  0.00  0.00     0.148 A 
HETATM    6  N   UNK N   1      34.722  12.356  11.441  0.00  0.00    -0.175 N 
ATOM      7  HN  UNK N   1      34.834  11.444  11.884  1.00  0.00     0.186 HD
HETATM    8  C   UNK N   1      33.918  12.471  10.335  0.00  0.00     0.679 A 
HETATM    9  N   UNK N   1      33.787  13.675   9.716  0.00  0.00    -0.174 N 
ATOM     10  HN  UNK N   1      33.212  13.774   8.878  1.00  0.00     0.186 HD
HETATM   11  C   UNK N   1      34.439  14.737  10.240  0.00  0.00     0.155 A 
HETATM   12  N   UNK N   1      34.468  15.970   9.752  0.00  0.00    -0.318 N 
HETATM   13  N   UNK N   1      33.242  11.346   9.827  0.00  0.00    -0.234 N 
HETATM   14  H   UNK N   1      32.653  11.437   9.044  0.00  0.00     0.174 HD
HETATM   15  H   UNK N   1      33.360  10.468  10.255  0.00  0.00     0.174 HD
ENDROOT
BRANCH  12  16
HETATM   16  C   UNK N   1      33.799  16.290   8.513  0.00  0.00     0.115 C 
HETATM   17  C   UNK N   1      33.064  17.607   8.524  0.00  0.00     0.040 C 
HETATM   18  C   UNK N   1      32.553  17.624   7.108  0.00  0.00     0.034 C 
HETATM   19  C   UNK N   1      33.703  16.972   6.373  0.00  0.00    -0.022 C 
HETATM   20  C   UNK N   1      34.466  16.272   7.205  0.00  0.00    -0.005 C 
BRANCH  18  21
HETATM   21  C   UNK N   1      31.308  16.722   7.098  0.00  0.00     0.187 C 
BRANCH  21  22
HETATM   22  O   UNK N   1      30.578  16.970   8.222  0.00  0.00    -0.319 OA
BRANCH  22  23
HETATM   23  C   UNK N   1      29.434  17.672   8.139  0.00  0.00     0.282 C 
HETATM   24  O   UNK N   1      28.831  17.765   7.079  0.00  0.00    -0.263 OA
BRANCH  23  25
HETATM   25  C   UNK N   1      28.841  18.198   9.395  0.00  0.00     0.275 C 
BRANCH  25  26
HETATM   26  O   UNK N   1      27.458  18.248   9.293  0.00  0.00    -0.391 OA
HETATM   27  H   UNK N   1      26.863  18.392  10.046  0.00  0.00     0.210 HD
ENDBRANCH  25  26
ENDBRANCH  23  25
ENDBRANCH  22  23
ENDBRANCH  21  22
ENDBRANCH  18  21
ENDBRANCH  12  16
BRANCH   5  28
HETATM   28  N   UNK N   1      36.252  13.309  13.065  0.00  0.00    -0.369 N 
HETATM   29  H   UNK N   1      37.197  13.083  12.901  0.00  0.00     0.161 HD
BRANCH  28  30
HETATM   30  C   UNK N   1      35.803  13.493  14.430  0.00  0.00     0.083 A 
HETATM   31  C   UNK N   1      36.600  12.584  15.343  0.00  0.00     0.027 A 
HETATM   32  C   UNK N   1      36.878  14.067  15.338  0.00  0.00     0.027 A 
ENDBRANCH  28  30
ENDBRANCH   5  28
TORSDOF 8
ENDMDL
MODEL 4
REMARK VINA RESULT:      -6.5     12.390     15.128
REMARK  8 active torsions:
REMARK  status: ('A' for Active; 'I' for Inactive)
REMARK    1  A    between atoms: C_5  and  N_25 
REMARK       I    between atoms: C_8  and  N_24 
REMARK    2  A    between atoms: C_13  and  N_12 
REMARK    3  A    between atoms: C_15  and  C_18 
REMARK    4  A    between atoms: C_18  and  O_19 
REMARK    5  A    between atoms: O_19  and  C_20 
REMARK    6  A    between atoms: C_20  and  C_22 
REMARK    7  A    between atoms: C_22  and  O_23 
REMARK    8  A    between atoms: N_25  and  C_26 
ROOT
HETATM    1  C   UNK N   1      29.951  23.199  -2.800  0.00  0.00     0.186 A 
HETATM    2  N   UNK N   1      30.738  22.090  -2.948  0.00  0.00    -0.346 N 
ATOM      3  HN  UNK N   1      31.410  21.705  -2.284  1.00  0.00     0.167 HD
HETATM    4  C   UNK N   1      30.423  21.620  -4.174  0.00  0.00     0.123 A 
HETATM    5  C   UNK N   1      30.943  20.564  -4.909  0.00  0.00     0.148 A 
HETATM    6  N   UNK N   1      30.445  20.351  -6.168  0.00  0.00    -0.175 N 
ATOM      7  HN  UNK N   1      30.813  19.581  -6.729  1.00  0.00     0.186 HD
HETATM    8  C   UNK N   1      29.461  21.151  -6.691  0.00  0.00     0.679 A 
HETATM    9  N   UNK N   1      28.987  22.201  -5.967  0.00  0.00    -0.174 N 
ATOM     10  HN  UNK N   1      28.272  22.821  -6.350  1.00  0.00     0.186 HD
HETATM   11  C   UNK N   1      29.487  22.399  -4.727  0.00  0.00     0.155 A 
HETATM   12  N   UNK N   1      29.182  23.389  -3.898  0.00  0.00    -0.318 N 
HETATM   13  N   UNK N   1      28.953  20.904  -7.980  0.00  0.00    -0.234 N 
HETATM   14  H   UNK N   1      28.236  21.470  -8.344  0.00  0.00     0.174 HD
HETATM   15  H   UNK N   1      29.316  20.163  -8.518  0.00  0.00     0.174 HD
ENDROOT
BRANCH  12  16
HETATM   16  C   UNK N   1      28.265  24.430  -4.296  0.00  0.00     0.115 C 
HETATM   17  C   UNK N   1      26.851  24.234  -3.809  0.00  0.00     0.040 C 
HETATM   18  C   UNK N   1      26.220  25.488  -4.354  0.00  0.00     0.034 C 
HETATM   19  C   UNK N   1      27.350  26.481  -4.191  0.00  0.00    -0.022 C 
HETATM   20  C   UNK N   1      28.518  25.860  -4.075  0.00  0.00    -0.005 C 
BRANCH  18  21
HETATM   21  C   UNK N   1      25.939  25.207  -5.839  0.00  0.00     0.187 C 
BRANCH  21  22
HETATM   22  O   UNK N   1      25.399  23.962  -5.955  0.00  0.00    -0.319 OA
BRANCH  22  23
HETATM   23  C   UNK N   1      25.777  23.158  -6.966  0.00  0.00     0.282 C 
HETATM   24  O   UNK N   1      26.802  23.381  -7.594  0.00  0.00    -0.263 OA
BRANCH  23  25
HETATM   25  C   UNK N   1      25.006  21.909  -7.193  0.00  0.00     0.275 C 
BRANCH  25  26
HETATM   26  O   UNK N   1      24.125  22.071  -8.254  0.00  0.00    -0.391 OA
HETATM   27  H   UNK N   1      23.297  22.574  -8.199  0.00  0.00     0.210 HD
ENDBRANCH  25  26
ENDBRANCH  23  25
ENDBRANCH  22  23
ENDBRANCH  21  22
ENDBRANCH  18  21
ENDBRANCH  12  16
BRANCH   5  28
HETATM   28  N   UNK N   1      31.999  19.774  -4.396  0.00  0.00    -0.369 N 
HETATM   29  H   UNK N   1      31.796  19.091  -3.715  0.00  0.00     0.161 HD
BRANCH  28  30
HETATM   30  C   UNK N   1      33.368  19.937  -4.839  0.00  0.00     0.083 A 
HETATM   31  C   UNK N   1      34.219  20.390  -3.671  0.00  0.00     0.027 A 
HETATM   32  C   UNK N   1      34.330  18.970  -4.169  0.00  0.00     0.027 A 
ENDBRANCH  28  30
ENDBRANCH   5  28
TORSDOF 8
ENDMDL
MODEL 5
REMARK VINA RESULT:      -6.3      9.342     13.816
REMARK  8 active torsions:
REMARK  status: ('A' for Active; 'I' for Inactive)
REMARK    1  A    between atoms: C_5  and  N_25 
REMARK       I    between atoms: C_8  and  N_24 
REMARK    2  A    between atoms: C_13  and  N_12 
REMARK    3  A    between atoms: C_15  and  C_18 
REMARK    4  A    between atoms: C_18  and  O_19 
REMARK    5  A    between atoms: O_19  and  C_20 
REMARK    6  A    between atoms: C_20  and  C_22 
REMARK    7  A    between atoms: C_22  and  O_23 
REMARK    8  A    between atoms: N_25  and  C_26 
ROOT
HETATM    1  C   UNK N   1      35.388   9.728  16.899  0.00  0.00     0.186 A 
HETATM    2  N   UNK N   1      35.335   9.724  18.266  0.00  0.00    -0.346 N 
ATOM      3  HN  UNK N   1      35.330   8.917  18.891  1.00  0.00     0.167 HD
HETATM    4  C   UNK N   1      35.291  11.031  18.601  0.00  0.00     0.123 A 
HETATM    5  C   UNK N   1      35.156  11.654  19.833  0.00  0.00     0.148 A 
HETATM    6  N   UNK N   1      35.096  13.023  19.858  0.00  0.00    -0.175 N 
ATOM      7  HN  UNK N   1      34.995  13.504  20.752  1.00  0.00     0.186 HD
HETATM    8  C   UNK N   1      35.170  13.761  18.704  0.00  0.00     0.679 A 
HETATM    9  N   UNK N   1      35.271  13.130  17.503  0.00  0.00    -0.174 N 
ATOM     10  HN  UNK N   1      35.303  13.663  16.632  1.00  0.00     0.186 HD
HETATM   11  C   UNK N   1      35.328  11.780  17.493  0.00  0.00     0.155 A 
HETATM   12  N   UNK N   1      35.381  10.996  16.425  0.00  0.00    -0.318 N 
HETATM   13  N   UNK N   1      35.123  15.167  18.754  0.00  0.00    -0.234 N 
HETATM   14  H   UNK N   1      35.193  15.693  17.925  0.00  0.00     0.174 HD
HETATM   15  H   UNK N   1      35.019  15.624  19.620  0.00  0.00     0.174 HD
ENDROOT
BRANCH  12  16
HETATM   16  C   UNK N   1      35.332  11.555  15.095  0.00  0.00     0.115 C 
HETATM   17  C   UNK N   1      36.636  11.483  14.340  0.00  0.00     0.040 C 
HETATM   18  C   UNK N   1      36.205  12.092  13.032  0.00  0.00     0.034 C 
HETATM   19  C   UNK N   1      34.793  11.562  12.912  0.00  0.00    -0.022 C 
HETATM   20  C   UNK N   1      34.326  11.176  14.094  0.00  0.00    -0.005 C 
BRANCH  18  21
HETATM   21  C   UNK N   1      36.208  13.613  13.253  0.00  0.00     0.187 C 
BRANCH  21  22
HETATM   22  O   UNK N   1      35.075  14.138  12.708  0.00  0.00    -0.319 OA
BRANCH  22  23
HETATM   23  C   UNK N   1      35.158  14.954  11.642  0.00  0.00     0.282 C 
HETATM   24  O   UNK N   1      36.076  15.755  11.535  0.00  0.00    -0.263 OA
BRANCH  23  25
HETATM   25  C   UNK N   1      34.201  14.747  10.525  0.00  0.00     0.275 C 
BRANCH  25  26
HETATM   26  O   UNK N   1      32.929  15.164  10.895  0.00  0.00    -0.391 OA
HETATM   27  H   UNK N   1      32.113  14.853  10.472  0.00  0.00     0.210 HD
ENDBRANCH  25  26
ENDBRANCH  23  25
ENDBRANCH  22  23
ENDBRANCH  21  22
ENDBRANCH  18  21
ENDBRANCH  12  16
BRANCH   5  28
HETATM   28  N   UNK N   1      35.020  10.894  21.019  0.00  0.00    -0.369 N 
HETATM   29  H   UNK N   1      35.763  10.881  21.665  0.00  0.00     0.161 HD
BRANCH  28  30
HETATM   30  C   UNK N   1      33.823  10.134  21.313  0.00  0.00     0.083 A 
HETATM   31  C   UNK N   1      34.017   9.382  22.613  0.00  0.00     0.027 A 
HETATM   32  C   UNK N   1      33.120  10.595  22.579  0.00  0.00     0.027 A 
ENDBRANCH  28  30
ENDBRANCH   5  28
TORSDOF 8
ENDMDL
MODEL 6
REMARK VINA RESULT:      -6.3      1.478      1.991
REMARK  8 active torsions:
REMARK  status: ('A' for Active; 'I' for Inactive)
REMARK    1  A    between atoms: C_5  and  N_25 
REMARK       I    between atoms: C_8  and  N_24 
REMARK    2  A    between atoms: C_13  and  N_12 
REMARK    3  A    between atoms: C_15  and  C_18 
REMARK    4  A    between atoms: C_18  and  O_19 
REMARK    5  A    between atoms: O_19  and  C_20 
REMARK    6  A    between atoms: C_20  and  C_22 
REMARK    7  A    between atoms: C_22  and  O_23 
REMARK    8  A    between atoms: N_25  and  C_26 
ROOT
HETATM    1  C   UNK N   1      31.023  16.379   5.046  0.00  0.00     0.186 A 
HETATM    2  N   UNK N   1      29.840  17.063   4.963  0.00  0.00    -0.346 N 
ATOM      3  HN  UNK N   1      29.248  17.193   4.142  1.00  0.00     0.167 HD
HETATM    4  C   UNK N   1      29.636  17.526   6.214  0.00  0.00     0.123 A 
HETATM    5  C   UNK N   1      28.646  18.348   6.733  0.00  0.00     0.148 A 
HETATM    6  N   UNK N   1      28.725  18.694   8.057  0.00  0.00    -0.175 N 
ATOM      7  HN  UNK N   1      28.009  19.298   8.461  1.00  0.00     0.186 HD
HETATM    8  C   UNK N   1      29.749  18.242   8.851  0.00  0.00     0.679 A 
HETATM    9  N   UNK N   1      30.728  17.464   8.316  0.00  0.00    -0.174 N 
ATOM     10  HN  UNK N   1      31.509  17.139   8.886  1.00  0.00     0.186 HD
HETATM   11  C   UNK N   1      30.636  17.132   7.009  0.00  0.00     0.155 A 
HETATM   12  N   UNK N   1      31.512  16.424   6.307  0.00  0.00    -0.318 N 
HETATM   13  N   UNK N   1      29.802  18.596  10.212  0.00  0.00    -0.234 N 
HETATM   14  H   UNK N   1      30.529  18.257  10.782  0.00  0.00     0.174 HD
HETATM   15  H   UNK N   1      29.112  19.185  10.595  0.00  0.00     0.174 HD
ENDROOT
BRANCH  12  16
HETATM   16  C   UNK N   1      32.739  15.960   6.910  0.00  0.00     0.115 C 
HETATM   17  C   UNK N   1      32.837  14.461   7.048  0.00  0.00     0.040 C 
HETATM   18  C   UNK N   1      34.215  14.352   7.646  0.00  0.00     0.034 C 
HETATM   19  C   UNK N   1      34.934  15.476   6.935  0.00  0.00    -0.022 C 
HETATM   20  C   UNK N   1      34.073  16.357   6.441  0.00  0.00    -0.005 C 
BRANCH  18  21
HETATM   21  C   UNK N   1      34.049  14.660   9.143  0.00  0.00     0.187 C 
BRANCH  21  22
HETATM   22  O   UNK N   1      35.193  14.305   9.793  0.00  0.00    -0.319 OA
BRANCH  22  23
HETATM   23  C   UNK N   1      35.993  15.255  10.312  0.00  0.00     0.282 C 
HETATM   24  O   UNK N   1      37.203  15.214  10.146  0.00  0.00    -0.263 OA
BRANCH  23  25
HETATM   25  C   UNK N   1      35.356  16.433  10.953  0.00  0.00     0.275 C 
BRANCH  25  26
HETATM   26  O   UNK N   1      35.615  17.582  10.217  0.00  0.00    -0.391 OA
HETATM   27  H   UNK N   1      35.164  18.430  10.360  0.00  0.00     0.210 HD
ENDBRANCH  25  26
ENDBRANCH  23  25
ENDBRANCH  22  23
ENDBRANCH  21  22
ENDBRANCH  18  21
ENDBRANCH  12  16
BRANCH   5  28
HETATM   28  N   UNK N   1      27.622  18.863   5.903  0.00  0.00    -0.369 N 
HETATM   29  H   UNK N   1      26.788  18.348   5.798  0.00  0.00     0.161 HD
BRANCH  28  30
HETATM   30  C   UNK N   1      27.759  20.123   5.202  0.00  0.00     0.083 A 
HETATM   31  C   UNK N   1      26.456  20.449   4.503  0.00  0.00     0.027 A 
HETATM   32  C   UNK N   1      26.846  21.210   5.746  0.00  0.00     0.027 A 
ENDBRANCH  28  30
ENDBRANCH   5  28
TORSDOF 8
ENDMDL
MODEL 7
REMARK VINA RESULT:      -6.3      2.145      2.674
REMARK  8 active torsions:
REMARK  status: ('A' for Active; 'I' for Inactive)
REMARK    1  A    between atoms: C_5  and  N_25 
REMARK       I    between atoms: C_8  and  N_24 
REMARK    2  A    between atoms: C_13  and  N_12 
REMARK    3  A    between atoms: C_15  and  C_18 
REMARK    4  A    between atoms: C_18  and  O_19 
REMARK    5  A    between atoms: O_19  and  C_20 
REMARK    6  A    between atoms: C_20  and  C_22 
REMARK    7  A    between atoms: C_22  and  O_23 
REMARK    8  A    between atoms: N_25  and  C_26 
ROOT
HETATM    1  C   UNK N   1      29.170  15.200   3.606  0.00  0.00     0.186 A 
HETATM    2  N   UNK N   1      27.813  15.180   3.788  0.00  0.00    -0.346 N 
ATOM      3  HN  UNK N   1      27.129  14.570   3.340  1.00  0.00     0.167 HD
HETATM    4  C   UNK N   1      27.587  16.153   4.697  0.00  0.00     0.123 A 
HETATM    5  C   UNK N   1      26.404  16.653   5.223  0.00  0.00     0.148 A 
HETATM    6  N   UNK N   1      26.485  17.694   6.111  0.00  0.00    -0.175 N 
ATOM      7  HN  UNK N   1      25.629  18.080   6.510  1.00  0.00     0.186 HD
HETATM    8  C   UNK N   1      27.696  18.227   6.476  0.00  0.00     0.679 A 
HETATM    9  N   UNK N   1      28.842  17.743   5.925  0.00  0.00    -0.174 N 
ATOM     10  HN  UNK N   1      29.749  18.144   6.167  1.00  0.00     0.186 HD
HETATM   11  C   UNK N   1      28.746  16.718   5.050  0.00  0.00     0.155 A 
HETATM   12  N   UNK N   1      29.742  16.149   4.383  0.00  0.00    -0.318 N 
HETATM   13  N   UNK N   1      27.757  19.285   7.403  0.00  0.00    -0.234 N 
HETATM   14  H   UNK N   1      28.628  19.653   7.674  0.00  0.00     0.174 HD
HETATM   15  H   UNK N   1      26.927  19.657   7.779  0.00  0.00     0.174 HD
ENDROOT
BRANCH  12  16
HETATM   16  C   UNK N   1      31.093  16.643   4.509  0.00  0.00     0.115 C 
HETATM   17  C   UNK N   1      32.023  15.725   5.263  0.00  0.00     0.040 C 
HETATM   18  C   UNK N   1      33.300  16.516   5.155  0.00  0.00     0.034 C 
HETATM   19  C   UNK N   1      33.164  17.105   3.769  0.00  0.00    -0.022 C 
HETATM   20  C   UNK N   1      31.898  17.099   3.369  0.00  0.00    -0.005 C 
BRANCH  18  21
HETATM   21  C   UNK N   1      33.212  17.608   6.233  0.00  0.00     0.187 C 
BRANCH  21  22
HETATM   22  O   UNK N   1      34.456  17.816   6.750  0.00  0.00    -0.319 OA
BRANCH  22  23
HETATM   23  C   UNK N   1      34.600  18.116   8.053  0.00  0.00     0.282 C 
HETATM   24  O   UNK N   1      35.060  19.194   8.401  0.00  0.00    -0.263 OA
BRANCH  23  25
HETATM   25  C   UNK N   1      34.041  17.173   9.055  0.00  0.00     0.275 C 
BRANCH  25  26
HETATM   26  O   UNK N   1      34.762  17.243  10.240  0.00  0.00    -0.391 OA
HETATM   27  H   UNK N   1      34.753  16.552  10.921  0.00  0.00     0.210 HD
ENDBRANCH  25  26
ENDBRANCH  23  25
ENDBRANCH  22  23
ENDBRANCH  21  22
ENDBRANCH  18  21
ENDBRANCH  12  16
BRANCH   5  28
HETATM   28  N   UNK N   1      25.152  16.145   4.804  0.00  0.00    -0.369 N 
HETATM   29  H   UNK N   1      25.049  15.836   3.873  0.00  0.00     0.161 HD
BRANCH  28  30
HETATM   30  C   UNK N   1      24.015  16.064   5.698  0.00  0.00     0.083 A 
HETATM   31  C   UNK N   1      22.883  16.903   5.142  0.00  0.00     0.027 A 
HETATM   32  C   UNK N   1      22.805  15.398   5.065  0.00  0.00     0.027 A 
ENDBRANCH  28  30
ENDBRANCH   5  28
TORSDOF 8
ENDMDL
MODEL 8
REMARK VINA RESULT:      -6.2      2.018      3.810
REMARK  8 active torsions:
REMARK  status: ('A' for Active; 'I' for Inactive)
REMARK    1  A    between atoms: C_5  and  N_25 
REMARK       I    between atoms: C_8  and  N_24 
REMARK    2  A    between atoms: C_13  and  N_12 
REMARK    3  A    between atoms: C_15  and  C_18 
REMARK    4  A    between atoms: C_18  and  O_19 
REMARK    5  A    between atoms: O_19  and  C_20 
REMARK    6  A    between atoms: C_20  and  C_22 
REMARK    7  A    between atoms: C_22  and  O_23 
REMARK    8  A    between atoms: N_25  and  C_26 
ROOT
HETATM    1  C   UNK N   1      28.952  17.830   8.539  0.00  0.00     0.186 A 
HETATM    2  N   UNK N   1      27.751  18.003   7.907  0.00  0.00    -0.346 N 
ATOM      3  HN  UNK N   1      26.853  18.248   8.325  1.00  0.00     0.167 HD
HETATM    4  C   UNK N   1      28.025  17.778   6.605  0.00  0.00     0.123 A 
HETATM    5  C   UNK N   1      27.198  17.735   5.492  0.00  0.00     0.148 A 
HETATM    6  N   UNK N   1      27.764  17.432   4.281  0.00  0.00    -0.175 N 
ATOM      7  HN  UNK N   1      27.176  17.393   3.448  1.00  0.00     0.186 HD
HETATM    8  C   UNK N   1      29.108  17.181   4.165  0.00  0.00     0.679 A 
HETATM    9  N   UNK N   1      29.897  17.197   5.274  0.00  0.00    -0.174 N 
ATOM     10  HN  UNK N   1      30.894  16.988   5.210  1.00  0.00     0.186 HD
HETATM   11  C   UNK N   1      29.324  17.496   6.461  0.00  0.00     0.155 A 
HETATM   12  N   UNK N   1      29.920  17.515   7.646  0.00  0.00    -0.318 N 
HETATM   13  N   UNK N   1      29.672  16.888   2.910  0.00  0.00    -0.234 N 
HETATM   14  H   UNK N   1      30.639  16.724   2.829  0.00  0.00     0.174 HD
HETATM   15  H   UNK N   1      29.097  16.846   2.111  0.00  0.00     0.174 HD
ENDROOT
BRANCH  12  16
HETATM   16  C   UNK N   1      31.310  17.148   7.781  0.00  0.00     0.115 C 
HETATM   17  C   UNK N   1      32.159  18.173   8.490  0.00  0.00     0.040 C 
HETATM   18  C   UNK N   1      33.481  17.452   8.486  0.00  0.00     0.034 C 
HETATM   19  C   UNK N   1      33.035  16.019   8.677  0.00  0.00    -0.022 C 
HETATM   20  C   UNK N   1      31.757  15.869   8.347  0.00  0.00    -0.005 C 
BRANCH  18  21
HETATM   21  C   UNK N   1      34.074  17.665   7.084  0.00  0.00     0.187 C 
BRANCH  21  22
HETATM   22  O   UNK N   1      34.720  16.528   6.703  0.00  0.00    -0.319 OA
BRANCH  22  23
HETATM   23  C   UNK N   1      34.432  15.956   5.520  0.00  0.00     0.282 C 
HETATM   24  O   UNK N   1      34.957  14.902   5.189  0.00  0.00    -0.263 OA
BRANCH  23  25
HETATM   25  C   UNK N   1      33.347  16.550   4.700  0.00  0.00     0.275 C 
BRANCH  25  26
HETATM   26  O   UNK N   1      32.279  15.669   4.598  0.00  0.00    -0.391 OA
HETATM   27  H   UNK N   1      31.562  15.609   5.250  0.00  0.00     0.210 HD
ENDBRANCH  25  26
ENDBRANCH  23  25
ENDBRANCH  22  23
ENDBRANCH  21  22
ENDBRANCH  18  21
ENDBRANCH  12  16
BRANCH   5  28
HETATM   28  N   UNK N   1      25.803  17.936   5.617  0.00  0.00    -0.369 N 
HETATM   29  H   UNK N   1      25.382  17.821   6.500  0.00  0.00     0.161 HD
BRANCH  28  30
HETATM   30  C   UNK N   1      24.973  18.305   4.488  0.00  0.00     0.083 A 
HETATM   31  C   UNK N   1      24.102  17.127   4.105  0.00  0.00     0.027 A 
HETATM   32  C   UNK N   1      23.489  18.308   4.816  0.00  0.00     0.027 A 
ENDBRANCH  28  30
ENDBRANCH   5  28
TORSDOF 8
ENDMDL
MODEL 9
REMARK VINA RESULT:      -6.1      7.631     11.159
REMARK  8 active torsions:
REMARK  status: ('A' for Active; 'I' for Inactive)
REMARK    1  A    between atoms: C_5  and  N_25 
REMARK       I    between atoms: C_8  and  N_24 
REMARK    2  A    between atoms: C_13  and  N_12 
REMARK    3  A    between atoms: C_15  and  C_18 
REMARK    4  A    between atoms: C_18  and  O_19 
REMARK    5  A    between atoms: O_19  and  C_20 
REMARK    6  A    between atoms: C_20  and  C_22 
REMARK    7  A    between atoms: C_22  and  O_23 
REMARK    8  A    between atoms: N_25  and  C_26 
ROOT
HETATM    1  C   UNK N   1      34.499  10.460  12.960  0.00  0.00     0.186 A 
HETATM    2  N   UNK N   1      34.353  11.411  11.987  0.00  0.00    -0.346 N 
ATOM      3  HN  UNK N   1      33.879  11.322  11.088  1.00  0.00     0.167 HD
HETATM    4  C   UNK N   1      34.979  12.497  12.488  0.00  0.00     0.123 A 
HETATM    5  C   UNK N   1      35.228  13.745  11.934  0.00  0.00     0.148 A 
HETATM    6  N   UNK N   1      35.941  14.648  12.679  0.00  0.00    -0.175 N 
ATOM      7  HN  UNK N   1      36.138  15.571  12.292  1.00  0.00     0.186 HD
HETATM    8  C   UNK N   1      36.396  14.336  13.935  0.00  0.00     0.679 A 
HETATM    9  N   UNK N   1      36.169  13.096  14.448  0.00  0.00    -0.174 N 
ATOM     10  HN  UNK N   1      36.520  12.839  15.371  1.00  0.00     0.186 HD
HETATM   11  C   UNK N   1      35.465  12.216  13.702  0.00  0.00     0.155 A 
HETATM   12  N   UNK N   1      35.186  10.957  14.015  0.00  0.00    -0.318 N 
HETATM   13  N   UNK N   1      37.113  15.284  14.688  0.00  0.00    -0.234 N 
HETATM   14  H   UNK N   1      37.422  15.061  15.595  0.00  0.00     0.174 HD
HETATM   15  H   UNK N   1      37.304  16.171  14.307  0.00  0.00     0.174 HD
ENDROOT
BRANCH  12  16
HETATM   16  C   UNK N   1      35.685  10.371  15.236  0.00  0.00     0.115 C 
HETATM   17  C   UNK N   1      34.615  10.015  16.238  0.00  0.00     0.040 C 
HETATM   18  C   UNK N   1      35.471   9.409  17.318  0.00  0.00     0.034 C 
HETATM   19  C   UNK N   1      36.533   8.714  16.496  0.00  0.00    -0.022 C 
HETATM   20  C   UNK N   1      36.593   9.218  15.268  0.00  0.00    -0.005 C 
BRANCH  18  21
HETATM   21  C   UNK N   1      36.063  10.593  18.100  0.00  0.00     0.187 C 
BRANCH  21  22
HETATM   22  O   UNK N   1      35.042  11.339  18.606  0.00  0.00    -0.319 OA
BRANCH  22  23
HETATM   23  C   UNK N   1      35.213  12.657  18.818  0.00  0.00     0.282 C 
HETATM   24  O   UNK N   1      35.352  13.096  19.950  0.00  0.00    -0.263 OA
BRANCH  23  25
HETATM   25  C   UNK N   1      35.389  13.539  17.637  0.00  0.00     0.275 C 
BRANCH  25  26
HETATM   26  O   UNK N   1      34.306  13.418  16.777  0.00  0.00    -0.391 OA
HETATM   27  H   UNK N   1      34.387  13.283  15.819  0.00  0.00     0.210 HD
ENDBRANCH  25  26
ENDBRANCH  23  25
ENDBRANCH  22  23
ENDBRANCH  21  22
ENDBRANCH  18  21
ENDBRANCH  12  16
BRANCH   5  28
HETATM   28  N   UNK N   1      34.812  14.049  10.617  0.00  0.00    -0.369 N 
HETATM   29  H   UNK N   1      35.116  13.475   9.876  0.00  0.00     0.161 HD
BRANCH  28  30
HETATM   30  C   UNK N   1      33.953  15.177  10.322  0.00  0.00     0.083 A 
HETATM   31  C   UNK N   1      34.793  16.316   9.782  0.00  0.00     0.027 A 
HETATM   32  C   UNK N   1      33.915  15.526   8.843  0.00  0.00     0.027 A 
ENDBRANCH  28  30
ENDBRANCH   5  28
TORSDOF 8
ENDMDL
