MODEL 1
REMARK VINA RESULT:      -7.1      0.000      0.000
REMARK  9 active torsions:
REMARK  status: ('A' for Active; 'I' for Inactive)
REMARK    1  A    between atoms: C_2  and  N_4 
REMARK    2  A    between atoms: N_4  and  C_5 
REMARK    3  A    between atoms: C_5  and  C_6 
REMARK    4  A    between atoms: C_6  and  N_7 
REMARK    5  A    between atoms: N_7  and  C_8 
REMARK    6  A    between atoms: N_7  and  C_27 
REMARK    7  A    between atoms: C_16  and  C_20 
REMARK    8  A    between atoms: C_29  and  O_35 
REMARK    9  A    between atoms: C_31  and  O_33 
ROOT
HETATM    1  C   UNK N   1      31.863  16.206   7.294  0.00  0.00     0.037 A 
HETATM    2  C   UNK N   1      32.458  17.469   7.062  0.00  0.00     0.032 A 
HETATM    3  C   UNK N   1      33.529  17.917   7.870  0.00  0.00     0.034 A 
HETATM    4  C   UNK N   1      33.994  17.106   8.921  0.00  0.00     0.059 A 
HETATM    5  C   UNK N   1      33.377  15.876   9.154  0.00  0.00     0.061 A 
HETATM    6  C   UNK N   1      32.347  15.450   8.357  0.00  0.00     0.061 A 
HETATM    7  N   UNK N   1      33.794  15.083  10.159  0.00  0.00    -0.352 N 
ATOM      8  HN  UNK N   1      33.325  14.192  10.319  1.00  0.00     0.166 HD
HETATM    9  C   UNK N   1      34.820  15.443  10.962  0.00  0.00     0.061 A 
HETATM   10  C   UNK N   1      35.464  16.674  10.736  0.00  0.00     0.119 A 
HETATM   11  N   UNK N   1      35.033  17.485   9.720  0.00  0.00    -0.362 N 
ATOM     12  HN  UNK N   1      35.491  18.381   9.560  1.00  0.00     0.165 HD
ENDROOT
BRANCH   1  13
HETATM   13  N   UNK N   1      30.788  15.700   6.470  0.00  0.00    -0.345 N 
BRANCH  13  14
HETATM   14  C   UNK N   1      30.930  14.369   5.907  0.00  0.00     0.148 C 
BRANCH  14  15
HETATM   15  C   UNK N   1      32.143  14.235   5.001  0.00  0.00     0.134 C 
BRANCH  15  16
HETATM   16  N   UNK N   1      31.792  14.779   3.696  0.00  0.00    -0.416 N 
HETATM   17  H   UNK N   1      30.964  14.525   3.156  0.00  0.00     0.153 HD
BRANCH  16  18
HETATM   18  C   UNK N   1      32.807  15.742   3.280  0.00  0.00     0.068 C 
HETATM   19  C   UNK N   1      33.979  15.659   4.236  0.00  0.00     0.031 C 
HETATM   20  C   UNK N   1      32.264  17.162   3.324  0.00  0.00     0.031 C 
ENDBRANCH  16  18
ENDBRANCH  15  16
ENDBRANCH  14  15
ENDBRANCH  13  14
BRANCH  13  21
HETATM   21  C   UNK N   1      29.624  16.508   6.128  0.00  0.00     0.040 A 
HETATM   22  C   UNK N   1      29.242  17.609   6.916  0.00  0.00     0.066 A 
HETATM   23  C   UNK N   1      28.134  18.400   6.569  0.00  0.00     0.073 A 
HETATM   24  C   UNK N   1      27.383  18.081   5.424  0.00  0.00     0.073 A 
HETATM   25  C   UNK N   1      27.735  16.994   4.633  0.00  0.00     0.073 A 
HETATM   26  C   UNK N   1      28.850  16.233   4.988  0.00  0.00     0.066 A 
BRANCH  23  27
HETATM   27  O   UNK N   1      27.813  19.461   7.345  0.00  0.00    -0.356 OA
HETATM   28  C   UNK N   1      27.197  20.591   6.852  0.00  0.00     0.210 C 
ENDBRANCH  23  27
BRANCH  25  29
HETATM   29  O   UNK N   1      26.994  16.690   3.540  0.00  0.00    -0.356 OA
HETATM   30  C   UNK N   1      25.761  17.254   3.287  0.00  0.00     0.210 C 
ENDBRANCH  25  29
ENDBRANCH  13  21
ENDBRANCH   1  13
BRANCH   9  31
HETATM   31  C   UNK N   1      35.217  14.508  12.023  0.00  0.00     0.026 A 
HETATM   32  C   UNK N   1      34.855  13.171  12.069  0.00  0.00     0.122 A 
HETATM   33  N   UNK N   1      35.411  12.629  13.166  0.00  0.00    -0.310 N 
HETATM   34  N   UNK N   1      36.095  13.569  13.791  0.00  0.00    -0.307 N 
ATOM     35  HN  UNK N   1      35.319  11.658  13.465  1.00  0.00     0.186 HD
HETATM   36  C   UNK N   1      36.006  14.739  13.130  0.00  0.00     0.124 A 
HETATM   37  C   UNK N   1      36.842  13.342  15.013  0.00  0.00     0.177 C 
ENDBRANCH   9  31
TORSDOF 9
ENDMDL
MODEL 2
REMARK VINA RESULT:      -7.0      0.466      2.068
REMARK  9 active torsions:
REMARK  status: ('A' for Active; 'I' for Inactive)
REMARK    1  A    between atoms: C_2  and  N_4 
REMARK    2  A    between atoms: N_4  and  C_5 
REMARK    3  A    between atoms: C_5  and  C_6 
REMARK    4  A    between atoms: C_6  and  N_7 
REMARK    5  A    between atoms: N_7  and  C_8 
REMARK    6  A    between atoms: N_7  and  C_27 
REMARK    7  A    between atoms: C_16  and  C_20 
REMARK    8  A    between atoms: C_29  and  O_35 
REMARK    9  A    between atoms: C_31  and  O_33 
ROOT
HETATM    1  C   UNK N   1      31.901  16.176   7.321  0.00  0.00     0.037 A 
HETATM    2  C   UNK N   1      32.485  17.449   7.118  0.00  0.00     0.032 A 
HETATM    3  C   UNK N   1      33.548  17.890   7.940  0.00  0.00     0.034 A 
HETATM    4  C   UNK N   1      34.017  17.062   8.977  0.00  0.00     0.059 A 
HETATM    5  C   UNK N   1      33.410  15.821   9.181  0.00  0.00     0.061 A 
HETATM    6  C   UNK N   1      32.387  15.403   8.370  0.00  0.00     0.061 A 
HETATM    7  N   UNK N   1      33.831  15.012  10.171  0.00  0.00    -0.352 N 
ATOM      8  HN  UNK N   1      33.370  14.113  10.310  1.00  0.00     0.166 HD
HETATM    9  C   UNK N   1      34.850  15.363  10.985  0.00  0.00     0.061 A 
HETATM   10  C   UNK N   1      35.483  16.605  10.788  0.00  0.00     0.119 A 
HETATM   11  N   UNK N   1      35.048  17.433   9.788  0.00  0.00    -0.362 N 
ATOM     12  HN  UNK N   1      35.499  18.337   9.649  1.00  0.00     0.165 HD
ENDROOT
BRANCH   1  13
HETATM   13  N   UNK N   1      30.834  15.677   6.483  0.00  0.00    -0.345 N 
BRANCH  13  14
HETATM   14  C   UNK N   1      30.981  14.350   5.911  0.00  0.00     0.148 C 
BRANCH  14  15
HETATM   15  C   UNK N   1      32.193  14.228   5.002  0.00  0.00     0.134 C 
BRANCH  15  16
HETATM   16  N   UNK N   1      31.852  14.816   3.714  0.00  0.00    -0.416 N 
HETATM   17  H   UNK N   1      31.022  14.589   3.165  0.00  0.00     0.153 HD
BRANCH  16  18
HETATM   18  C   UNK N   1      32.879  15.779   3.330  0.00  0.00     0.068 C 
HETATM   19  C   UNK N   1      34.037  15.670   4.300  0.00  0.00     0.031 C 
HETATM   20  C   UNK N   1      32.346  17.202   3.391  0.00  0.00     0.031 C 
ENDBRANCH  16  18
ENDBRANCH  15  16
ENDBRANCH  14  15
ENDBRANCH  13  14
BRANCH  13  21
HETATM   21  C   UNK N   1      29.674  16.489   6.135  0.00  0.00     0.040 A 
HETATM   22  C   UNK N   1      28.873  16.176   5.021  0.00  0.00     0.066 A 
HETATM   23  C   UNK N   1      27.741  16.946   4.703  0.00  0.00     0.073 A 
HETATM   24  C   UNK N   1      27.409  18.057   5.500  0.00  0.00     0.073 A 
HETATM   25  C   UNK N   1      28.189  18.390   6.601  0.00  0.00     0.073 A 
HETATM   26  C   UNK N   1      29.298  17.600   6.907  0.00  0.00     0.066 A 
BRANCH  23  27
HETATM   27  O   UNK N   1      26.988  16.600   3.634  0.00  0.00    -0.356 OA
HETATM   28  C   UNK N   1      25.822  17.252   3.296  0.00  0.00     0.210 C 
ENDBRANCH  23  27
BRANCH  25  29
HETATM   29  O   UNK N   1      27.865  19.471   7.351  0.00  0.00    -0.356 OA
HETATM   30  C   UNK N   1      27.123  20.527   6.867  0.00  0.00     0.210 C 
ENDBRANCH  25  29
ENDBRANCH  13  21
ENDBRANCH   1  13
BRANCH   9  31
HETATM   31  C   UNK N   1      35.251  14.411  12.029  0.00  0.00     0.026 A 
HETATM   32  C   UNK N   1      36.080  14.718  13.096  0.00  0.00     0.122 A 
HETATM   33  N   UNK N   1      36.213  13.612  13.849  0.00  0.00    -0.310 N 
HETATM   34  N   UNK N   1      35.504  12.646  13.294  0.00  0.00    -0.307 N 
ATOM     35  HN  UNK N   1      36.766  13.533  14.703  1.00  0.00     0.186 HD
HETATM   36  C   UNK N   1      34.897  13.087  12.175  0.00  0.00     0.124 A 
HETATM   37  C   UNK N   1      35.399  11.308  13.844  0.00  0.00     0.177 C 
ENDBRANCH   9  31
TORSDOF 9
ENDMDL
MODEL 3
REMARK VINA RESULT:      -7.0      5.476      8.566
REMARK  9 active torsions:
REMARK  status: ('A' for Active; 'I' for Inactive)
REMARK    1  A    between atoms: C_2  and  N_4 
REMARK    2  A    between atoms: N_4  and  C_5 
REMARK    3  A    between atoms: C_5  and  C_6 
REMARK    4  A    between atoms: C_6  and  N_7 
REMARK    5  A    between atoms: N_7  and  C_8 
REMARK    6  A    between atoms: N_7  and  C_27 
REMARK    7  A    between atoms: C_16  and  C_20 
REMARK    8  A    between atoms: C_29  and  O_35 
REMARK    9  A    between atoms: C_31  and  O_33 
ROOT
HETATM    1  C   UNK N   1      26.802  15.126   5.827  0.00  0.00     0.037 A 
HETATM    2  C   UNK N   1      26.635  14.232   4.742  0.00  0.00     0.032 A 
HETATM    3  C   UNK N   1      25.827  13.080   4.880  0.00  0.00     0.034 A 
HETATM    4  C   UNK N   1      25.198  12.813   6.109  0.00  0.00     0.059 A 
HETATM    5  C   UNK N   1      25.397  13.689   7.178  0.00  0.00     0.061 A 
HETATM    6  C   UNK N   1      26.174  14.808   7.027  0.00  0.00     0.061 A 
HETATM    7  N   UNK N   1      24.816  13.454   8.369  0.00  0.00    -0.352 N 
ATOM      8  HN  UNK N   1      24.980  14.101   9.140  1.00  0.00     0.166 HD
HETATM    9  C   UNK N   1      24.021  12.379   8.567  0.00  0.00     0.061 A 
HETATM   10  C   UNK N   1      23.799  11.490   7.499  0.00  0.00     0.119 A 
HETATM   11  N   UNK N   1      24.398  11.723   6.290  0.00  0.00    -0.362 N 
ATOM     12  HN  UNK N   1      24.246  11.076   5.517  1.00  0.00     0.165 HD
ENDROOT
BRANCH   1  13
HETATM   13  N   UNK N   1      27.594  16.331   5.716  0.00  0.00    -0.345 N 
BRANCH  13  14
HETATM   14  C   UNK N   1      27.048  17.436   4.948  0.00  0.00     0.148 C 
BRANCH  14  15
HETATM   15  C   UNK N   1      27.963  17.884   3.821  0.00  0.00     0.134 C 
BRANCH  15  16
HETATM   16  N   UNK N   1      28.087  19.334   3.890  0.00  0.00    -0.416 N 
HETATM   17  H   UNK N   1      28.925  19.865   3.649  0.00  0.00     0.153 HD
BRANCH  16  18
HETATM   18  C   UNK N   1      26.830  19.910   4.355  0.00  0.00     0.068 C 
HETATM   19  C   UNK N   1      26.111  20.530   3.176  0.00  0.00     0.031 C 
HETATM   20  C   UNK N   1      27.076  21.003   5.383  0.00  0.00     0.031 C 
ENDBRANCH  16  18
ENDBRANCH  15  16
ENDBRANCH  14  15
ENDBRANCH  13  14
BRANCH  13  21
HETATM   21  C   UNK N   1      28.936  16.433   6.274  0.00  0.00     0.040 A 
HETATM   22  C   UNK N   1      29.233  17.352   7.297  0.00  0.00     0.066 A 
HETATM   23  C   UNK N   1      30.523  17.430   7.850  0.00  0.00     0.073 A 
HETATM   24  C   UNK N   1      31.540  16.588   7.365  0.00  0.00     0.073 A 
HETATM   25  C   UNK N   1      31.273  15.677   6.349  0.00  0.00     0.073 A 
HETATM   26  C   UNK N   1      29.981  15.605   5.828  0.00  0.00     0.066 A 
BRANCH  23  27
HETATM   27  O   UNK N   1      30.761  18.315   8.845  0.00  0.00    -0.356 OA
HETATM   28  C   UNK N   1      29.779  18.765   9.699  0.00  0.00     0.210 C 
ENDBRANCH  23  27
BRANCH  25  29
HETATM   29  O   UNK N   1      32.267  14.883   5.883  0.00  0.00    -0.356 OA
HETATM   30  C   UNK N   1      32.485  14.659   4.540  0.00  0.00     0.210 C 
ENDBRANCH  25  29
ENDBRANCH  13  21
ENDBRANCH   1  13
BRANCH   9  31
HETATM   31  C   UNK N   1      23.417  12.211   9.895  0.00  0.00     0.026 A 
HETATM   32  C   UNK N   1      22.068  11.993  10.122  0.00  0.00     0.122 A 
HETATM   33  N   UNK N   1      21.885  11.872  11.449  0.00  0.00    -0.310 N 
HETATM   34  N   UNK N   1      23.058  12.003  12.041  0.00  0.00    -0.307 N 
ATOM     35  HN  UNK N   1      20.994  11.707  11.917  1.00  0.00     0.186 HD
HETATM   36  C   UNK N   1      24.028  12.214  11.131  0.00  0.00     0.124 A 
HETATM   37  C   UNK N   1      23.248  11.915  13.477  0.00  0.00     0.177 C 
ENDBRANCH   9  31
TORSDOF 9
ENDMDL
MODEL 4
REMARK VINA RESULT:      -6.9      5.504      9.751
REMARK  9 active torsions:
REMARK  status: ('A' for Active; 'I' for Inactive)
REMARK    1  A    between atoms: C_2  and  N_4 
REMARK    2  A    between atoms: N_4  and  C_5 
REMARK    3  A    between atoms: C_5  and  C_6 
REMARK    4  A    between atoms: C_6  and  N_7 
REMARK    5  A    between atoms: N_7  and  C_8 
REMARK    6  A    between atoms: N_7  and  C_27 
REMARK    7  A    between atoms: C_16  and  C_20 
REMARK    8  A    between atoms: C_29  and  O_35 
REMARK    9  A    between atoms: C_31  and  O_33 
ROOT
HETATM    1  C   UNK N   1      23.378  18.039   4.309  0.00  0.00     0.037 A 
HETATM    2  C   UNK N   1      23.521  19.231   3.560  0.00  0.00     0.032 A 
HETATM    3  C   UNK N   1      24.753  19.926   3.547  0.00  0.00     0.034 A 
HETATM    4  C   UNK N   1      25.837  19.435   4.297  0.00  0.00     0.059 A 
HETATM    5  C   UNK N   1      25.670  18.273   5.053  0.00  0.00     0.061 A 
HETATM    6  C   UNK N   1      24.473  17.605   5.048  0.00  0.00     0.061 A 
HETATM    7  N   UNK N   1      26.687  17.786   5.788  0.00  0.00    -0.352 N 
ATOM      8  HN  UNK N   1      26.542  16.941   6.340  1.00  0.00     0.166 HD
HETATM    9  C   UNK N   1      27.894  18.392   5.812  0.00  0.00     0.061 A 
HETATM   10  C   UNK N   1      28.087  19.558   5.047  0.00  0.00     0.119 A 
HETATM   11  N   UNK N   1      27.049  20.060   4.307  0.00  0.00    -0.362 N 
ATOM     12  HN  UNK N   1      27.184  20.909   3.760  1.00  0.00     0.165 HD
ENDROOT
BRANCH   1  13
HETATM   13  N   UNK N   1      22.145  17.283   4.322  0.00  0.00    -0.345 N 
BRANCH  13  14
HETATM   14  C   UNK N   1      21.539  16.946   3.046  0.00  0.00     0.148 C 
BRANCH  14  15
HETATM   15  C   UNK N   1      20.188  17.610   2.837  0.00  0.00     0.134 C 
BRANCH  15  16
HETATM   16  N   UNK N   1      20.236  18.344   1.580  0.00  0.00    -0.416 N 
HETATM   17  H   UNK N   1      20.396  17.928   0.661  0.00  0.00     0.153 HD
BRANCH  16  18
HETATM   18  C   UNK N   1      20.021  19.765   1.836  0.00  0.00     0.068 C 
HETATM   19  C   UNK N   1      21.056  20.560   1.068  0.00  0.00     0.031 C 
HETATM   20  C   UNK N   1      20.182  20.085   3.313  0.00  0.00     0.031 C 
ENDBRANCH  16  18
ENDBRANCH  15  16
ENDBRANCH  14  15
ENDBRANCH  13  14
BRANCH  13  21
HETATM   21  C   UNK N   1      21.462  16.930   5.561  0.00  0.00     0.040 A 
HETATM   22  C   UNK N   1      21.140  15.594   5.861  0.00  0.00     0.066 A 
HETATM   23  C   UNK N   1      20.504  15.254   7.067  0.00  0.00     0.073 A 
HETATM   24  C   UNK N   1      20.171  16.265   7.986  0.00  0.00     0.073 A 
HETATM   25  C   UNK N   1      20.473  17.593   7.710  0.00  0.00     0.073 A 
HETATM   26  C   UNK N   1      21.119  17.904   6.513  0.00  0.00     0.066 A 
BRANCH  23  27
HETATM   27  O   UNK N   1      20.228  13.955   7.323  0.00  0.00    -0.356 OA
HETATM   28  C   UNK N   1      21.206  13.005   7.525  0.00  0.00     0.210 C 
ENDBRANCH  23  27
BRANCH  25  29
HETATM   29  O   UNK N   1      20.133  18.557   8.599  0.00  0.00    -0.356 OA
HETATM   30  C   UNK N   1      19.187  18.372   9.585  0.00  0.00     0.210 C 
ENDBRANCH  25  29
ENDBRANCH  13  21
ENDBRANCH   1  13
BRANCH   9  31
HETATM   31  C   UNK N   1      28.949  17.781   6.630  0.00  0.00     0.026 A 
HETATM   32  C   UNK N   1      29.045  17.902   8.007  0.00  0.00     0.122 A 
HETATM   33  N   UNK N   1      30.119  17.201   8.411  0.00  0.00    -0.310 N 
HETATM   34  N   UNK N   1      30.682  16.657   7.348  0.00  0.00    -0.307 N 
ATOM     35  HN  UNK N   1      30.443  17.106   9.374  1.00  0.00     0.186 HD
HETATM   36  C   UNK N   1      30.002  16.985   6.232  0.00  0.00     0.124 A 
HETATM   37  C   UNK N   1      31.862  15.816   7.405  0.00  0.00     0.177 C 
ENDBRANCH   9  31
TORSDOF 9
ENDMDL
MODEL 5
REMARK VINA RESULT:      -6.9      1.718      3.894
REMARK  9 active torsions:
REMARK  status: ('A' for Active; 'I' for Inactive)
REMARK    1  A    between atoms: C_2  and  N_4 
REMARK    2  A    between atoms: N_4  and  C_5 
REMARK    3  A    between atoms: C_5  and  C_6 
REMARK    4  A    between atoms: C_6  and  N_7 
REMARK    5  A    between atoms: N_7  and  C_8 
REMARK    6  A    between atoms: N_7  and  C_27 
REMARK    7  A    between atoms: C_16  and  C_20 
REMARK    8  A    between atoms: C_29  and  O_35 
REMARK    9  A    between atoms: C_31  and  O_33 
ROOT
HETATM    1  C   UNK N   1      31.712  17.091   7.777  0.00  0.00     0.037 A 
HETATM    2  C   UNK N   1      32.601  18.189   7.688  0.00  0.00     0.032 A 
HETATM    3  C   UNK N   1      33.813  18.191   8.417  0.00  0.00     0.034 A 
HETATM    4  C   UNK N   1      34.127  17.101   9.249  0.00  0.00     0.059 A 
HETATM    5  C   UNK N   1      33.225  16.039   9.348  0.00  0.00     0.061 A 
HETATM    6  C   UNK N   1      32.059  16.046   8.627  0.00  0.00     0.061 A 
HETATM    7  N   UNK N   1      33.495  14.988  10.143  0.00  0.00    -0.352 N 
ATOM      8  HN  UNK N   1      32.820  14.226  10.208  1.00  0.00     0.166 HD
HETATM    9  C   UNK N   1      34.639  14.918  10.858  0.00  0.00     0.061 A 
HETATM   10  C   UNK N   1      35.567  15.973  10.764  0.00  0.00     0.119 A 
HETATM   11  N   UNK N   1      35.288  17.048   9.962  0.00  0.00    -0.362 N 
ATOM     12  HN  UNK N   1      35.955  17.817   9.899  1.00  0.00     0.165 HD
ENDROOT
BRANCH   1  13
HETATM   13  N   UNK N   1      30.479  17.038   7.023  0.00  0.00    -0.345 N 
BRANCH  13  14
HETATM   14  C   UNK N   1      29.229  17.156   7.754  0.00  0.00     0.148 C 
BRANCH  14  15
HETATM   15  C   UNK N   1      28.824  18.599   8.005  0.00  0.00     0.134 C 
BRANCH  15  16
HETATM   16  N   UNK N   1      27.609  18.865   7.246  0.00  0.00    -0.416 N 
HETATM   17  H   UNK N   1      26.783  18.267   7.230  0.00  0.00     0.153 HD
BRANCH  16  18
HETATM   18  C   UNK N   1      27.757  20.119   6.513  0.00  0.00     0.068 C 
HETATM   19  C   UNK N   1      26.583  21.018   6.844  0.00  0.00     0.031 C 
HETATM   20  C   UNK N   1      27.756  19.878   5.012  0.00  0.00     0.031 C 
ENDBRANCH  16  18
ENDBRANCH  15  16
ENDBRANCH  14  15
ENDBRANCH  13  14
BRANCH  13  21
HETATM   21  C   UNK N   1      30.455  16.789   5.587  0.00  0.00     0.040 A 
HETATM   22  C   UNK N   1      31.644  16.720   4.839  0.00  0.00     0.066 A 
HETATM   23  C   UNK N   1      31.619  16.455   3.459  0.00  0.00     0.073 A 
HETATM   24  C   UNK N   1      30.385  16.270   2.809  0.00  0.00     0.073 A 
HETATM   25  C   UNK N   1      29.196  16.340   3.526  0.00  0.00     0.073 A 
HETATM   26  C   UNK N   1      29.248  16.587   4.898  0.00  0.00     0.066 A 
BRANCH  23  27
HETATM   27  O   UNK N   1      32.787  16.380   2.780  0.00  0.00    -0.356 OA
HETATM   28  C   UNK N   1      33.573  15.249   2.765  0.00  0.00     0.210 C 
ENDBRANCH  23  27
BRANCH  25  29
HETATM   29  O   UNK N   1      28.015  16.173   2.883  0.00  0.00    -0.356 OA
HETATM   30  C   UNK N   1      26.793  16.282   3.512  0.00  0.00     0.210 C 
ENDBRANCH  25  29
ENDBRANCH  13  21
ENDBRANCH   1  13
BRANCH   9  31
HETATM   31  C   UNK N   1      34.856  13.726  11.687  0.00  0.00     0.026 A 
HETATM   32  C   UNK N   1      34.790  12.422  11.221  0.00  0.00     0.122 A 
HETATM   33  N   UNK N   1      35.058  11.600  12.250  0.00  0.00    -0.310 N 
HETATM   34  N   UNK N   1      35.285  12.338  13.321  0.00  0.00    -0.307 N 
ATOM     35  HN  UNK N   1      35.081  10.581  12.210  1.00  0.00     0.186 HD
HETATM   36  C   UNK N   1      35.172  13.647  13.026  0.00  0.00     0.124 A 
HETATM   37  C   UNK N   1      35.622  11.788  14.620  0.00  0.00     0.177 C 
ENDBRANCH   9  31
TORSDOF 9
ENDMDL
MODEL 6
REMARK VINA RESULT:      -6.8      5.792     10.094
REMARK  9 active torsions:
REMARK  status: ('A' for Active; 'I' for Inactive)
REMARK    1  A    between atoms: C_2  and  N_4 
REMARK    2  A    between atoms: N_4  and  C_5 
REMARK    3  A    between atoms: C_5  and  C_6 
REMARK    4  A    between atoms: C_6  and  N_7 
REMARK    5  A    between atoms: N_7  and  C_8 
REMARK    6  A    between atoms: N_7  and  C_27 
REMARK    7  A    between atoms: C_16  and  C_20 
REMARK    8  A    between atoms: C_29  and  O_35 
REMARK    9  A    between atoms: C_31  and  O_33 
ROOT
HETATM    1  C   UNK N   1      22.687  18.506   4.143  0.00  0.00     0.037 A 
HETATM    2  C   UNK N   1      22.807  19.631   3.293  0.00  0.00     0.032 A 
HETATM    3  C   UNK N   1      24.044  20.304   3.165  0.00  0.00     0.034 A 
HETATM    4  C   UNK N   1      25.158  19.860   3.901  0.00  0.00     0.059 A 
HETATM    5  C   UNK N   1      25.014  18.766   4.757  0.00  0.00     0.061 A 
HETATM    6  C   UNK N   1      23.811  18.117   4.863  0.00  0.00     0.061 A 
HETATM    7  N   UNK N   1      26.060  18.325   5.481  0.00  0.00    -0.352 N 
ATOM      8  HN  UNK N   1      25.933  17.530   6.107  1.00  0.00     0.166 HD
HETATM    9  C   UNK N   1      27.273  18.912   5.398  0.00  0.00     0.061 A 
HETATM   10  C   UNK N   1      27.443  20.009   4.532  0.00  0.00     0.119 A 
HETATM   11  N   UNK N   1      26.376  20.465   3.803  0.00  0.00    -0.362 N 
ATOM     12  HN  UNK N   1      26.494  21.265   3.182  1.00  0.00     0.165 HD
ENDROOT
BRANCH   1  13
HETATM   13  N   UNK N   1      21.447  17.773   4.276  0.00  0.00    -0.345 N 
BRANCH  13  14
HETATM   14  C   UNK N   1      20.516  17.802   3.162  0.00  0.00     0.148 C 
BRANCH  14  15
HETATM   15  C   UNK N   1      20.805  16.734   2.120  0.00  0.00     0.134 C 
BRANCH  15  16
HETATM   16  N   UNK N   1      19.541  16.109   1.752  0.00  0.00    -0.416 N 
HETATM   17  H   UNK N   1      18.644  16.591   1.687  0.00  0.00     0.153 HD
BRANCH  16  18
HETATM   18  C   UNK N   1      19.756  14.689   1.491  0.00  0.00     0.068 C 
HETATM   19  C   UNK N   1      21.156  14.501   0.944  0.00  0.00     0.031 C 
HETATM   20  C   UNK N   1      18.773  14.168   0.456  0.00  0.00     0.031 C 
ENDBRANCH  16  18
ENDBRANCH  15  16
ENDBRANCH  14  15
ENDBRANCH  13  14
BRANCH  13  21
HETATM   21  C   UNK N   1      21.078  17.087   5.508  0.00  0.00     0.040 A 
HETATM   22  C   UNK N   1      20.813  17.802   6.690  0.00  0.00     0.066 A 
HETATM   23  C   UNK N   1      20.433  17.140   7.869  0.00  0.00     0.073 A 
HETATM   24  C   UNK N   1      20.329  15.737   7.876  0.00  0.00     0.073 A 
HETATM   25  C   UNK N   1      20.593  15.007   6.723  0.00  0.00     0.073 A 
HETATM   26  C   UNK N   1      20.951  15.688   5.560  0.00  0.00     0.066 A 
BRANCH  23  27
HETATM   27  O   UNK N   1      20.169  17.867   8.979  0.00  0.00    -0.356 OA
HETATM   28  C   UNK N   1      18.901  18.014   9.496  0.00  0.00     0.210 C 
ENDBRANCH  23  27
BRANCH  25  29
HETATM   29  O   UNK N   1      20.502  13.655   6.749  0.00  0.00    -0.356 OA
HETATM   30  C   UNK N   1      21.361  12.857   7.474  0.00  0.00     0.210 C 
ENDBRANCH  25  29
ENDBRANCH  13  21
ENDBRANCH   1  13
BRANCH   9  31
HETATM   31  C   UNK N   1      28.360  18.354   6.213  0.00  0.00     0.026 A 
HETATM   32  C   UNK N   1      28.491  18.539   7.580  0.00  0.00     0.122 A 
HETATM   33  N   UNK N   1      29.587  17.872   7.985  0.00  0.00    -0.310 N 
HETATM   34  N   UNK N   1      30.129  17.289   6.932  0.00  0.00    -0.307 N 
ATOM     35  HN  UNK N   1      29.938  17.826   8.941  1.00  0.00     0.186 HD
HETATM   36  C   UNK N   1      29.413  17.555   5.822  0.00  0.00     0.124 A 
HETATM   37  C   UNK N   1      31.322  16.467   6.994  0.00  0.00     0.177 C 
ENDBRANCH   9  31
TORSDOF 9
ENDMDL
MODEL 7
REMARK VINA RESULT:      -6.8      2.504      4.252
REMARK  9 active torsions:
REMARK  status: ('A' for Active; 'I' for Inactive)
REMARK    1  A    between atoms: C_2  and  N_4 
REMARK    2  A    between atoms: N_4  and  C_5 
REMARK    3  A    between atoms: C_5  and  C_6 
REMARK    4  A    between atoms: C_6  and  N_7 
REMARK    5  A    between atoms: N_7  and  C_8 
REMARK    6  A    between atoms: N_7  and  C_27 
REMARK    7  A    between atoms: C_16  and  C_20 
REMARK    8  A    between atoms: C_29  and  O_35 
REMARK    9  A    between atoms: C_31  and  O_33 
ROOT
HETATM    1  C   UNK N   1      30.075  17.267   6.749  0.00  0.00     0.037 A 
HETATM    2  C   UNK N   1      30.770  17.418   5.526  0.00  0.00     0.032 A 
HETATM    3  C   UNK N   1      32.159  17.162   5.455  0.00  0.00     0.034 A 
HETATM    4  C   UNK N   1      32.856  16.769   6.612  0.00  0.00     0.059 A 
HETATM    5  C   UNK N   1      32.159  16.652   7.817  0.00  0.00     0.061 A 
HETATM    6  C   UNK N   1      30.811  16.894   7.869  0.00  0.00     0.061 A 
HETATM    7  N   UNK N   1      32.801  16.288   8.942  0.00  0.00    -0.352 N 
ATOM      8  HN  UNK N   1      32.277  16.216   9.814  1.00  0.00     0.166 HD
HETATM    9  C   UNK N   1      34.124  16.015   8.943  0.00  0.00     0.061 A 
HETATM   10  C   UNK N   1      34.842  16.115   7.737  0.00  0.00     0.119 A 
HETATM   11  N   UNK N   1      34.192  16.496   6.594  0.00  0.00    -0.362 N 
ATOM     12  HN  UNK N   1      34.711  16.578   5.720  1.00  0.00     0.165 HD
ENDROOT
BRANCH   1  13
HETATM   13  N   UNK N   1      28.650  17.489   6.856  0.00  0.00    -0.345 N 
BRANCH  13  14
HETATM   14  C   UNK N   1      28.195  18.628   7.634  0.00  0.00     0.148 C 
BRANCH  14  15
HETATM   15  C   UNK N   1      27.864  19.838   6.776  0.00  0.00     0.134 C 
BRANCH  15  16
HETATM   16  N   UNK N   1      26.431  19.826   6.513  0.00  0.00    -0.416 N 
HETATM   17  H   UNK N   1      25.706  19.668   7.214  0.00  0.00     0.153 HD
BRANCH  16  18
HETATM   18  C   UNK N   1      26.193  20.075   5.095  0.00  0.00     0.068 C 
HETATM   19  C   UNK N   1      25.210  19.045   4.578  0.00  0.00     0.031 C 
HETATM   20  C   UNK N   1      27.478  19.942   4.292  0.00  0.00     0.031 C 
ENDBRANCH  16  18
ENDBRANCH  15  16
ENDBRANCH  14  15
ENDBRANCH  13  14
BRANCH  13  21
HETATM   21  C   UNK N   1      27.674  16.570   6.284  0.00  0.00     0.040 A 
HETATM   22  C   UNK N   1      26.686  15.964   7.082  0.00  0.00     0.066 A 
HETATM   23  C   UNK N   1      25.732  15.098   6.523  0.00  0.00     0.073 A 
HETATM   24  C   UNK N   1      25.770  14.818   5.145  0.00  0.00     0.073 A 
HETATM   25  C   UNK N   1      26.740  15.399   4.336  0.00  0.00     0.073 A 
HETATM   26  C   UNK N   1      27.666  16.269   4.911  0.00  0.00     0.066 A 
BRANCH  23  27
HETATM   27  O   UNK N   1      24.789  14.551   7.323  0.00  0.00    -0.356 OA
HETATM   28  C   UNK N   1      25.017  13.434   8.096  0.00  0.00     0.210 C 
ENDBRANCH  23  27
BRANCH  25  29
HETATM   29  O   UNK N   1      26.772  15.108   3.013  0.00  0.00    -0.356 OA
HETATM   30  C   UNK N   1      25.761  14.431   2.367  0.00  0.00     0.210 C 
ENDBRANCH  25  29
ENDBRANCH  13  21
ENDBRANCH   1  13
BRANCH   9  31
HETATM   31  C   UNK N   1      34.737  15.609  10.215  0.00  0.00     0.026 A 
HETATM   32  C   UNK N   1      35.698  16.343  10.893  0.00  0.00     0.122 A 
HETATM   33  N   UNK N   1      36.011  15.676  12.018  0.00  0.00    -0.310 N 
HETATM   34  N   UNK N   1      35.287  14.572  12.059  0.00  0.00    -0.307 N 
ATOM     35  HN  UNK N   1      36.691  15.972  12.718  1.00  0.00     0.186 HD
HETATM   36  C   UNK N   1      34.492  14.487  10.976  0.00  0.00     0.124 A 
HETATM   37  C   UNK N   1      35.350  13.610  13.142  0.00  0.00     0.177 C 
ENDBRANCH   9  31
TORSDOF 9
ENDMDL
MODEL 8
REMARK VINA RESULT:      -6.8      1.651      3.905
REMARK  9 active torsions:
REMARK  status: ('A' for Active; 'I' for Inactive)
REMARK    1  A    between atoms: C_2  and  N_4 
REMARK    2  A    between atoms: N_4  and  C_5 
REMARK    3  A    between atoms: C_5  and  C_6 
REMARK    4  A    between atoms: C_6  and  N_7 
REMARK    5  A    between atoms: N_7  and  C_8 
REMARK    6  A    between atoms: N_7  and  C_27 
REMARK    7  A    between atoms: C_16  and  C_20 
REMARK    8  A    between atoms: C_29  and  O_35 
REMARK    9  A    between atoms: C_31  and  O_33 
ROOT
HETATM    1  C   UNK N   1      31.462  17.021   7.903  0.00  0.00     0.037 A 
HETATM    2  C   UNK N   1      32.333  18.119   7.715  0.00  0.00     0.032 A 
HETATM    3  C   UNK N   1      33.591  18.155   8.360  0.00  0.00     0.034 A 
HETATM    4  C   UNK N   1      33.971  17.097   9.206  0.00  0.00     0.059 A 
HETATM    5  C   UNK N   1      33.087  16.034   9.403  0.00  0.00     0.061 A 
HETATM    6  C   UNK N   1      31.874  16.008   8.764  0.00  0.00     0.061 A 
HETATM    7  N   UNK N   1      33.418  15.013  10.215  0.00  0.00    -0.352 N 
ATOM      8  HN  UNK N   1      32.756  14.251  10.353  1.00  0.00     0.166 HD
HETATM    9  C   UNK N   1      34.609  14.976  10.851  0.00  0.00     0.061 A 
HETATM   10  C   UNK N   1      35.520  16.032  10.657  0.00  0.00     0.119 A 
HETATM   11  N   UNK N   1      35.178  17.076   9.839  0.00  0.00    -0.362 N 
ATOM     12  HN  UNK N   1      35.833  17.846   9.704  1.00  0.00     0.165 HD
ENDROOT
BRANCH   1  13
HETATM   13  N   UNK N   1      30.180  16.933   7.238  0.00  0.00    -0.345 N 
BRANCH  13  14
HETATM   14  C   UNK N   1      28.988  17.213   8.018  0.00  0.00     0.148 C 
BRANCH  14  15
HETATM   15  C   UNK N   1      28.700  18.699   8.148  0.00  0.00     0.134 C 
BRANCH  15  16
HETATM   16  N   UNK N   1      27.501  18.996   7.376  0.00  0.00    -0.416 N 
HETATM   17  H   UNK N   1      26.645  18.440   7.381  0.00  0.00     0.153 HD
BRANCH  16  18
HETATM   18  C   UNK N   1      27.713  20.209   6.592  0.00  0.00     0.068 C 
HETATM   19  C   UNK N   1      26.523  21.126   6.783  0.00  0.00     0.031 C 
HETATM   20  C   UNK N   1      27.827  19.890   5.110  0.00  0.00     0.031 C 
ENDBRANCH  16  18
ENDBRANCH  15  16
ENDBRANCH  14  15
ENDBRANCH  13  14
BRANCH  13  21
HETATM   21  C   UNK N   1      30.051  16.498   5.853  0.00  0.00     0.040 A 
HETATM   22  C   UNK N   1      28.789  16.340   5.252  0.00  0.00     0.066 A 
HETATM   23  C   UNK N   1      28.669  15.944   3.909  0.00  0.00     0.073 A 
HETATM   24  C   UNK N   1      29.827  15.687   3.154  0.00  0.00     0.073 A 
HETATM   25  C   UNK N   1      31.086  15.828   3.727  0.00  0.00     0.073 A 
HETATM   26  C   UNK N   1      31.180  16.239   5.057  0.00  0.00     0.066 A 
BRANCH  23  27
HETATM   27  O   UNK N   1      27.437  15.822   3.365  0.00  0.00    -0.356 OA
HETATM   28  C   UNK N   1      26.446  16.766   3.532  0.00  0.00     0.210 C 
ENDBRANCH  23  27
BRANCH  25  29
HETATM   29  O   UNK N   1      32.192  15.563   2.991  0.00  0.00    -0.356 OA
HETATM   30  C   UNK N   1      33.471  15.630   3.502  0.00  0.00     0.210 C 
ENDBRANCH  25  29
ENDBRANCH  13  21
ENDBRANCH   1  13
BRANCH   9  31
HETATM   31  C   UNK N   1      34.892  13.815  11.705  0.00  0.00     0.026 A 
HETATM   32  C   UNK N   1      34.791  12.495  11.295  0.00  0.00     0.122 A 
HETATM   33  N   UNK N   1      35.140  11.712  12.330  0.00  0.00    -0.310 N 
HETATM   34  N   UNK N   1      35.450  12.489  13.351  0.00  0.00    -0.307 N 
ATOM     35  HN  UNK N   1      35.161  10.692  12.327  1.00  0.00     0.186 HD
HETATM   36  C   UNK N   1      35.313  13.787  13.017  0.00  0.00     0.124 A 
HETATM   37  C   UNK N   1      35.889  11.988  14.639  0.00  0.00     0.177 C 
ENDBRANCH   9  31
TORSDOF 9
ENDMDL
MODEL 9
REMARK VINA RESULT:      -6.7      2.573      4.891
REMARK  9 active torsions:
REMARK  status: ('A' for Active; 'I' for Inactive)
REMARK    1  A    between atoms: C_2  and  N_4 
REMARK    2  A    between atoms: N_4  and  C_5 
REMARK    3  A    between atoms: C_5  and  C_6 
REMARK    4  A    between atoms: C_6  and  N_7 
REMARK    5  A    between atoms: N_7  and  C_8 
REMARK    6  A    between atoms: N_7  and  C_27 
REMARK    7  A    between atoms: C_16  and  C_20 
REMARK    8  A    between atoms: C_29  and  O_35 
REMARK    9  A    between atoms: C_31  and  O_33 
ROOT
HETATM    1  C   UNK N   1      32.738  16.690   7.008  0.00  0.00     0.037 A 
HETATM    2  C   UNK N   1      33.340  17.956   7.201  0.00  0.00     0.032 A 
HETATM    3  C   UNK N   1      34.211  18.175   8.293  0.00  0.00     0.034 A 
HETATM    4  C   UNK N   1      34.467  17.132   9.201  0.00  0.00     0.059 A 
HETATM    5  C   UNK N   1      33.842  15.898   9.012  0.00  0.00     0.061 A 
HETATM    6  C   UNK N   1      33.008  15.696   7.943  0.00  0.00     0.061 A 
HETATM    7  N   UNK N   1      34.061  14.884   9.870  0.00  0.00    -0.352 N 
ATOM      8  HN  UNK N   1      33.589  13.993   9.719  1.00  0.00     0.166 HD
HETATM    9  C   UNK N   1      34.891  15.021  10.927  0.00  0.00     0.061 A 
HETATM   10  C   UNK N   1      35.541  16.253  11.129  0.00  0.00     0.119 A 
HETATM   11  N   UNK N   1      35.310  17.288  10.262  0.00  0.00    -0.362 N 
ATOM     12  HN  UNK N   1      35.773  18.184  10.411  1.00  0.00     0.165 HD
ENDROOT
BRANCH   1  13
HETATM   13  N   UNK N   1      31.866  16.416   5.887  0.00  0.00    -0.345 N 
BRANCH  13  14
HETATM   14  C   UNK N   1      30.637  17.184   5.777  0.00  0.00     0.148 C 
BRANCH  14  15
HETATM   15  C   UNK N   1      29.711  16.993   6.967  0.00  0.00     0.134 C 
BRANCH  15  16
HETATM   16  N   UNK N   1      28.936  18.215   7.134  0.00  0.00    -0.416 N 
HETATM   17  H   UNK N   1      28.546  18.774   6.374  0.00  0.00     0.153 HD
BRANCH  16  18
HETATM   18  C   UNK N   1      28.803  18.518   8.556  0.00  0.00     0.068 C 
HETATM   19  C   UNK N   1      30.186  18.670   9.154  0.00  0.00     0.031 C 
HETATM   20  C   UNK N   1      28.094  17.392   9.291  0.00  0.00     0.031 C 
ENDBRANCH  16  18
ENDBRANCH  15  16
ENDBRANCH  14  15
ENDBRANCH  13  14
BRANCH  13  21
HETATM   21  C   UNK N   1      32.141  15.353   4.928  0.00  0.00     0.040 A 
HETATM   22  C   UNK N   1      33.024  15.553   3.851  0.00  0.00     0.066 A 
HETATM   23  C   UNK N   1      33.306  14.518   2.943  0.00  0.00     0.073 A 
HETATM   24  C   UNK N   1      32.686  13.266   3.102  0.00  0.00     0.073 A 
HETATM   25  C   UNK N   1      31.805  13.046   4.154  0.00  0.00     0.073 A 
HETATM   26  C   UNK N   1      31.554  14.083   5.053  0.00  0.00     0.066 A 
BRANCH  23  27
HETATM   27  O   UNK N   1      34.175  14.747   1.932  0.00  0.00    -0.356 OA
HETATM   28  C   UNK N   1      35.011  13.775   1.427  0.00  0.00     0.210 C 
ENDBRANCH  23  27
BRANCH  25  29
HETATM   29  O   UNK N   1      31.205  11.838   4.286  0.00  0.00    -0.356 OA
HETATM   30  C   UNK N   1      31.538  10.744   3.516  0.00  0.00     0.210 C 
ENDBRANCH  25  29
ENDBRANCH  13  21
ENDBRANCH   1  13
BRANCH   9  31
HETATM   31  C   UNK N   1      35.082  13.856  11.801  0.00  0.00     0.026 A 
HETATM   32  C   UNK N   1      35.533  13.922  13.110  0.00  0.00     0.122 A 
HETATM   33  N   UNK N   1      35.566  12.671  13.600  0.00  0.00    -0.310 N 
HETATM   34  N   UNK N   1      35.156  11.845  12.655  0.00  0.00    -0.307 N 
ATOM     35  HN  UNK N   1      35.859  12.405  14.541  1.00  0.00     0.186 HD
HETATM   36  C   UNK N   1      34.848  12.524  11.533  0.00  0.00     0.124 A 
HETATM   37  C   UNK N   1      35.048  10.410  12.833  0.00  0.00     0.177 C 
ENDBRANCH   9  31
TORSDOF 9
ENDMDL
