MODEL 1
REMARK VINA RESULT:      -5.0      0.000      0.000
REMARK  26 active torsions:
REMARK  status: ('A' for Active; 'I' for Inactive)
REMARK    1  A    between atoms: C_2  and  C_1 
REMARK    2  A    between atoms: O_4  and  C_1 
REMARK    3  A    between atoms: C_3  and  C_2 
REMARK    4  A    between atoms: C_2  and  O_6 
REMARK    5  A    between atoms: O_5  and  C_3 
REMARK    6  A    between atoms: C_32  and  O_4 
REMARK    7  A    between atoms: C_14  and  O_5 
REMARK    8  A    between atoms: C_23  and  O_6 
REMARK    9  A    between atoms: C_8  and  C_9 
REMARK   10  A    between atoms: C_9  and  C_10 
REMARK   11  A    between atoms: C_10  and  C_11 
REMARK   12  A    between atoms: C_11  and  C_12 
REMARK   13  A    between atoms: C_12  and  C_13 
REMARK   14  A    between atoms: C_13  and  C_14 
REMARK   15  A    between atoms: C_17  and  C_18 
REMARK   16  A    between atoms: C_18  and  C_19 
REMARK   17  A    between atoms: C_19  and  C_20 
REMARK   18  A    between atoms: C_20  and  C_21 
REMARK   19  A    between atoms: C_21  and  C_22 
REMARK   20  A    between atoms: C_22  and  C_23 
REMARK   21  A    between atoms: C_26  and  C_27 
REMARK   22  A    between atoms: C_27  and  C_28 
REMARK   23  A    between atoms: C_28  and  C_29 
REMARK   24  A    between atoms: C_29  and  C_30 
REMARK   25  A    between atoms: C_30  and  C_31 
REMARK   26  A    between atoms: C_31  and  C_32 
ROOT
HETATM    1  C   UNK N   1      21.010  19.494   3.664  0.00  0.00     0.180 C 
ENDROOT
BRANCH   1   2
HETATM    2  C   UNK N   1      19.973  18.633   2.948  0.00  0.00     0.213 C 
BRANCH   2   3
HETATM    3  O   UNK N   1      20.269  18.490   1.608  0.00  0.00    -0.319 OA
BRANCH   3   4
HETATM    4  C   UNK N   1      20.307  17.277   0.995  0.00  0.00     0.258 C 
HETATM    5  O   UNK N   1      20.346  17.225  -0.224  0.00  0.00    -0.265 OA
BRANCH   4   6
HETATM    6  C   UNK N   1      20.298  15.993   1.787  0.00  0.00     0.111 C 
BRANCH   6   7
HETATM    7  C   UNK N   1      20.788  14.829   0.932  0.00  0.00     0.010 C 
BRANCH   7   8
HETATM    8  C   UNK N   1      21.161  13.619   1.772  0.00  0.00     0.000 C 
BRANCH   8   9
HETATM    9  C   UNK N   1      20.447  13.626   3.116  0.00  0.00     0.000 C 
BRANCH   9  10
HETATM   10  C   UNK N   1      21.135  12.678   4.086  0.00  0.00    -0.000 C 
BRANCH  10  11
HETATM   11  C   UNK N   1      22.181  11.847   3.367  0.00  0.00    -0.005 C 
HETATM   12  C   UNK N   1      23.375  11.633   4.273  0.00  0.00     0.005 C 
ENDBRANCH  10  11
ENDBRANCH   9  10
ENDBRANCH   8   9
ENDBRANCH   7   8
ENDBRANCH   6   7
ENDBRANCH   4   6
ENDBRANCH   3   4
ENDBRANCH   2   3
ENDBRANCH   1   2
BRANCH   1  13
HETATM   13  C   UNK N   1      21.841  20.231   2.598  0.00  0.00     0.213 C 
BRANCH  13  14
HETATM   14  O   UNK N   1      22.904  20.950   3.111  0.00  0.00    -0.319 OA
BRANCH  14  15
HETATM   15  C   UNK N   1      24.198  20.600   2.894  0.00  0.00     0.258 C 
HETATM   16  O   UNK N   1      24.739  20.851   1.822  0.00  0.00    -0.265 OA
BRANCH  15  17
HETATM   17  C   UNK N   1      24.959  19.899   3.977  0.00  0.00     0.111 C 
BRANCH  17  18
HETATM   18  C   UNK N   1      25.751  18.718   3.440  0.00  0.00     0.010 C 
BRANCH  18  19
HETATM   19  C   UNK N   1      26.976  18.481   4.295  0.00  0.00     0.000 C 
BRANCH  19  20
HETATM   20  C   UNK N   1      27.734  19.786   4.466  0.00  0.00     0.000 C 
BRANCH  20  21
HETATM   21  C   UNK N   1      27.906  20.148   5.933  0.00  0.00    -0.000 C 
BRANCH  21  22
HETATM   22  C   UNK N   1      27.384  21.548   6.211  0.00  0.00    -0.005 C 
HETATM   23  C   UNK N   1      26.216  21.499   7.179  0.00  0.00     0.005 C 
ENDBRANCH  21  22
ENDBRANCH  20  21
ENDBRANCH  19  20
ENDBRANCH  18  19
ENDBRANCH  17  18
ENDBRANCH  15  17
ENDBRANCH  14  15
ENDBRANCH  13  14
ENDBRANCH   1  13
BRANCH   1  24
HETATM   24  O   UNK N   1      21.828  18.657   4.407  0.00  0.00    -0.312 OA
BRANCH  24  25
HETATM   25  C   UNK N   1      21.553  18.176   5.645  0.00  0.00     0.259 C 
HETATM   26  O   UNK N   1      20.969  18.858   6.474  0.00  0.00    -0.265 OA
BRANCH  25  27
HETATM   27  C   UNK N   1      22.055  16.817   6.012  0.00  0.00     0.111 C 
BRANCH  27  28
HETATM   28  C   UNK N   1      23.465  16.617   5.471  0.00  0.00     0.010 C 
BRANCH  28  29
HETATM   29  C   UNK N   1      23.548  15.366   4.610  0.00  0.00     0.000 C 
BRANCH  29  30
HETATM   30  C   UNK N   1      23.806  15.725   3.155  0.00  0.00     0.000 C 
BRANCH  30  31
HETATM   31  C   UNK N   1      24.654  14.659   2.480  0.00  0.00    -0.000 C 
BRANCH  31  32
HETATM   32  C   UNK N   1      25.731  15.292   1.618  0.00  0.00    -0.005 C 
HETATM   33  C   UNK N   1      27.043  15.307   2.375  0.00  0.00     0.005 C 
ENDBRANCH  31  32
ENDBRANCH  30  31
ENDBRANCH  29  30
ENDBRANCH  28  29
ENDBRANCH  27  28
ENDBRANCH  25  27
ENDBRANCH  24  25
ENDBRANCH   1  24
TORSDOF 26
ENDMDL
MODEL 2
REMARK VINA RESULT:      -4.8      2.034      6.370
REMARK  26 active torsions:
REMARK  status: ('A' for Active; 'I' for Inactive)
REMARK    1  A    between atoms: C_2  and  C_1 
REMARK    2  A    between atoms: O_4  and  C_1 
REMARK    3  A    between atoms: C_3  and  C_2 
REMARK    4  A    between atoms: C_2  and  O_6 
REMARK    5  A    between atoms: O_5  and  C_3 
REMARK    6  A    between atoms: C_32  and  O_4 
REMARK    7  A    between atoms: C_14  and  O_5 
REMARK    8  A    between atoms: C_23  and  O_6 
REMARK    9  A    between atoms: C_8  and  C_9 
REMARK   10  A    between atoms: C_9  and  C_10 
REMARK   11  A    between atoms: C_10  and  C_11 
REMARK   12  A    between atoms: C_11  and  C_12 
REMARK   13  A    between atoms: C_12  and  C_13 
REMARK   14  A    between atoms: C_13  and  C_14 
REMARK   15  A    between atoms: C_17  and  C_18 
REMARK   16  A    between atoms: C_18  and  C_19 
REMARK   17  A    between atoms: C_19  and  C_20 
REMARK   18  A    between atoms: C_20  and  C_21 
REMARK   19  A    between atoms: C_21  and  C_22 
REMARK   20  A    between atoms: C_22  and  C_23 
REMARK   21  A    between atoms: C_26  and  C_27 
REMARK   22  A    between atoms: C_27  and  C_28 
REMARK   23  A    between atoms: C_28  and  C_29 
REMARK   24  A    between atoms: C_29  and  C_30 
REMARK   25  A    between atoms: C_30  and  C_31 
REMARK   26  A    between atoms: C_31  and  C_32 
ROOT
HETATM    1  C   UNK N   1      21.615  18.724   3.545  0.00  0.00     0.180 C 
ENDROOT
BRANCH   1   2
HETATM    2  C   UNK N   1      22.132  19.959   2.812  0.00  0.00     0.213 C 
BRANCH   2   3
HETATM    3  O   UNK N   1      23.228  20.507   3.449  0.00  0.00    -0.319 OA
BRANCH   3   4
HETATM    4  C   UNK N   1      24.497  20.335   2.995  0.00  0.00     0.258 C 
HETATM    5  O   UNK N   1      24.820  20.829   1.926  0.00  0.00    -0.265 OA
BRANCH   4   6
HETATM    6  C   UNK N   1      25.516  19.546   3.781  0.00  0.00     0.111 C 
BRANCH   6   7
HETATM    7  C   UNK N   1      26.912  20.130   3.591  0.00  0.00     0.010 C 
BRANCH   7   8
HETATM    8  C   UNK N   1      27.795  19.907   4.808  0.00  0.00     0.000 C 
BRANCH   8   9
HETATM    9  C   UNK N   1      28.420  18.520   4.801  0.00  0.00     0.000 C 
BRANCH   9  10
HETATM   10  C   UNK N   1      28.628  18.026   6.225  0.00  0.00    -0.000 C 
BRANCH  10  11
HETATM   11  C   UNK N   1      28.033  19.006   7.220  0.00  0.00    -0.005 C 
HETATM   12  C   UNK N   1      28.441  18.619   8.626  0.00  0.00     0.005 C 
ENDBRANCH  10  11
ENDBRANCH   9  10
ENDBRANCH   8   9
ENDBRANCH   7   8
ENDBRANCH   6   7
ENDBRANCH   4   6
ENDBRANCH   3   4
ENDBRANCH   2   3
ENDBRANCH   1   2
BRANCH   1  13
HETATM   13  C   UNK N   1      20.386  18.193   2.785  0.00  0.00     0.213 C 
BRANCH  13  14
HETATM   14  O   UNK N   1      20.439  16.842   2.503  0.00  0.00    -0.319 OA
BRANCH  14  15
HETATM   15  C   UNK N   1      20.593  16.362   1.242  0.00  0.00     0.258 C 
HETATM   16  O   UNK N   1      20.273  17.044   0.274  0.00  0.00    -0.265 OA
BRANCH  15  17
HETATM   17  C   UNK N   1      21.153  14.987   1.044  0.00  0.00     0.111 C 
BRANCH  17  18
HETATM   18  C   UNK N   1      21.499  14.320   2.366  0.00  0.00     0.010 C 
BRANCH  18  19
HETATM   19  C   UNK N   1      22.991  14.086   2.455  0.00  0.00     0.000 C 
BRANCH  19  20
HETATM   20  C   UNK N   1      23.660  15.313   3.050  0.00  0.00     0.000 C 
BRANCH  20  21
HETATM   21  C   UNK N   1      24.669  14.937   4.125  0.00  0.00    -0.000 C 
BRANCH  21  22
HETATM   22  C   UNK N   1      25.846  15.897   4.123  0.00  0.00    -0.005 C 
HETATM   23  C   UNK N   1      26.390  16.070   2.716  0.00  0.00     0.005 C 
ENDBRANCH  21  22
ENDBRANCH  20  21
ENDBRANCH  19  20
ENDBRANCH  18  19
ENDBRANCH  17  18
ENDBRANCH  15  17
ENDBRANCH  14  15
ENDBRANCH  13  14
ENDBRANCH   1  13
BRANCH   1  24
HETATM   24  O   UNK N   1      21.252  19.104   4.827  0.00  0.00    -0.312 OA
BRANCH  24  25
HETATM   25  C   UNK N   1      21.352  18.335   5.940  0.00  0.00     0.259 C 
HETATM   26  O   UNK N   1      20.954  18.735   7.024  0.00  0.00    -0.265 OA
BRANCH  25  27
HETATM   27  C   UNK N   1      22.041  17.012   5.837  0.00  0.00     0.111 C 
BRANCH  27  28
HETATM   28  C   UNK N   1      21.011  15.891   5.771  0.00  0.00     0.010 C 
BRANCH  28  29
HETATM   29  C   UNK N   1      21.636  14.554   6.142  0.00  0.00     0.000 C 
BRANCH  29  30
HETATM   30  C   UNK N   1      22.311  14.628   7.501  0.00  0.00     0.000 C 
BRANCH  30  31
HETATM   31  C   UNK N   1      21.975  13.404   8.336  0.00  0.00    -0.000 C 
BRANCH  31  32
HETATM   32  C   UNK N   1      21.665  13.797   9.770  0.00  0.00    -0.005 C 
HETATM   33  C   UNK N   1      21.384  12.552  10.587  0.00  0.00     0.005 C 
ENDBRANCH  31  32
ENDBRANCH  30  31
ENDBRANCH  29  30
ENDBRANCH  28  29
ENDBRANCH  27  28
ENDBRANCH  25  27
ENDBRANCH  24  25
ENDBRANCH   1  24
TORSDOF 26
ENDMDL
MODEL 3
REMARK VINA RESULT:      -4.8      1.526      6.241
REMARK  26 active torsions:
REMARK  status: ('A' for Active; 'I' for Inactive)
REMARK    1  A    between atoms: C_2  and  C_1 
REMARK    2  A    between atoms: O_4  and  C_1 
REMARK    3  A    between atoms: C_3  and  C_2 
REMARK    4  A    between atoms: C_2  and  O_6 
REMARK    5  A    between atoms: O_5  and  C_3 
REMARK    6  A    between atoms: C_32  and  O_4 
REMARK    7  A    between atoms: C_14  and  O_5 
REMARK    8  A    between atoms: C_23  and  O_6 
REMARK    9  A    between atoms: C_8  and  C_9 
REMARK   10  A    between atoms: C_9  and  C_10 
REMARK   11  A    between atoms: C_10  and  C_11 
REMARK   12  A    between atoms: C_11  and  C_12 
REMARK   13  A    between atoms: C_12  and  C_13 
REMARK   14  A    between atoms: C_13  and  C_14 
REMARK   15  A    between atoms: C_17  and  C_18 
REMARK   16  A    between atoms: C_18  and  C_19 
REMARK   17  A    between atoms: C_19  and  C_20 
REMARK   18  A    between atoms: C_20  and  C_21 
REMARK   19  A    between atoms: C_21  and  C_22 
REMARK   20  A    between atoms: C_22  and  C_23 
REMARK   21  A    between atoms: C_26  and  C_27 
REMARK   22  A    between atoms: C_27  and  C_28 
REMARK   23  A    between atoms: C_28  and  C_29 
REMARK   24  A    between atoms: C_29  and  C_30 
REMARK   25  A    between atoms: C_30  and  C_31 
REMARK   26  A    between atoms: C_31  and  C_32 
ROOT
HETATM    1  C   UNK N   1      21.441  19.431   3.531  0.00  0.00     0.180 C 
ENDROOT
BRANCH   1   2
HETATM    2  C   UNK N   1      21.214  18.289   4.518  0.00  0.00     0.213 C 
BRANCH   2   3
HETATM    3  O   UNK N   1      22.407  17.805   5.018  0.00  0.00    -0.319 OA
BRANCH   3   4
HETATM    4  C   UNK N   1      22.499  16.605   5.649  0.00  0.00     0.258 C 
HETATM    5  O   UNK N   1      21.497  16.111   6.141  0.00  0.00    -0.265 OA
BRANCH   4   6
HETATM    6  C   UNK N   1      23.812  15.869   5.755  0.00  0.00     0.111 C 
BRANCH   6   7
HETATM    7  C   UNK N   1      24.828  16.433   4.767  0.00  0.00     0.010 C 
BRANCH   7   8
HETATM    8  C   UNK N   1      24.872  15.637   3.474  0.00  0.00     0.000 C 
BRANCH   8   9
HETATM    9  C   UNK N   1      25.960  16.144   2.539  0.00  0.00     0.000 C 
BRANCH   9  10
HETATM   10  C   UNK N   1      26.918  15.018   2.182  0.00  0.00    -0.000 C 
BRANCH  10  11
HETATM   11  C   UNK N   1      28.217  15.160   2.954  0.00  0.00    -0.005 C 
HETATM   12  C   UNK N   1      28.520  16.625   3.180  0.00  0.00     0.005 C 
ENDBRANCH  10  11
ENDBRANCH   9  10
ENDBRANCH   8   9
ENDBRANCH   7   8
ENDBRANCH   6   7
ENDBRANCH   4   6
ENDBRANCH   3   4
ENDBRANCH   2   3
ENDBRANCH   1   2
BRANCH   1  13
HETATM   13  C   UNK N   1      20.628  19.134   2.257  0.00  0.00     0.213 C 
BRANCH  13  14
HETATM   14  O   UNK N   1      20.196  17.825   2.158  0.00  0.00    -0.319 OA
BRANCH  14  15
HETATM   15  C   UNK N   1      20.353  17.085   1.030  0.00  0.00     0.258 C 
HETATM   16  O   UNK N   1      20.363  17.624  -0.072  0.00  0.00    -0.265 OA
BRANCH  15  17
HETATM   17  C   UNK N   1      20.511  15.599   1.145  0.00  0.00     0.111 C 
BRANCH  17  18
HETATM   18  C   UNK N   1      21.294  15.206   2.386  0.00  0.00     0.010 C 
BRANCH  18  19
HETATM   19  C   UNK N   1      22.011  13.895   2.155  0.00  0.00     0.000 C 
BRANCH  19  20
HETATM   20  C   UNK N   1      22.194  13.674   0.664  0.00  0.00     0.000 C 
BRANCH  20  21
HETATM   21  C   UNK N   1      23.660  13.499   0.297  0.00  0.00    -0.000 C 
BRANCH  21  22
HETATM   22  C   UNK N   1      24.369  12.610   1.304  0.00  0.00    -0.005 C 
HETATM   23  C   UNK N   1      24.769  11.293   0.663  0.00  0.00     0.005 C 
ENDBRANCH  21  22
ENDBRANCH  20  21
ENDBRANCH  19  20
ENDBRANCH  18  19
ENDBRANCH  17  18
ENDBRANCH  15  17
ENDBRANCH  14  15
ENDBRANCH  13  14
ENDBRANCH   1  13
BRANCH   1  24
HETATM   24  O   UNK N   1      22.792  19.480   3.230  0.00  0.00    -0.312 OA
BRANCH  24  25
HETATM   25  C   UNK N   1      23.499  20.600   2.937  0.00  0.00     0.259 C 
HETATM   26  O   UNK N   1      22.963  21.698   2.910  0.00  0.00    -0.265 OA
BRANCH  25  27
HETATM   27  C   UNK N   1      24.939  20.460   2.563  0.00  0.00     0.111 C 
BRANCH  27  28
HETATM   28  C   UNK N   1      25.684  19.673   3.634  0.00  0.00     0.010 C 
BRANCH  28  29
HETATM   29  C   UNK N   1      25.748  20.453   4.939  0.00  0.00     0.000 C 
BRANCH  29  30
HETATM   30  C   UNK N   1      27.188  20.770   5.311  0.00  0.00     0.000 C 
BRANCH  30  31
HETATM   31  C   UNK N   1      28.035  19.509   5.307  0.00  0.00    -0.000 C 
BRANCH  31  32
HETATM   32  C   UNK N   1      28.137  18.923   6.704  0.00  0.00    -0.005 C 
HETATM   33  C   UNK N   1      27.705  17.471   6.678  0.00  0.00     0.005 C 
ENDBRANCH  31  32
ENDBRANCH  30  31
ENDBRANCH  29  30
ENDBRANCH  28  29
ENDBRANCH  27  28
ENDBRANCH  25  27
ENDBRANCH  24  25
ENDBRANCH   1  24
TORSDOF 26
ENDMDL
MODEL 4
REMARK VINA RESULT:      -4.8      1.708      5.934
REMARK  26 active torsions:
REMARK  status: ('A' for Active; 'I' for Inactive)
REMARK    1  A    between atoms: C_2  and  C_1 
REMARK    2  A    between atoms: O_4  and  C_1 
REMARK    3  A    between atoms: C_3  and  C_2 
REMARK    4  A    between atoms: C_2  and  O_6 
REMARK    5  A    between atoms: O_5  and  C_3 
REMARK    6  A    between atoms: C_32  and  O_4 
REMARK    7  A    between atoms: C_14  and  O_5 
REMARK    8  A    between atoms: C_23  and  O_6 
REMARK    9  A    between atoms: C_8  and  C_9 
REMARK   10  A    between atoms: C_9  and  C_10 
REMARK   11  A    between atoms: C_10  and  C_11 
REMARK   12  A    between atoms: C_11  and  C_12 
REMARK   13  A    between atoms: C_12  and  C_13 
REMARK   14  A    between atoms: C_13  and  C_14 
REMARK   15  A    between atoms: C_17  and  C_18 
REMARK   16  A    between atoms: C_18  and  C_19 
REMARK   17  A    between atoms: C_19  and  C_20 
REMARK   18  A    between atoms: C_20  and  C_21 
REMARK   19  A    between atoms: C_21  and  C_22 
REMARK   20  A    between atoms: C_22  and  C_23 
REMARK   21  A    between atoms: C_26  and  C_27 
REMARK   22  A    between atoms: C_27  and  C_28 
REMARK   23  A    between atoms: C_28  and  C_29 
REMARK   24  A    between atoms: C_29  and  C_30 
REMARK   25  A    between atoms: C_30  and  C_31 
REMARK   26  A    between atoms: C_31  and  C_32 
ROOT
HETATM    1  C   UNK N   1      21.579  18.981   3.279  0.00  0.00     0.180 C 
ENDROOT
BRANCH   1   2
HETATM    2  C   UNK N   1      22.435  20.205   2.967  0.00  0.00     0.213 C 
BRANCH   2   3
HETATM    3  O   UNK N   1      23.637  20.171   3.645  0.00  0.00    -0.319 OA
BRANCH   3   4
HETATM    4  C   UNK N   1      24.836  20.219   3.005  0.00  0.00     0.258 C 
HETATM    5  O   UNK N   1      24.947  20.898   1.997  0.00  0.00    -0.265 OA
BRANCH   4   6
HETATM    6  C   UNK N   1      26.031  19.452   3.513  0.00  0.00     0.111 C 
BRANCH   6   7
HETATM    7  C   UNK N   1      25.676  17.986   3.737  0.00  0.00     0.010 C 
BRANCH   7   8
HETATM    8  C   UNK N   1      26.283  17.439   5.018  0.00  0.00     0.000 C 
BRANCH   8   9
HETATM    9  C   UNK N   1      27.648  16.814   4.770  0.00  0.00     0.000 C 
BRANCH   9  10
HETATM   10  C   UNK N   1      28.433  16.725   6.070  0.00  0.00    -0.000 C 
BRANCH  10  11
HETATM   11  C   UNK N   1      28.776  18.112   6.581  0.00  0.00    -0.005 C 
HETATM   12  C   UNK N   1      28.293  18.266   8.007  0.00  0.00     0.005 C 
ENDBRANCH  10  11
ENDBRANCH   9  10
ENDBRANCH   8   9
ENDBRANCH   7   8
ENDBRANCH   6   7
ENDBRANCH   4   6
ENDBRANCH   3   4
ENDBRANCH   2   3
ENDBRANCH   1   2
BRANCH   1  13
HETATM   13  C   UNK N   1      20.425  18.929   2.262  0.00  0.00     0.213 C 
BRANCH  13  14
HETATM   14  O   UNK N   1      19.911  17.662   2.057  0.00  0.00    -0.319 OA
BRANCH  14  15
HETATM   15  C   UNK N   1      20.131  16.957   0.918  0.00  0.00     0.258 C 
HETATM   16  O   UNK N   1      20.411  17.536  -0.127  0.00  0.00    -0.265 OA
BRANCH  15  17
HETATM   17  C   UNK N   1      20.023  15.463   0.947  0.00  0.00     0.111 C 
BRANCH  17  18
HETATM   18  C   UNK N   1      20.689  14.872   2.178  0.00  0.00     0.010 C 
BRANCH  18  19
HETATM   19  C   UNK N   1      22.191  14.851   1.997  0.00  0.00     0.000 C 
BRANCH  19  20
HETATM   20  C   UNK N   1      22.550  13.913   0.858  0.00  0.00     0.000 C 
BRANCH  20  21
HETATM   21  C   UNK N   1      24.033  13.975   0.525  0.00  0.00    -0.000 C 
BRANCH  21  22
HETATM   22  C   UNK N   1      24.875  13.930   1.788  0.00  0.00    -0.005 C 
HETATM   23  C   UNK N   1      25.927  15.025   1.766  0.00  0.00     0.005 C 
ENDBRANCH  21  22
ENDBRANCH  20  21
ENDBRANCH  19  20
ENDBRANCH  18  19
ENDBRANCH  17  18
ENDBRANCH  15  17
ENDBRANCH  14  15
ENDBRANCH  13  14
ENDBRANCH   1  13
BRANCH   1  24
HETATM   24  O   UNK N   1      21.074  19.122   4.562  0.00  0.00    -0.312 OA
BRANCH  24  25
HETATM   25  C   UNK N   1      21.492  18.440   5.657  0.00  0.00     0.259 C 
HETATM   26  O   UNK N   1      21.065  18.709   6.771  0.00  0.00    -0.265 OA
BRANCH  25  27
HETATM   27  C   UNK N   1      22.554  17.402   5.493  0.00  0.00     0.111 C 
BRANCH  27  28
HETATM   28  C   UNK N   1      21.937  16.010   5.547  0.00  0.00     0.010 C 
BRANCH  28  29
HETATM   29  C   UNK N   1      22.489  15.212   6.719  0.00  0.00     0.000 C 
BRANCH  29  30
HETATM   30  C   UNK N   1      24.005  15.125   6.650  0.00  0.00     0.000 C 
BRANCH  30  31
HETATM   31  C   UNK N   1      24.440  14.216   5.512  0.00  0.00    -0.000 C 
BRANCH  31  32
HETATM   32  C   UNK N   1      25.503  13.238   5.979  0.00  0.00    -0.005 C 
HETATM   33  C   UNK N   1      26.687  13.287   5.034  0.00  0.00     0.005 C 
ENDBRANCH  31  32
ENDBRANCH  30  31
ENDBRANCH  29  30
ENDBRANCH  28  29
ENDBRANCH  27  28
ENDBRANCH  25  27
ENDBRANCH  24  25
ENDBRANCH   1  24
TORSDOF 26
ENDMDL
MODEL 5
REMARK VINA RESULT:      -4.7     11.350     14.608
REMARK  26 active torsions:
REMARK  status: ('A' for Active; 'I' for Inactive)
REMARK    1  A    between atoms: C_2  and  C_1 
REMARK    2  A    between atoms: O_4  and  C_1 
REMARK    3  A    between atoms: C_3  and  C_2 
REMARK    4  A    between atoms: C_2  and  O_6 
REMARK    5  A    between atoms: O_5  and  C_3 
REMARK    6  A    between atoms: C_32  and  O_4 
REMARK    7  A    between atoms: C_14  and  O_5 
REMARK    8  A    between atoms: C_23  and  O_6 
REMARK    9  A    between atoms: C_8  and  C_9 
REMARK   10  A    between atoms: C_9  and  C_10 
REMARK   11  A    between atoms: C_10  and  C_11 
REMARK   12  A    between atoms: C_11  and  C_12 
REMARK   13  A    between atoms: C_12  and  C_13 
REMARK   14  A    between atoms: C_13  and  C_14 
REMARK   15  A    between atoms: C_17  and  C_18 
REMARK   16  A    between atoms: C_18  and  C_19 
REMARK   17  A    between atoms: C_19  and  C_20 
REMARK   18  A    between atoms: C_20  and  C_21 
REMARK   19  A    between atoms: C_21  and  C_22 
REMARK   20  A    between atoms: C_22  and  C_23 
REMARK   21  A    between atoms: C_26  and  C_27 
REMARK   22  A    between atoms: C_27  and  C_28 
REMARK   23  A    between atoms: C_28  and  C_29 
REMARK   24  A    between atoms: C_29  and  C_30 
REMARK   25  A    between atoms: C_30  and  C_31 
REMARK   26  A    between atoms: C_31  and  C_32 
ROOT
HETATM    1  C   UNK N   1      35.538  15.381  10.489  0.00  0.00     0.180 C 
ENDROOT
BRANCH   1   2
HETATM    2  C   UNK N   1      35.258  15.022  11.945  0.00  0.00     0.213 C 
BRANCH   2   3
HETATM    3  O   UNK N   1      35.949  13.891  12.332  0.00  0.00    -0.319 OA
BRANCH   3   4
HETATM    4  C   UNK N   1      35.611  13.171  13.434  0.00  0.00     0.258 C 
HETATM    5  O   UNK N   1      34.477  12.731  13.534  0.00  0.00    -0.265 OA
BRANCH   4   6
HETATM    6  C   UNK N   1      36.606  12.905  14.537  0.00  0.00     0.111 C 
BRANCH   6   7
HETATM    7  C   UNK N   1      35.912  12.300  15.754  0.00  0.00     0.010 C 
BRANCH   7   8
HETATM    8  C   UNK N   1      35.533  13.355  16.779  0.00  0.00     0.000 C 
BRANCH   8   9
HETATM    9  C   UNK N   1      35.026  12.726  18.069  0.00  0.00     0.000 C 
BRANCH   9  10
HETATM   10  C   UNK N   1      35.845  11.492  18.414  0.00  0.00    -0.000 C 
BRANCH  10  11
HETATM   11  C   UNK N   1      34.946  10.384  18.932  0.00  0.00    -0.005 C 
HETATM   12  C   UNK N   1      34.534   9.482  17.787  0.00  0.00     0.005 C 
ENDBRANCH  10  11
ENDBRANCH   9  10
ENDBRANCH   8   9
ENDBRANCH   7   8
ENDBRANCH   6   7
ENDBRANCH   4   6
ENDBRANCH   3   4
ENDBRANCH   2   3
ENDBRANCH   1   2
BRANCH   1  13
HETATM   13  C   UNK N   1      35.429  16.909  10.340  0.00  0.00     0.213 C 
BRANCH  13  14
HETATM   14  O   UNK N   1      34.350  17.326   9.584  0.00  0.00    -0.319 OA
BRANCH  14  15
HETATM   15  C   UNK N   1      34.492  17.947   8.385  0.00  0.00     0.258 C 
HETATM   16  O   UNK N   1      34.923  19.094   8.326  0.00  0.00    -0.265 OA
BRANCH  15  17
HETATM   17  C   UNK N   1      34.111  17.219   7.132  0.00  0.00     0.111 C 
BRANCH  17  18
HETATM   18  C   UNK N   1      32.714  17.590   6.664  0.00  0.00     0.010 C 
BRANCH  18  19
HETATM   19  C   UNK N   1      31.701  16.619   7.228  0.00  0.00     0.000 C 
BRANCH  19  20
HETATM   20  C   UNK N   1      30.474  17.382   7.695  0.00  0.00     0.000 C 
BRANCH  20  21
HETATM   21  C   UNK N   1      30.790  18.284   8.879  0.00  0.00    -0.000 C 
BRANCH  21  22
HETATM   22  C   UNK N   1      29.544  18.545   9.708  0.00  0.00    -0.005 C 
HETATM   23  C   UNK N   1      28.294  18.293   8.885  0.00  0.00     0.005 C 
ENDBRANCH  21  22
ENDBRANCH  20  21
ENDBRANCH  19  20
ENDBRANCH  18  19
ENDBRANCH  17  18
ENDBRANCH  15  17
ENDBRANCH  14  15
ENDBRANCH  13  14
ENDBRANCH   1  13
BRANCH   1  24
HETATM   24  O   UNK N   1      34.584  14.759   9.700  0.00  0.00    -0.312 OA
BRANCH  24  25
HETATM   25  C   UNK N   1      34.835  13.902   8.678  0.00  0.00     0.259 C 
HETATM   26  O   UNK N   1      35.972  13.524   8.435  0.00  0.00    -0.265 OA
BRANCH  25  27
HETATM   27  C   UNK N   1      33.703  13.490   7.794  0.00  0.00     0.111 C 
BRANCH  27  28
HETATM   28  C   UNK N   1      34.210  13.240   6.379  0.00  0.00     0.010 C 
BRANCH  28  29
HETATM   29  C   UNK N   1      33.434  14.069   5.366  0.00  0.00     0.000 C 
BRANCH  29  30
HETATM   30  C   UNK N   1      34.348  14.567   4.258  0.00  0.00     0.000 C 
BRANCH  30  31
HETATM   31  C   UNK N   1      33.536  15.045   3.066  0.00  0.00    -0.000 C 
BRANCH  31  32
HETATM   32  C   UNK N   1      33.188  16.516   3.205  0.00  0.00    -0.005 C 
HETATM   33  C   UNK N   1      31.692  16.701   3.042  0.00  0.00     0.005 C 
ENDBRANCH  31  32
ENDBRANCH  30  31
ENDBRANCH  29  30
ENDBRANCH  28  29
ENDBRANCH  27  28
ENDBRANCH  25  27
ENDBRANCH  24  25
ENDBRANCH   1  24
TORSDOF 26
ENDMDL
MODEL 6
REMARK VINA RESULT:      -4.7      2.377      3.968
REMARK  26 active torsions:
REMARK  status: ('A' for Active; 'I' for Inactive)
REMARK    1  A    between atoms: C_2  and  C_1 
REMARK    2  A    between atoms: O_4  and  C_1 
REMARK    3  A    between atoms: C_3  and  C_2 
REMARK    4  A    between atoms: C_2  and  O_6 
REMARK    5  A    between atoms: O_5  and  C_3 
REMARK    6  A    between atoms: C_32  and  O_4 
REMARK    7  A    between atoms: C_14  and  O_5 
REMARK    8  A    between atoms: C_23  and  O_6 
REMARK    9  A    between atoms: C_8  and  C_9 
REMARK   10  A    between atoms: C_9  and  C_10 
REMARK   11  A    between atoms: C_10  and  C_11 
REMARK   12  A    between atoms: C_11  and  C_12 
REMARK   13  A    between atoms: C_12  and  C_13 
REMARK   14  A    between atoms: C_13  and  C_14 
REMARK   15  A    between atoms: C_17  and  C_18 
REMARK   16  A    between atoms: C_18  and  C_19 
REMARK   17  A    between atoms: C_19  and  C_20 
REMARK   18  A    between atoms: C_20  and  C_21 
REMARK   19  A    between atoms: C_21  and  C_22 
REMARK   20  A    between atoms: C_22  and  C_23 
REMARK   21  A    between atoms: C_26  and  C_27 
REMARK   22  A    between atoms: C_27  and  C_28 
REMARK   23  A    between atoms: C_28  and  C_29 
REMARK   24  A    between atoms: C_29  and  C_30 
REMARK   25  A    between atoms: C_30  and  C_31 
REMARK   26  A    between atoms: C_31  and  C_32 
ROOT
HETATM    1  C   UNK N   1      21.160  19.490   3.823  0.00  0.00     0.180 C 
ENDROOT
BRANCH   1   2
HETATM    2  C   UNK N   1      20.125  18.561   3.196  0.00  0.00     0.213 C 
BRANCH   2   3
HETATM    3  O   UNK N   1      20.723  17.525   2.507  0.00  0.00    -0.319 OA
BRANCH   3   4
HETATM    4  C   UNK N   1      20.548  16.222   2.853  0.00  0.00     0.258 C 
HETATM    5  O   UNK N   1      19.657  15.927   3.633  0.00  0.00    -0.265 OA
BRANCH   4   6
HETATM    6  C   UNK N   1      21.432  15.133   2.296  0.00  0.00     0.111 C 
BRANCH   6   7
HETATM    7  C   UNK N   1      22.129  14.376   3.422  0.00  0.00     0.010 C 
BRANCH   7   8
HETATM    8  C   UNK N   1      23.642  14.422   3.291  0.00  0.00     0.000 C 
BRANCH   8   9
HETATM    9  C   UNK N   1      24.166  15.850   3.341  0.00  0.00     0.000 C 
BRANCH   9  10
HETATM   10  C   UNK N   1      25.529  15.889   4.016  0.00  0.00    -0.000 C 
BRANCH  10  11
HETATM   11  C   UNK N   1      25.598  14.869   5.137  0.00  0.00    -0.005 C 
HETATM   12  C   UNK N   1      25.800  15.576   6.460  0.00  0.00     0.005 C 
ENDBRANCH  10  11
ENDBRANCH   9  10
ENDBRANCH   8   9
ENDBRANCH   7   8
ENDBRANCH   6   7
ENDBRANCH   4   6
ENDBRANCH   3   4
ENDBRANCH   2   3
ENDBRANCH   1   2
BRANCH   1  13
HETATM   13  C   UNK N   1      21.934  20.184   2.687  0.00  0.00     0.213 C 
BRANCH  13  14
HETATM   14  O   UNK N   1      23.022  20.921   3.115  0.00  0.00    -0.319 OA
BRANCH  14  15
HETATM   15  C   UNK N   1      24.303  20.521   2.911  0.00  0.00     0.258 C 
HETATM   16  O   UNK N   1      24.896  20.832   1.883  0.00  0.00    -0.265 OA
BRANCH  15  17
HETATM   17  C   UNK N   1      24.987  19.690   3.953  0.00  0.00     0.111 C 
BRANCH  17  18
HETATM   18  C   UNK N   1      26.368  20.227   4.291  0.00  0.00     0.010 C 
BRANCH  18  19
HETATM   19  C   UNK N   1      26.357  20.864   5.662  0.00  0.00     0.000 C 
BRANCH  19  20
HETATM   20  C   UNK N   1      27.680  20.594   6.357  0.00  0.00     0.000 C 
BRANCH  20  21
HETATM   21  C   UNK N   1      27.842  19.122   6.704  0.00  0.00    -0.000 C 
BRANCH  21  22
HETATM   22  C   UNK N   1      28.486  18.955   8.070  0.00  0.00    -0.005 C 
HETATM   23  C   UNK N   1      28.013  17.672   8.729  0.00  0.00     0.005 C 
ENDBRANCH  21  22
ENDBRANCH  20  21
ENDBRANCH  19  20
ENDBRANCH  18  19
ENDBRANCH  17  18
ENDBRANCH  15  17
ENDBRANCH  14  15
ENDBRANCH  13  14
ENDBRANCH   1  13
BRANCH   1  24
HETATM   24  O   UNK N   1      22.026  18.722   4.585  0.00  0.00    -0.312 OA
BRANCH  24  25
HETATM   25  C   UNK N   1      21.757  18.204   5.809  0.00  0.00     0.259 C 
HETATM   26  O   UNK N   1      21.123  18.839   6.640  0.00  0.00    -0.265 OA
BRANCH  25  27
HETATM   27  C   UNK N   1      22.325  16.868   6.162  0.00  0.00     0.111 C 
BRANCH  27  28
HETATM   28  C   UNK N   1      21.269  16.019   6.860  0.00  0.00     0.010 C 
BRANCH  28  29
HETATM   29  C   UNK N   1      21.910  15.046   7.838  0.00  0.00     0.000 C 
BRANCH  29  30
HETATM   30  C   UNK N   1      20.915  13.984   8.278  0.00  0.00     0.000 C 
BRANCH  30  31
HETATM   31  C   UNK N   1      20.628  14.100   9.766  0.00  0.00    -0.000 C 
BRANCH  31  32
HETATM   32  C   UNK N   1      20.920  12.790  10.475  0.00  0.00    -0.005 C 
HETATM   33  C   UNK N   1      22.388  12.448  10.325  0.00  0.00     0.005 C 
ENDBRANCH  31  32
ENDBRANCH  30  31
ENDBRANCH  29  30
ENDBRANCH  28  29
ENDBRANCH  27  28
ENDBRANCH  25  27
ENDBRANCH  24  25
ENDBRANCH   1  24
TORSDOF 26
ENDMDL
MODEL 7
REMARK VINA RESULT:      -4.7     11.153     13.962
REMARK  26 active torsions:
REMARK  status: ('A' for Active; 'I' for Inactive)
REMARK    1  A    between atoms: C_2  and  C_1 
REMARK    2  A    between atoms: O_4  and  C_1 
REMARK    3  A    between atoms: C_3  and  C_2 
REMARK    4  A    between atoms: C_2  and  O_6 
REMARK    5  A    between atoms: O_5  and  C_3 
REMARK    6  A    between atoms: C_32  and  O_4 
REMARK    7  A    between atoms: C_14  and  O_5 
REMARK    8  A    between atoms: C_23  and  O_6 
REMARK    9  A    between atoms: C_8  and  C_9 
REMARK   10  A    between atoms: C_9  and  C_10 
REMARK   11  A    between atoms: C_10  and  C_11 
REMARK   12  A    between atoms: C_11  and  C_12 
REMARK   13  A    between atoms: C_12  and  C_13 
REMARK   14  A    between atoms: C_13  and  C_14 
REMARK   15  A    between atoms: C_17  and  C_18 
REMARK   16  A    between atoms: C_18  and  C_19 
REMARK   17  A    between atoms: C_19  and  C_20 
REMARK   18  A    between atoms: C_20  and  C_21 
REMARK   19  A    between atoms: C_21  and  C_22 
REMARK   20  A    between atoms: C_22  and  C_23 
REMARK   21  A    between atoms: C_26  and  C_27 
REMARK   22  A    between atoms: C_27  and  C_28 
REMARK   23  A    between atoms: C_28  and  C_29 
REMARK   24  A    between atoms: C_29  and  C_30 
REMARK   25  A    between atoms: C_30  and  C_31 
REMARK   26  A    between atoms: C_31  and  C_32 
ROOT
HETATM    1  C   UNK N   1      26.884  24.838  -3.592  0.00  0.00     0.180 C 
ENDROOT
BRANCH   1   2
HETATM    2  C   UNK N   1      28.250  24.197  -3.824  0.00  0.00     0.213 C 
BRANCH   2   3
HETATM    3  O   UNK N   1      28.697  23.532  -2.699  0.00  0.00    -0.319 OA
BRANCH   3   4
HETATM    4  C   UNK N   1      30.018  23.335  -2.446  0.00  0.00     0.258 C 
HETATM    5  O   UNK N   1      30.368  23.018  -1.321  0.00  0.00    -0.265 OA
BRANCH   4   6
HETATM    6  C   UNK N   1      31.060  23.500  -3.524  0.00  0.00     0.111 C 
BRANCH   6   7
HETATM    7  C   UNK N   1      31.719  22.163  -3.846  0.00  0.00     0.010 C 
BRANCH   7   8
HETATM    8  C   UNK N   1      32.838  22.307  -4.864  0.00  0.00     0.000 C 
BRANCH   8   9
HETATM    9  C   UNK N   1      34.102  21.590  -4.414  0.00  0.00     0.000 C 
BRANCH   9  10
HETATM   10  C   UNK N   1      33.759  20.229  -3.828  0.00  0.00    -0.000 C 
BRANCH  10  11
HETATM   11  C   UNK N   1      34.557  19.137  -4.515  0.00  0.00    -0.005 C 
HETATM   12  C   UNK N   1      34.142  19.037  -5.968  0.00  0.00     0.005 C 
ENDBRANCH  10  11
ENDBRANCH   9  10
ENDBRANCH   8   9
ENDBRANCH   7   8
ENDBRANCH   6   7
ENDBRANCH   4   6
ENDBRANCH   3   4
ENDBRANCH   2   3
ENDBRANCH   1   2
BRANCH   1  13
HETATM   13  C   UNK N   1      25.884  24.211  -4.579  0.00  0.00     0.213 C 
BRANCH  13  14
HETATM   14  O   UNK N   1      26.376  24.063  -5.862  0.00  0.00    -0.319 OA
BRANCH  14  15
HETATM   15  C   UNK N   1      26.150  22.953  -6.611  0.00  0.00     0.258 C 
HETATM   16  O   UNK N   1      25.118  22.305  -6.466  0.00  0.00    -0.265 OA
BRANCH  15  17
HETATM   17  C   UNK N   1      27.177  22.523  -7.613  0.00  0.00     0.111 C 
BRANCH  17  18
HETATM   18  C   UNK N   1      28.489  23.269  -7.436  0.00  0.00     0.010 C 
BRANCH  18  19
HETATM   19  C   UNK N   1      29.653  22.314  -7.576  0.00  0.00     0.000 C 
BRANCH  19  20
HETATM   20  C   UNK N   1      29.533  21.214  -6.536  0.00  0.00     0.000 C 
BRANCH  20  21
HETATM   21  C   UNK N   1      30.371  19.998  -6.903  0.00  0.00    -0.000 C 
BRANCH  21  22
HETATM   22  C   UNK N   1      29.526  18.947  -7.601  0.00  0.00    -0.005 C 
HETATM   23  C   UNK N   1      29.901  18.850  -9.069  0.00  0.00     0.005 C 
ENDBRANCH  21  22
ENDBRANCH  20  21
ENDBRANCH  19  20
ENDBRANCH  18  19
ENDBRANCH  17  18
ENDBRANCH  15  17
ENDBRANCH  14  15
ENDBRANCH  13  14
ENDBRANCH   1  13
BRANCH   1  24
HETATM   24  O   UNK N   1      26.999  26.198  -3.833  0.00  0.00    -0.312 OA
BRANCH  24  25
HETATM   25  C   UNK N   1      26.224  27.168  -3.287  0.00  0.00     0.259 C 
HETATM   26  O   UNK N   1      25.849  27.099  -2.126  0.00  0.00    -0.265 OA
BRANCH  25  27
HETATM   27  C   UNK N   1      25.762  28.290  -4.159  0.00  0.00     0.111 C 
BRANCH  27  28
HETATM   28  C   UNK N   1      26.608  29.531  -3.906  0.00  0.00     0.010 C 
BRANCH  28  29
HETATM   29  C   UNK N   1      27.575  29.777  -5.054  0.00  0.00     0.000 C 
BRANCH  29  30
HETATM   30  C   UNK N   1      27.307  28.820  -6.205  0.00  0.00     0.000 C 
BRANCH  30  31
HETATM   31  C   UNK N   1      28.445  28.856  -7.211  0.00  0.00    -0.000 C 
BRANCH  31  32
HETATM   32  C   UNK N   1      28.470  27.586  -8.043  0.00  0.00    -0.005 C 
HETATM   33  C   UNK N   1      27.172  26.829  -7.851  0.00  0.00     0.005 C 
ENDBRANCH  31  32
ENDBRANCH  30  31
ENDBRANCH  29  30
ENDBRANCH  28  29
ENDBRANCH  27  28
ENDBRANCH  25  27
ENDBRANCH  24  25
ENDBRANCH   1  24
TORSDOF 26
ENDMDL
MODEL 8
REMARK VINA RESULT:      -4.7      1.962      3.982
REMARK  26 active torsions:
REMARK  status: ('A' for Active; 'I' for Inactive)
REMARK    1  A    between atoms: C_2  and  C_1 
REMARK    2  A    between atoms: O_4  and  C_1 
REMARK    3  A    between atoms: C_3  and  C_2 
REMARK    4  A    between atoms: C_2  and  O_6 
REMARK    5  A    between atoms: O_5  and  C_3 
REMARK    6  A    between atoms: C_32  and  O_4 
REMARK    7  A    between atoms: C_14  and  O_5 
REMARK    8  A    between atoms: C_23  and  O_6 
REMARK    9  A    between atoms: C_8  and  C_9 
REMARK   10  A    between atoms: C_9  and  C_10 
REMARK   11  A    between atoms: C_10  and  C_11 
REMARK   12  A    between atoms: C_11  and  C_12 
REMARK   13  A    between atoms: C_12  and  C_13 
REMARK   14  A    between atoms: C_13  and  C_14 
REMARK   15  A    between atoms: C_17  and  C_18 
REMARK   16  A    between atoms: C_18  and  C_19 
REMARK   17  A    between atoms: C_19  and  C_20 
REMARK   18  A    between atoms: C_20  and  C_21 
REMARK   19  A    between atoms: C_21  and  C_22 
REMARK   20  A    between atoms: C_22  and  C_23 
REMARK   21  A    between atoms: C_26  and  C_27 
REMARK   22  A    between atoms: C_27  and  C_28 
REMARK   23  A    between atoms: C_28  and  C_29 
REMARK   24  A    between atoms: C_29  and  C_30 
REMARK   25  A    between atoms: C_30  and  C_31 
REMARK   26  A    between atoms: C_31  and  C_32 
ROOT
HETATM    1  C   UNK N   1      21.283  19.275   3.861  0.00  0.00     0.180 C 
ENDROOT
BRANCH   1   2
HETATM    2  C   UNK N   1      20.385  18.245   3.182  0.00  0.00     0.213 C 
BRANCH   2   3
HETATM    3  O   UNK N   1      20.450  18.341   1.806  0.00  0.00    -0.319 OA
BRANCH   3   4
HETATM    4  C   UNK N   1      20.265  17.269   0.991  0.00  0.00     0.258 C 
HETATM    5  O   UNK N   1      20.315  17.425  -0.219  0.00  0.00    -0.265 OA
BRANCH   4   6
HETATM    6  C   UNK N   1      19.997  15.893   1.547  0.00  0.00     0.111 C 
BRANCH   6   7
HETATM    7  C   UNK N   1      21.265  15.046   1.523  0.00  0.00     0.010 C 
BRANCH   7   8
HETATM    8  C   UNK N   1      21.859  14.866   2.910  0.00  0.00     0.000 C 
BRANCH   8   9
HETATM    9  C   UNK N   1      23.151  15.654   3.074  0.00  0.00     0.000 C 
BRANCH   9  10
HETATM   10  C   UNK N   1      24.253  14.756   3.615  0.00  0.00    -0.000 C 
BRANCH  10  11
HETATM   11  C   UNK N   1      23.660  13.592   4.387  0.00  0.00    -0.005 C 
HETATM   12  C   UNK N   1      24.120  13.647   5.828  0.00  0.00     0.005 C 
ENDBRANCH  10  11
ENDBRANCH   9  10
ENDBRANCH   8   9
ENDBRANCH   7   8
ENDBRANCH   6   7
ENDBRANCH   4   6
ENDBRANCH   3   4
ENDBRANCH   2   3
ENDBRANCH   1   2
BRANCH   1  13
HETATM   13  C   UNK N   1      22.131  19.963   2.776  0.00  0.00     0.213 C 
BRANCH  13  14
HETATM   14  O   UNK N   1      23.151  20.751   3.273  0.00  0.00    -0.319 OA
BRANCH  14  15
HETATM   15  C   UNK N   1      24.458  20.529   2.981  0.00  0.00     0.258 C 
HETATM   16  O   UNK N   1      24.925  20.887   1.905  0.00  0.00    -0.265 OA
BRANCH  15  17
HETATM   17  C   UNK N   1      25.327  19.836   3.986  0.00  0.00     0.111 C 
BRANCH  17  18
HETATM   18  C   UNK N   1      25.951  20.815   4.967  0.00  0.00     0.010 C 
BRANCH  18  19
HETATM   19  C   UNK N   1      27.192  20.211   5.586  0.00  0.00     0.000 C 
BRANCH  19  20
HETATM   20  C   UNK N   1      28.078  19.644   4.491  0.00  0.00     0.000 C 
BRANCH  20  21
HETATM   21  C   UNK N   1      28.671  18.300   4.887  0.00  0.00    -0.000 C 
BRANCH  21  22
HETATM   22  C   UNK N   1      28.038  17.173   4.088  0.00  0.00    -0.005 C 
HETATM   23  C   UNK N   1      27.273  16.235   5.005  0.00  0.00     0.005 C 
ENDBRANCH  21  22
ENDBRANCH  20  21
ENDBRANCH  19  20
ENDBRANCH  18  19
ENDBRANCH  17  18
ENDBRANCH  15  17
ENDBRANCH  14  15
ENDBRANCH  13  14
ENDBRANCH   1  13
BRANCH   1  24
HETATM   24  O   UNK N   1      22.106  18.609   4.754  0.00  0.00    -0.312 OA
BRANCH  24  25
HETATM   25  C   UNK N   1      21.731  18.112   5.959  0.00  0.00     0.259 C 
HETATM   26  O   UNK N   1      21.065  18.777   6.738  0.00  0.00    -0.265 OA
BRANCH  25  27
HETATM   27  C   UNK N   1      22.220  16.757   6.358  0.00  0.00     0.111 C 
BRANCH  27  28
HETATM   28  C   UNK N   1      21.039  15.821   6.582  0.00  0.00     0.010 C 
BRANCH  28  29
HETATM   29  C   UNK N   1      21.234  14.988   7.840  0.00  0.00     0.000 C 
BRANCH  29  30
HETATM   30  C   UNK N   1      20.211  15.359   8.901  0.00  0.00     0.000 C 
BRANCH  30  31
HETATM   31  C   UNK N   1      19.219  16.375   8.360  0.00  0.00    -0.000 C 
BRANCH  31  32
HETATM   32  C   UNK N   1      18.299  16.871   9.462  0.00  0.00    -0.005 C 
HETATM   33  C   UNK N   1      16.940  17.201   8.878  0.00  0.00     0.005 C 
ENDBRANCH  31  32
ENDBRANCH  30  31
ENDBRANCH  29  30
ENDBRANCH  28  29
ENDBRANCH  27  28
ENDBRANCH  25  27
ENDBRANCH  24  25
ENDBRANCH   1  24
TORSDOF 26
ENDMDL
MODEL 9
REMARK VINA RESULT:      -4.7      3.168      5.411
REMARK  26 active torsions:
REMARK  status: ('A' for Active; 'I' for Inactive)
REMARK    1  A    between atoms: C_2  and  C_1 
REMARK    2  A    between atoms: O_4  and  C_1 
REMARK    3  A    between atoms: C_3  and  C_2 
REMARK    4  A    between atoms: C_2  and  O_6 
REMARK    5  A    between atoms: O_5  and  C_3 
REMARK    6  A    between atoms: C_32  and  O_4 
REMARK    7  A    between atoms: C_14  and  O_5 
REMARK    8  A    between atoms: C_23  and  O_6 
REMARK    9  A    between atoms: C_8  and  C_9 
REMARK   10  A    between atoms: C_9  and  C_10 
REMARK   11  A    between atoms: C_10  and  C_11 
REMARK   12  A    between atoms: C_11  and  C_12 
REMARK   13  A    between atoms: C_12  and  C_13 
REMARK   14  A    between atoms: C_13  and  C_14 
REMARK   15  A    between atoms: C_17  and  C_18 
REMARK   16  A    between atoms: C_18  and  C_19 
REMARK   17  A    between atoms: C_19  and  C_20 
REMARK   18  A    between atoms: C_20  and  C_21 
REMARK   19  A    between atoms: C_21  and  C_22 
REMARK   20  A    between atoms: C_22  and  C_23 
REMARK   21  A    between atoms: C_26  and  C_27 
REMARK   22  A    between atoms: C_27  and  C_28 
REMARK   23  A    between atoms: C_28  and  C_29 
REMARK   24  A    between atoms: C_29  and  C_30 
REMARK   25  A    between atoms: C_30  and  C_31 
REMARK   26  A    between atoms: C_31  and  C_32 
ROOT
HETATM    1  C   UNK N   1      20.797  17.200   4.852  0.00  0.00     0.180 C 
ENDROOT
BRANCH   1   2
HETATM    2  C   UNK N   1      21.555  16.306   3.875  0.00  0.00     0.213 C 
BRANCH   2   3
HETATM    3  O   UNK N   1      22.641  15.702   4.477  0.00  0.00    -0.319 OA
BRANCH   3   4
HETATM    4  C   UNK N   1      23.764  15.365   3.788  0.00  0.00     0.258 C 
HETATM    5  O   UNK N   1      23.912  14.212   3.417  0.00  0.00    -0.265 OA
BRANCH   4   6
HETATM    6  C   UNK N   1      24.830  16.385   3.472  0.00  0.00     0.111 C 
BRANCH   6   7
HETATM    7  C   UNK N   1      26.110  16.083   4.245  0.00  0.00     0.010 C 
BRANCH   7   8
HETATM    8  C   UNK N   1      25.915  16.210   5.747  0.00  0.00     0.000 C 
BRANCH   8   9
HETATM    9  C   UNK N   1      27.211  16.583   6.451  0.00  0.00     0.000 C 
BRANCH   9  10
HETATM   10  C   UNK N   1      28.396  15.921   5.764  0.00  0.00    -0.000 C 
BRANCH  10  11
HETATM   11  C   UNK N   1      29.620  16.815   5.837  0.00  0.00    -0.005 C 
HETATM   12  C   UNK N   1      29.684  17.487   7.192  0.00  0.00     0.005 C 
ENDBRANCH  10  11
ENDBRANCH   9  10
ENDBRANCH   8   9
ENDBRANCH   7   8
ENDBRANCH   6   7
ENDBRANCH   4   6
ENDBRANCH   3   4
ENDBRANCH   2   3
ENDBRANCH   1   2
BRANCH   1  13
HETATM   13  C   UNK N   1      21.326  18.637   4.699  0.00  0.00     0.213 C 
BRANCH  13  14
HETATM   14  O   UNK N   1      21.945  18.884   3.488  0.00  0.00    -0.319 OA
BRANCH  14  15
HETATM   15  C   UNK N   1      22.742  19.963   3.280  0.00  0.00     0.258 C 
HETATM   16  O   UNK N   1      22.294  20.974   2.748  0.00  0.00    -0.265 OA
BRANCH  15  17
HETATM   17  C   UNK N   1      24.179  19.906   3.700  0.00  0.00     0.111 C 
BRANCH  17  18
HETATM   18  C   UNK N   1      25.106  20.454   2.627  0.00  0.00     0.010 C 
BRANCH  18  19
HETATM   19  C   UNK N   1      26.520  20.541   3.157  0.00  0.00     0.000 C 
BRANCH  19  20
HETATM   20  C   UNK N   1      26.645  19.690   4.408  0.00  0.00     0.000 C 
BRANCH  20  21
HETATM   21  C   UNK N   1      27.864  20.077   5.232  0.00  0.00    -0.000 C 
BRANCH  21  22
HETATM   22  C   UNK N   1      27.584  21.314   6.067  0.00  0.00    -0.005 C 
HETATM   23  C   UNK N   1      26.322  21.127   6.890  0.00  0.00     0.005 C 
ENDBRANCH  21  22
ENDBRANCH  20  21
ENDBRANCH  19  20
ENDBRANCH  18  19
ENDBRANCH  17  18
ENDBRANCH  15  17
ENDBRANCH  14  15
ENDBRANCH  13  14
ENDBRANCH   1  13
BRANCH   1  24
HETATM   24  O   UNK N   1      21.039  16.740   6.136  0.00  0.00    -0.312 OA
BRANCH  24  25
HETATM   25  C   UNK N   1      20.135  16.133   6.945  0.00  0.00     0.259 C 
HETATM   26  O   UNK N   1      19.274  15.395   6.489  0.00  0.00    -0.265 OA
BRANCH  25  27
HETATM   27  C   UNK N   1      20.155  16.449   8.405  0.00  0.00     0.111 C 
BRANCH  27  28
HETATM   28  C   UNK N   1      20.025  15.167   9.219  0.00  0.00     0.010 C 
BRANCH  28  29
HETATM   29  C   UNK N   1      21.366  14.460   9.342  0.00  0.00     0.000 C 
BRANCH  29  30
HETATM   30  C   UNK N   1      21.191  13.055   9.895  0.00  0.00     0.000 C 
BRANCH  30  31
HETATM   31  C   UNK N   1      22.320  12.150   9.432  0.00  0.00    -0.000 C 
BRANCH  31  32
HETATM   32  C   UNK N   1      23.447  12.129  10.449  0.00  0.00    -0.005 C 
HETATM   33  C   UNK N   1      22.867  12.037  11.846  0.00  0.00     0.005 C 
ENDBRANCH  31  32
ENDBRANCH  30  31
ENDBRANCH  29  30
ENDBRANCH  28  29
ENDBRANCH  27  28
ENDBRANCH  25  27
ENDBRANCH  24  25
ENDBRANCH   1  24
TORSDOF 26
ENDMDL
