MODEL 1
REMARK VINA RESULT:      -8.6      0.000      0.000
REMARK  1 active torsions:
REMARK  status: ('A' for Active; 'I' for Inactive)
REMARK    1  A    between atoms: C_25  and  N_29 
ROOT
HETATM    1  C   UNK N   1      26.303  15.236   5.866  0.00  0.00     0.041 C 
HETATM    2  C   UNK N   1      27.726  15.797   5.925  0.00  0.00     0.137 C 
HETATM    3  C   UNK N   1      28.221  16.186   4.514  0.00  0.00     0.079 C 
HETATM    4  C   UNK N   1      27.429  17.275   4.188  0.00  0.00     0.027 C 
HETATM    5  C   UNK N   1      26.437  17.165   3.250  0.00  0.00     0.113 C 
HETATM    6  C   UNK N   1      26.261  15.974   2.551  0.00  0.00     0.042 C 
HETATM    7  C   UNK N   1      27.243  14.994   2.629  0.00  0.00     0.016 C 
HETATM    8  C   UNK N   1      28.293  15.106   3.549  0.00  0.00     0.020 C 
HETATM    9  C   UNK N   1      29.573  14.362   3.128  0.00  0.00     0.250 C 
HETATM   10  O   UNK N   1      29.523  13.687   2.104  0.00  0.00    -0.268 OA
HETATM   11  N   UNK N   1      30.786  14.504   3.746  0.00  0.00    -0.347 N 
HETATM   12  C   UNK N   1      30.875  15.341   4.899  0.00  0.00     0.185 C 
HETATM   13  C   UNK N   1      32.183  15.678   5.545  0.00  0.00     0.058 A 
HETATM   14  C   UNK N   1      32.293  16.509   6.662  0.00  0.00     0.040 A 
HETATM   15  C   UNK N   1      33.587  16.376   7.058  0.00  0.00     0.143 A 
HETATM   16  N   UNK N   1      34.229  15.567   6.186  0.00  0.00    -0.286 N 
HETATM   17  N   UNK N   1      33.379  15.135   5.268  0.00  0.00    -0.299 N 
ATOM     18  HN  UNK N   1      33.592  14.505   4.495  1.00  0.00     0.187 HD
HETATM   19  C   UNK N   1      35.601  15.106   6.268  0.00  0.00     0.179 C 
HETATM   20  C   UNK N   1      34.113  16.908   8.279  0.00  0.00     0.120 C 
HETATM   21  N   UNK N   1      34.481  17.361   9.275  0.00  0.00    -0.190 NA
HETATM   22  C   UNK N   1      31.184  17.228   7.328  0.00  0.00    -0.003 A 
HETATM   23  C   UNK N   1      29.970  17.001   6.793  0.00  0.00     0.054 A 
HETATM   24  C   UNK N   1      28.802  17.375   7.358  0.00  0.00     0.113 A 
HETATM   25  C   UNK N   1      28.849  18.122   8.538  0.00  0.00     0.132 A 
HETATM   26  N   UNK N   1      30.070  18.414   9.090  0.00  0.00    -0.350 N 
ATOM     27  HN  UNK N   1      30.112  18.978   9.940  1.00  0.00     0.166 HD
HETATM   28  C   UNK N   1      31.238  17.963   8.523  0.00  0.00     0.102 A 
HETATM   29  O   UNK N   1      27.673  16.892   6.810  0.00  0.00    -0.341 OA
HETATM   30  C   UNK N   1      31.963  13.865   3.192  0.00  0.00     0.153 C 
HETATM   31  F   UNK N   1      25.538  18.162   3.163  0.00  0.00    -0.206 F 
ENDROOT
BRANCH  25  32
HETATM   32  N   UNK N   1      27.660  18.496   9.200  0.00  0.00    -0.383 N 
HETATM   33  H   UNK N   1      27.565  19.381   9.620  0.00  0.00     0.157 HD
HETATM   34  H   UNK N   1      26.912  17.858   9.244  0.00  0.00     0.157 HD
ENDBRANCH  25  32
TORSDOF 1
ENDMDL
MODEL 2
REMARK VINA RESULT:      -8.2      5.932      9.544
REMARK  1 active torsions:
REMARK  status: ('A' for Active; 'I' for Inactive)
REMARK    1  A    between atoms: C_25  and  N_29 
ROOT
HETATM    1  C   UNK N   1      23.325  10.994   7.843  0.00  0.00     0.041 C 
HETATM    2  C   UNK N   1      23.493  12.485   7.541  0.00  0.00     0.137 C 
HETATM    3  C   UNK N   1      23.121  13.340   8.772  0.00  0.00     0.079 C 
HETATM    4  C   UNK N   1      24.129  13.052   9.676  0.00  0.00     0.027 C 
HETATM    5  C   UNK N   1      23.882  12.278  10.780  0.00  0.00     0.113 C 
HETATM    6  C   UNK N   1      22.590  11.835  11.051  0.00  0.00     0.042 C 
HETATM    7  C   UNK N   1      21.527  12.383  10.345  0.00  0.00     0.016 C 
HETATM    8  C   UNK N   1      21.753  13.213   9.240  0.00  0.00     0.020 C 
HETATM    9  C   UNK N   1      20.614  14.211   8.965  0.00  0.00     0.250 C 
HETATM   10  O   UNK N   1      19.607  14.123   9.660  0.00  0.00    -0.268 OA
HETATM   11  N   UNK N   1      20.701  15.258   8.089  0.00  0.00    -0.347 N 
HETATM   12  C   UNK N   1      21.895  15.414   7.321  0.00  0.00     0.185 C 
HETATM   13  C   UNK N   1      22.141  16.610   6.456  0.00  0.00     0.058 A 
HETATM   14  C   UNK N   1      23.310  16.790   5.712  0.00  0.00     0.040 A 
HETATM   15  C   UNK N   1      23.043  17.858   4.914  0.00  0.00     0.143 A 
HETATM   16  N   UNK N   1      21.813  18.332   5.215  0.00  0.00    -0.286 N 
HETATM   17  N   UNK N   1      21.259  17.573   6.147  0.00  0.00    -0.299 N 
ATOM     18  HN  UNK N   1      20.331  17.696   6.554  1.00  0.00     0.187 HD
HETATM   19  C   UNK N   1      21.110  19.417   4.561  0.00  0.00     0.179 C 
HETATM   20  C   UNK N   1      23.892  18.297   3.848  0.00  0.00     0.120 C 
HETATM   21  N   UNK N   1      24.617  18.604   3.003  0.00  0.00    -0.190 NA
HETATM   22  C   UNK N   1      24.489  15.895   5.708  0.00  0.00    -0.003 A 
HETATM   23  C   UNK N   1      24.362  14.801   6.483  0.00  0.00     0.054 A 
HETATM   24  C   UNK N   1      25.211  13.752   6.470  0.00  0.00     0.113 A 
HETATM   25  C   UNK N   1      26.347  13.831   5.661  0.00  0.00     0.132 A 
HETATM   26  N   UNK N   1      26.537  14.951   4.891  0.00  0.00    -0.350 N 
ATOM     27  HN  UNK N   1      27.375  15.025   4.315  1.00  0.00     0.166 HD
HETATM   28  C   UNK N   1      25.619  15.975   4.880  0.00  0.00     0.102 A 
HETATM   29  O   UNK N   1      24.835  12.650   7.142  0.00  0.00    -0.341 OA
HETATM   30  C   UNK N   1      19.623  16.223   7.999  0.00  0.00     0.153 C 
HETATM   31  F   UNK N   1      24.937  11.814  11.474  0.00  0.00    -0.206 F 
ENDROOT
BRANCH  25  32
HETATM   32  N   UNK N   1      27.242  12.744   5.567  0.00  0.00    -0.383 N 
HETATM   33  H   UNK N   1      28.061  12.708   6.111  0.00  0.00     0.157 HD
HETATM   34  H   UNK N   1      27.042  12.008   4.946  0.00  0.00     0.157 HD
ENDBRANCH  25  32
TORSDOF 1
ENDMDL
MODEL 3
REMARK VINA RESULT:      -8.0      2.970      6.230
REMARK  1 active torsions:
REMARK  status: ('A' for Active; 'I' for Inactive)
REMARK    1  A    between atoms: C_25  and  N_29 
ROOT
HETATM    1  C   UNK N   1      33.996  18.085   8.107  0.00  0.00     0.041 C 
HETATM    2  C   UNK N   1      32.714  17.398   7.629  0.00  0.00     0.137 C 
HETATM    3  C   UNK N   1      32.952  15.889   7.400  0.00  0.00     0.079 C 
HETATM    4  C   UNK N   1      33.154  15.401   8.681  0.00  0.00     0.027 C 
HETATM    5  C   UNK N   1      34.401  15.012   9.095  0.00  0.00     0.113 C 
HETATM    6  C   UNK N   1      35.472  15.028   8.206  0.00  0.00     0.042 C 
HETATM    7  C   UNK N   1      35.221  15.197   6.850  0.00  0.00     0.016 C 
HETATM    8  C   UNK N   1      33.944  15.551   6.397  0.00  0.00     0.020 C 
HETATM    9  C   UNK N   1      33.646  15.101   4.956  0.00  0.00     0.250 C 
HETATM   10  O   UNK N   1      34.560  14.574   4.329  0.00  0.00    -0.268 OA
HETATM   11  N   UNK N   1      32.406  15.135   4.378  0.00  0.00    -0.347 N 
HETATM   12  C   UNK N   1      31.317  15.683   5.122  0.00  0.00     0.185 C 
HETATM   13  C   UNK N   1      29.903  15.622   4.635  0.00  0.00     0.058 A 
HETATM   14  C   UNK N   1      28.822  16.135   5.355  0.00  0.00     0.040 A 
HETATM   15  C   UNK N   1      27.779  16.082   4.486  0.00  0.00     0.143 A 
HETATM   16  N   UNK N   1      28.197  15.505   3.337  0.00  0.00    -0.286 N 
HETATM   17  N   UNK N   1      29.488  15.229   3.420  0.00  0.00    -0.299 N 
ATOM     18  HN  UNK N   1      30.063  14.799   2.695  1.00  0.00     0.187 HD
HETATM   19  C   UNK N   1      27.427  15.312   2.124  0.00  0.00     0.179 C 
HETATM   20  C   UNK N   1      26.498  16.673   4.729  0.00  0.00     0.120 C 
HETATM   21  N   UNK N   1      25.486  17.169   4.983  0.00  0.00    -0.190 NA
HETATM   22  C   UNK N   1      28.881  16.741   6.705  0.00  0.00    -0.003 A 
HETATM   23  C   UNK N   1      30.118  16.813   7.231  0.00  0.00     0.054 A 
HETATM   24  C   UNK N   1      30.437  17.510   8.343  0.00  0.00     0.113 A 
HETATM   25  C   UNK N   1      29.407  18.134   9.049  0.00  0.00     0.132 A 
HETATM   26  N   UNK N   1      28.124  18.045   8.570  0.00  0.00    -0.350 N 
ATOM     27  HN  UNK N   1      27.364  18.480   9.093  1.00  0.00     0.166 HD
HETATM   28  C   UNK N   1      27.842  17.381   7.400  0.00  0.00     0.102 A 
HETATM   29  O   UNK N   1      31.745  17.657   8.619  0.00  0.00    -0.341 OA
HETATM   30  C   UNK N   1      32.200  14.563   3.062  0.00  0.00     0.153 C 
HETATM   31  F   UNK N   1      34.591  14.800  10.410  0.00  0.00    -0.206 F 
ENDROOT
BRANCH  25  32
HETATM   32  N   UNK N   1      29.688  18.919  10.187  0.00  0.00    -0.383 N 
HETATM   33  H   UNK N   1      29.947  19.865  10.105  0.00  0.00     0.157 HD
HETATM   34  H   UNK N   1      29.622  18.512  11.081  0.00  0.00     0.157 HD
ENDBRANCH  25  32
TORSDOF 1
ENDMDL
MODEL 4
REMARK VINA RESULT:      -7.6     12.050     14.497
REMARK  1 active torsions:
REMARK  status: ('A' for Active; 'I' for Inactive)
REMARK    1  A    between atoms: C_25  and  N_29 
ROOT
HETATM    1  C   UNK N   1      36.334   8.459  20.145  0.00  0.00     0.041 C 
HETATM    2  C   UNK N   1      35.907   9.233  18.895  0.00  0.00     0.137 C 
HETATM    3  C   UNK N   1      34.874   8.428  18.077  0.00  0.00     0.079 C 
HETATM    4  C   UNK N   1      33.753   8.430  18.890  0.00  0.00     0.027 C 
HETATM    5  C   UNK N   1      33.358   7.293  19.544  0.00  0.00     0.113 C 
HETATM    6  C   UNK N   1      34.034   6.094  19.338  0.00  0.00     0.042 C 
HETATM    7  C   UNK N   1      34.941   6.003  18.289  0.00  0.00     0.016 C 
HETATM    8  C   UNK N   1      35.327   7.144  17.576  0.00  0.00     0.020 C 
HETATM    9  C   UNK N   1      35.786   6.854  16.135  0.00  0.00     0.250 C 
HETATM   10  O   UNK N   1      35.856   5.678  15.791  0.00  0.00    -0.268 OA
HETATM   11  N   UNK N   1      35.998   7.816  15.185  0.00  0.00    -0.347 N 
HETATM   12  C   UNK N   1      35.852   9.188  15.553  0.00  0.00     0.185 C 
HETATM   13  C   UNK N   1      35.912  10.297  14.549  0.00  0.00     0.058 A 
HETATM   14  C   UNK N   1      35.755  11.644  14.886  0.00  0.00     0.040 A 
HETATM   15  C   UNK N   1      36.095  12.318  13.755  0.00  0.00     0.143 A 
HETATM   16  N   UNK N   1      36.371  11.423  12.780  0.00  0.00    -0.286 N 
HETATM   17  N   UNK N   1      36.268  10.194  13.259  0.00  0.00    -0.299 N 
ATOM     18  HN  UNK N   1      36.429   9.329  12.744  1.00  0.00     0.187 HD
HETATM   19  C   UNK N   1      36.839  11.710  11.438  0.00  0.00     0.179 C 
HETATM   20  C   UNK N   1      36.256  13.739  13.685  0.00  0.00     0.120 C 
HETATM   21  N   UNK N   1      36.371  14.888  13.688  0.00  0.00    -0.190 NA
HETATM   22  C   UNK N   1      35.443  12.176  16.231  0.00  0.00    -0.003 A 
HETATM   23  C   UNK N   1      35.346  11.240  17.194  0.00  0.00     0.054 A 
HETATM   24  C   UNK N   1      35.282  11.507  18.516  0.00  0.00     0.113 A 
HETATM   25  C   UNK N   1      35.228  12.843  18.919  0.00  0.00     0.132 A 
HETATM   26  N   UNK N   1      35.277  13.827  17.963  0.00  0.00    -0.350 N 
ATOM     27  HN  UNK N   1      35.215  14.804  18.249  1.00  0.00     0.166 HD
HETATM   28  C   UNK N   1      35.407  13.522  16.629  0.00  0.00     0.102 A 
HETATM   29  O   UNK N   1      35.402  10.465  19.358  0.00  0.00    -0.341 OA
HETATM   30  C   UNK N   1      36.297   7.435  13.819  0.00  0.00     0.153 C 
HETATM   31  F   UNK N   1      32.433   7.412  20.514  0.00  0.00    -0.206 F 
ENDROOT
BRANCH  25  32
HETATM   32  N   UNK N   1      35.212  13.182  20.288  0.00  0.00    -0.383 N 
HETATM   33  H   UNK N   1      35.966  12.958  20.879  0.00  0.00     0.157 HD
HETATM   34  H   UNK N   1      34.431  13.653  20.659  0.00  0.00     0.157 HD
ENDBRANCH  25  32
TORSDOF 1
ENDMDL
MODEL 5
REMARK VINA RESULT:      -7.6     12.459     14.209
REMARK  1 active torsions:
REMARK  status: ('A' for Active; 'I' for Inactive)
REMARK    1  A    between atoms: C_25  and  N_29 
ROOT
HETATM    1  C   UNK N   1      25.591  21.099  -8.991  0.00  0.00     0.041 C 
HETATM    2  C   UNK N   1      26.783  21.607  -8.177  0.00  0.00     0.137 C 
HETATM    3  C   UNK N   1      27.987  21.910  -9.097  0.00  0.00     0.079 C 
HETATM    4  C   UNK N   1      27.564  23.011  -9.822  0.00  0.00     0.027 C 
HETATM    5  C   UNK N   1      27.236  22.895 -11.148  0.00  0.00     0.113 C 
HETATM    6  C   UNK N   1      27.399  21.680 -11.806  0.00  0.00     0.042 C 
HETATM    7  C   UNK N   1      28.123  20.668 -11.187  0.00  0.00     0.016 C 
HETATM    8  C   UNK N   1      28.509  20.783  -9.846  0.00  0.00     0.020 C 
HETATM    9  C   UNK N   1      29.767  19.971  -9.487  0.00  0.00     0.250 C 
HETATM   10  O   UNK N   1      30.242  19.251 -10.359  0.00  0.00    -0.268 OA
HETATM   11  N   UNK N   1      30.455  20.096  -8.311  0.00  0.00    -0.347 N 
HETATM   12  C   UNK N   1      29.951  20.983  -7.311  0.00  0.00     0.185 C 
HETATM   13  C   UNK N   1      30.715  21.300  -6.063  0.00  0.00     0.058 A 
HETATM   14  C   UNK N   1      30.248  22.178  -5.082  0.00  0.00     0.040 A 
HETATM   15  C   UNK N   1      31.109  22.014  -4.043  0.00  0.00     0.143 A 
HETATM   16  N   UNK N   1      32.074  21.141  -4.409  0.00  0.00    -0.286 N 
HETATM   17  N   UNK N   1      31.835  20.699  -5.633  0.00  0.00    -0.299 N 
ATOM     18  HN  UNK N   1      32.398  20.025  -6.153  1.00  0.00     0.187 HD
HETATM   19  C   UNK N   1      33.151  20.633  -3.583  0.00  0.00     0.179 C 
HETATM   20  C   UNK N   1      30.917  22.583  -2.743  0.00  0.00     0.120 C 
HETATM   21  N   UNK N   1      30.710  23.069  -1.716  0.00  0.00    -0.190 NA
HETATM   22  C   UNK N   1      28.999  22.970  -5.142  0.00  0.00    -0.003 A 
HETATM   23  C   UNK N   1      28.260  22.764  -6.249  0.00  0.00     0.054 A 
HETATM   24  C   UNK N   1      26.997  23.209  -6.419  0.00  0.00     0.113 A 
HETATM   25  C   UNK N   1      26.438  24.009  -5.419  0.00  0.00     0.132 A 
HETATM   26  N   UNK N   1      27.178  24.280  -4.295  0.00  0.00    -0.350 N 
ATOM     27  HN  UNK N   1      26.784  24.881  -3.571  1.00  0.00     0.166 HD
HETATM   28  C   UNK N   1      28.438  23.758  -4.125  0.00  0.00     0.102 A 
HETATM   29  O   UNK N   1      26.321  22.745  -7.484  0.00  0.00    -0.341 OA
HETATM   30  C   UNK N   1      31.705  19.387  -8.121  0.00  0.00     0.153 C 
HETATM   31  F   UNK N   1      26.588  23.920 -11.729  0.00  0.00    -0.206 F 
ENDROOT
BRANCH  25  32
HETATM   32  N   UNK N   1      25.104  24.458  -5.518  0.00  0.00    -0.383 N 
HETATM   33  H   UNK N   1      24.777  25.212  -4.976  0.00  0.00     0.157 HD
HETATM   34  H   UNK N   1      24.489  24.009  -6.142  0.00  0.00     0.157 HD
ENDBRANCH  25  32
TORSDOF 1
ENDMDL
MODEL 6
REMARK VINA RESULT:      -7.6     12.932     15.418
REMARK  1 active torsions:
REMARK  status: ('A' for Active; 'I' for Inactive)
REMARK    1  A    between atoms: C_25  and  N_29 
ROOT
HETATM    1  C   UNK N   1      27.423  27.365  -8.070  0.00  0.00     0.041 C 
HETATM    2  C   UNK N   1      27.609  25.930  -7.571  0.00  0.00     0.137 C 
HETATM    3  C   UNK N   1      27.239  25.818  -6.075  0.00  0.00     0.079 C 
HETATM    4  C   UNK N   1      25.868  26.014  -6.071  0.00  0.00     0.027 C 
HETATM    5  C   UNK N   1      25.327  27.178  -5.589  0.00  0.00     0.113 C 
HETATM    6  C   UNK N   1      26.146  28.149  -5.022  0.00  0.00     0.042 C 
HETATM    7  C   UNK N   1      27.465  27.830  -4.723  0.00  0.00     0.016 C 
HETATM    8  C   UNK N   1      28.028  26.627  -5.166  0.00  0.00     0.020 C 
HETATM    9  C   UNK N   1      29.188  26.121  -4.290  0.00  0.00     0.250 C 
HETATM   10  O   UNK N   1      29.558  26.845  -3.370  0.00  0.00    -0.268 OA
HETATM   11  N   UNK N   1      29.743  24.875  -4.390  0.00  0.00    -0.347 N 
HETATM   12  C   UNK N   1      29.275  23.995  -5.413  0.00  0.00     0.185 C 
HETATM   13  C   UNK N   1      29.711  22.566  -5.502  0.00  0.00     0.058 A 
HETATM   14  C   UNK N   1      29.251  21.684  -6.483  0.00  0.00     0.040 A 
HETATM   15  C   UNK N   1      30.041  20.586  -6.350  0.00  0.00     0.143 A 
HETATM   16  N   UNK N   1      30.877  20.774  -5.304  0.00  0.00    -0.286 N 
HETATM   17  N   UNK N   1      30.685  21.977  -4.790  0.00  0.00    -0.299 N 
ATOM     18  HN  UNK N   1      31.185  22.384  -3.999  1.00  0.00     0.187 HD
HETATM   19  C   UNK N   1      31.928  19.883  -4.855  0.00  0.00     0.179 C 
HETATM   20  C   UNK N   1      30.053  19.488  -7.269  0.00  0.00     0.120 C 
HETATM   21  N   UNK N   1      30.017  18.631  -8.042  0.00  0.00    -0.190 NA
HETATM   22  C   UNK N   1      28.237  21.983  -7.519  0.00  0.00    -0.003 A 
HETATM   23  C   UNK N   1      27.770  23.246  -7.496  0.00  0.00     0.054 A 
HETATM   24  C   UNK N   1      27.009  23.798  -8.465  0.00  0.00     0.113 A 
HETATM   25  C   UNK N   1      26.604  22.989  -9.529  0.00  0.00     0.132 A 
HETATM   26  N   UNK N   1      27.022  21.682  -9.565  0.00  0.00    -0.350 N 
ATOM     27  HN  UNK N   1      26.712  21.080 -10.328  1.00  0.00     0.166 HD
HETATM   28  C   UNK N   1      27.849  21.169  -8.595  0.00  0.00     0.102 A 
HETATM   29  O   UNK N   1      26.801  25.125  -8.399  0.00  0.00    -0.341 OA
HETATM   30  C   UNK N   1      30.740  24.443  -3.431  0.00  0.00     0.153 C 
HETATM   31  F   UNK N   1      24.030  27.424  -5.848  0.00  0.00    -0.206 F 
ENDROOT
BRANCH  25  32
HETATM   32  N   UNK N   1      25.853  23.525 -10.596  0.00  0.00    -0.383 N 
HETATM   33  H   UNK N   1      26.244  23.635 -11.492  0.00  0.00     0.157 HD
HETATM   34  H   UNK N   1      24.919  23.795 -10.440  0.00  0.00     0.157 HD
ENDBRANCH  25  32
TORSDOF 1
ENDMDL
MODEL 7
REMARK VINA RESULT:      -7.6     12.304     14.520
REMARK  1 active torsions:
REMARK  status: ('A' for Active; 'I' for Inactive)
REMARK    1  A    between atoms: C_25  and  N_29 
ROOT
HETATM    1  C   UNK N   1      32.609  20.307  -9.941  0.00  0.00     0.041 C 
HETATM    2  C   UNK N   1      31.779  20.507  -8.671  0.00  0.00     0.137 C 
HETATM    3  C   UNK N   1      30.316  20.067  -8.896  0.00  0.00     0.079 C 
HETATM    4  C   UNK N   1      30.414  18.693  -9.036  0.00  0.00     0.027 C 
HETATM    5  C   UNK N   1      30.243  18.098 -10.258  0.00  0.00     0.113 C 
HETATM    6  C   UNK N   1      29.886  18.861 -11.366  0.00  0.00     0.042 C 
HETATM    7  C   UNK N   1      29.466  20.171 -11.176  0.00  0.00     0.016 C 
HETATM    8  C   UNK N   1      29.590  20.788  -9.925  0.00  0.00     0.020 C 
HETATM    9  C   UNK N   1      28.572  21.917  -9.682  0.00  0.00     0.250 C 
HETATM   10  O   UNK N   1      27.834  22.221 -10.614  0.00  0.00    -0.268 OA
HETATM   11  N   UNK N   1      28.354  22.510  -8.469  0.00  0.00    -0.347 N 
HETATM   12  C   UNK N   1      29.160  22.117  -7.357  0.00  0.00     0.185 C 
HETATM   13  C   UNK N   1      28.892  22.597  -5.964  0.00  0.00     0.058 A 
HETATM   14  C   UNK N   1      29.657  22.210  -4.861  0.00  0.00     0.040 A 
HETATM   15  C   UNK N   1      29.237  23.022  -3.856  0.00  0.00     0.143 A 
HETATM   16  N   UNK N   1      28.231  23.800  -4.314  0.00  0.00    -0.286 N 
HETATM   17  N   UNK N   1      28.022  23.550  -5.596  0.00  0.00    -0.299 N 
ATOM     18  HN  UNK N   1      27.328  23.999  -6.195  1.00  0.00     0.187 HD
HETATM   19  C   UNK N   1      27.541  24.851  -3.594  0.00  0.00     0.179 C 
HETATM   20  C   UNK N   1      29.870  23.108  -2.575  0.00  0.00     0.120 C 
HETATM   21  N   UNK N   1      30.422  23.134  -1.560  0.00  0.00    -0.190 NA
HETATM   22  C   UNK N   1      30.776  21.240  -4.872  0.00  0.00    -0.003 A 
HETATM   23  C   UNK N   1      31.068  20.738  -6.086  0.00  0.00     0.054 A 
HETATM   24  C   UNK N   1      32.171  20.011  -6.368  0.00  0.00     0.113 A 
HETATM   25  C   UNK N   1      33.031  19.682  -5.317  0.00  0.00     0.132 A 
HETATM   26  N   UNK N   1      32.742  20.136  -4.055  0.00  0.00    -0.350 N 
ATOM     27  HN  UNK N   1      33.354  19.880  -3.280  1.00  0.00     0.166 HD
HETATM   28  C   UNK N   1      31.645  20.928  -3.814  0.00  0.00     0.102 A 
HETATM   29  O   UNK N   1      32.428  19.764  -7.664  0.00  0.00    -0.341 OA
HETATM   30  C   UNK N   1      27.279  23.470  -8.311  0.00  0.00     0.153 C 
HETATM   31  F   UNK N   1      30.606  16.809 -10.388  0.00  0.00    -0.206 F 
ENDROOT
BRANCH  25  32
HETATM   32  N   UNK N   1      34.224  18.969  -5.561  0.00  0.00    -0.383 N 
HETATM   33  H   UNK N   1      34.908  18.862  -4.861  0.00  0.00     0.157 HD
HETATM   34  H   UNK N   1      34.376  18.571  -6.448  0.00  0.00     0.157 HD
ENDBRANCH  25  32
TORSDOF 1
ENDMDL
MODEL 8
REMARK VINA RESULT:      -7.5     12.109     14.413
REMARK  1 active torsions:
REMARK  status: ('A' for Active; 'I' for Inactive)
REMARK    1  A    between atoms: C_25  and  N_29 
ROOT
HETATM    1  C   UNK N   1      33.702  23.406  -5.304  0.00  0.00     0.041 C 
HETATM    2  C   UNK N   1      32.173  23.383  -5.234  0.00  0.00     0.137 C 
HETATM    3  C   UNK N   1      31.662  21.979  -4.841  0.00  0.00     0.079 C 
HETATM    4  C   UNK N   1      32.074  21.847  -3.526  0.00  0.00     0.027 C 
HETATM    5  C   UNK N   1      33.103  21.004  -3.194  0.00  0.00     0.113 C 
HETATM    6  C   UNK N   1      33.697  20.206  -4.166  0.00  0.00     0.042 C 
HETATM    7  C   UNK N   1      33.084  20.085  -5.407  0.00  0.00     0.016 C 
HETATM    8  C   UNK N   1      32.003  20.905  -5.754  0.00  0.00     0.020 C 
HETATM    9  C   UNK N   1      31.062  20.285  -6.803  0.00  0.00     0.250 C 
HETATM   10  O   UNK N   1      31.389  19.207  -7.289  0.00  0.00    -0.268 OA
HETATM   11  N   UNK N   1      29.835  20.792  -7.133  0.00  0.00    -0.347 N 
HETATM   12  C   UNK N   1      29.410  22.012  -6.524  0.00  0.00     0.185 C 
HETATM   13  C   UNK N   1      28.028  22.559  -6.705  0.00  0.00     0.058 A 
HETATM   14  C   UNK N   1      27.587  23.741  -6.104  0.00  0.00     0.040 A 
HETATM   15  C   UNK N   1      26.387  23.992  -6.690  0.00  0.00     0.143 A 
HETATM   16  N   UNK N   1      26.096  22.982  -7.539  0.00  0.00    -0.286 N 
HETATM   17  N   UNK N   1      27.092  22.112  -7.557  0.00  0.00    -0.299 N 
ATOM     18  HN  UNK N   1      27.142  21.260  -8.116  1.00  0.00     0.187 HD
HETATM   19  C   UNK N   1      24.946  22.881  -8.416  0.00  0.00     0.179 C 
HETATM   20  C   UNK N   1      25.645  25.204  -6.514  0.00  0.00     0.120 C 
HETATM   21  N   UNK N   1      25.091  26.201  -6.334  0.00  0.00    -0.190 NA
HETATM   22  C   UNK N   1      28.361  24.583  -5.164  0.00  0.00    -0.003 A 
HETATM   23  C   UNK N   1      29.612  24.148  -4.924  0.00  0.00     0.054 A 
HETATM   24  C   UNK N   1      30.559  24.861  -4.277  0.00  0.00     0.113 A 
HETATM   25  C   UNK N   1      30.202  26.101  -3.743  0.00  0.00     0.132 A 
HETATM   26  N   UNK N   1      28.922  26.559  -3.927  0.00  0.00    -0.350 N 
ATOM     27  HN  UNK N   1      28.649  27.455  -3.521  1.00  0.00     0.166 HD
HETATM   28  C   UNK N   1      28.000  25.837  -4.646  0.00  0.00     0.102 A 
HETATM   29  O   UNK N   1      31.814  24.379  -4.303  0.00  0.00    -0.341 OA
HETATM   30  C   UNK N   1      28.964  20.063  -8.033  0.00  0.00     0.153 C 
HETATM   31  F   UNK N   1      33.631  21.110  -1.961  0.00  0.00    -0.206 F 
ENDROOT
BRANCH  25  32
HETATM   32  N   UNK N   1      31.163  26.913  -3.103  0.00  0.00    -0.383 N 
HETATM   33  H   UNK N   1      31.893  27.337  -3.609  0.00  0.00     0.157 HD
HETATM   34  H   UNK N   1      31.101  27.057  -2.132  0.00  0.00     0.157 HD
ENDBRANCH  25  32
TORSDOF 1
ENDMDL
MODEL 9
REMARK VINA RESULT:      -7.5      2.894      7.424
REMARK  1 active torsions:
REMARK  status: ('A' for Active; 'I' for Inactive)
REMARK    1  A    between atoms: C_25  and  N_29 
ROOT
HETATM    1  C   UNK N   1      32.215  14.647   7.672  0.00  0.00     0.041 C 
HETATM    2  C   UNK N   1      31.225  15.292   6.698  0.00  0.00     0.137 C 
HETATM    3  C   UNK N   1      31.398  16.827   6.677  0.00  0.00     0.079 C 
HETATM    4  C   UNK N   1      32.637  16.999   6.081  0.00  0.00     0.027 C 
HETATM    5  C   UNK N   1      33.720  17.402   6.819  0.00  0.00     0.113 C 
HETATM    6  C   UNK N   1      33.572  17.721   8.165  0.00  0.00     0.042 C 
HETATM    7  C   UNK N   1      32.293  17.869   8.688  0.00  0.00     0.016 C 
HETATM    8  C   UNK N   1      31.167  17.507   7.937  0.00  0.00     0.020 C 
HETATM    9  C   UNK N   1      29.887  18.268   8.326  0.00  0.00     0.250 C 
HETATM   10  O   UNK N   1      29.951  19.027   9.287  0.00  0.00    -0.268 OA
HETATM   11  N   UNK N   1      28.728  18.248   7.599  0.00  0.00    -0.347 N 
HETATM   12  C   UNK N   1      28.660  17.420   6.437  0.00  0.00     0.185 C 
HETATM   13  C   UNK N   1      27.494  17.451   5.499  0.00  0.00     0.058 A 
HETATM   14  C   UNK N   1      27.417  16.663   4.348  0.00  0.00     0.040 A 
HETATM   15  C   UNK N   1      26.138  16.821   3.914  0.00  0.00     0.143 A 
HETATM   16  N   UNK N   1      25.510  17.707   4.719  0.00  0.00    -0.286 N 
HETATM   17  N   UNK N   1      26.328  18.088   5.687  0.00  0.00    -0.299 N 
ATOM     18  HN  UNK N   1      26.112  18.743   6.439  1.00  0.00     0.187 HD
HETATM   19  C   UNK N   1      24.120  18.112   4.656  0.00  0.00     0.179 C 
HETATM   20  C   UNK N   1      25.548  16.056   2.858  0.00  0.00     0.120 C 
HETATM   21  N   UNK N   1      25.126  15.409   1.999  0.00  0.00    -0.190 NA
HETATM   22  C   UNK N   1      28.467  15.751   3.842  0.00  0.00    -0.003 A 
HETATM   23  C   UNK N   1      29.566  15.681   4.616  0.00  0.00     0.054 A 
HETATM   24  C   UNK N   1      30.549  14.767   4.469  0.00  0.00     0.113 A 
HETATM   25  C   UNK N   1      30.471  13.881   3.392  0.00  0.00     0.132 A 
HETATM   26  N   UNK N   1      29.388  13.951   2.552  0.00  0.00    -0.350 N 
ATOM     27  HN  UNK N   1      29.336  13.322   1.751  1.00  0.00     0.166 HD
HETATM   28  C   UNK N   1      28.373  14.852   2.768  0.00  0.00     0.102 A 
HETATM   29  O   UNK N   1      31.470  14.694   5.446  0.00  0.00    -0.341 OA
HETATM   30  C   UNK N   1      27.620  19.104   7.973  0.00  0.00     0.153 C 
HETATM   31  F   UNK N   1      34.938  17.299   6.257  0.00  0.00    -0.206 F 
ENDROOT
BRANCH  25  32
HETATM   32  N   UNK N   1      31.441  12.871   3.218  0.00  0.00    -0.383 N 
HETATM   33  H   UNK N   1      32.083  12.650   3.931  0.00  0.00     0.157 HD
HETATM   34  H   UNK N   1      31.477  12.379   2.367  0.00  0.00     0.157 HD
ENDBRANCH  25  32
TORSDOF 1
ENDMDL
