MODEL 1
REMARK VINA RESULT:      -7.3      0.000      0.000
REMARK  7 active torsions:
REMARK  status: ('A' for Active; 'I' for Inactive)
REMARK    1  A    between atoms: C_6  and  C_5 
REMARK    2  A    between atoms: O_24  and  C_5 
REMARK    3  A    between atoms: O_28  and  C_6 
REMARK    4  A    between atoms: C_19  and  C_13 
REMARK    5  A    between atoms: O_26  and  C_14 
REMARK    6  A    between atoms: O_27  and  C_16 
REMARK    7  A    between atoms: O_28  and  C_18 
ROOT
HETATM    1  C   UNK N   1      22.940  17.910   5.324  0.00  0.00     0.067 A 
HETATM    2  C   UNK N   1      21.509  19.143   3.831  0.00  0.00     0.074 A 
HETATM    3  C   UNK N   1      21.663  18.226   4.880  0.00  0.00     0.073 A 
HETATM    4  C   UNK N   1      24.060  18.494   4.742  0.00  0.00     0.055 A 
HETATM    5  C   UNK N   1      22.615  19.739   3.211  0.00  0.00     0.088 A 
HETATM    6  C   UNK N   1      23.932  19.423   3.681  0.00  0.00     0.092 A 
HETATM    7  C   UNK N   1      26.413  18.720   4.728  0.00  0.00     0.118 A 
HETATM    8  C   UNK N   1      25.132  19.998   3.181  0.00  0.00     0.262 A 
HETATM    9  N   UNK N   1      25.279  18.176   5.230  0.00  0.00    -0.341 N 
HETATM   10  N   UNK N   1      26.339  19.623   3.719  0.00  0.00    -0.308 N 
ATOM     11  HN  UNK N   1      27.198  20.033   3.351  1.00  0.00     0.170 HD
HETATM   12  O   UNK N   1      25.120  20.844   2.312  0.00  0.00    -0.267 OA
HETATM   13  H   UNK N   1      25.345  17.532   5.971  0.00  0.00     0.167 HD
ENDROOT
BRANCH   7  14
HETATM   14  C   UNK N   1      27.696  18.424   5.382  0.00  0.00     0.009 A 
HETATM   15  C   UNK N   1      27.820  18.410   6.773  0.00  0.00     0.024 A 
HETATM   16  C   UNK N   1      29.006  17.968   7.369  0.00  0.00    -0.027 A 
HETATM   17  C   UNK N   1      29.097  17.938   8.857  0.00  0.00     0.051 C 
HETATM   18  C   UNK N   1      30.072  17.498   6.574  0.00  0.00     0.080 A 
HETATM   19  C   UNK N   1      29.951  17.563   5.159  0.00  0.00    -0.027 A 
HETATM   20  C   UNK N   1      31.031  17.141   4.222  0.00  0.00     0.051 C 
HETATM   21  C   UNK N   1      28.771  18.023   4.591  0.00  0.00     0.024 A 
BRANCH  18  22
HETATM   22  O   UNK N   1      31.164  16.979   7.199  0.00  0.00    -0.348 OA
BRANCH  22  23
HETATM   23  C   UNK N   1      32.287  17.712   7.522  0.00  0.00     0.201 C 
BRANCH  23  24
HETATM   24  C   UNK N   1      33.537  17.061   6.967  0.00  0.00     0.190 C 
BRANCH  24  25
HETATM   25  O   UNK N   1      34.188  17.937   6.100  0.00  0.00    -0.399 OA
HETATM   26  H   UNK N   1      34.088  18.653   5.454  0.00  0.00     0.209 HD
ENDBRANCH  24  25
ENDBRANCH  23  24
ENDBRANCH  22  23
ENDBRANCH  18  22
ENDBRANCH   7  14
BRANCH   3  27
HETATM   27  O   UNK N   1      20.602  17.627   5.469  0.00  0.00    -0.356 OA
HETATM   28  C   UNK N   1      20.674  16.983   6.683  0.00  0.00     0.210 C 
ENDBRANCH   3  27
BRANCH   5  29
HETATM   29  O   UNK N   1      22.359  20.587   2.188  0.00  0.00    -0.355 OA
HETATM   30  C   UNK N   1      21.124  20.689   1.592  0.00  0.00     0.210 C 
ENDBRANCH   5  29
TORSDOF 7
ENDMDL
MODEL 2
REMARK VINA RESULT:      -7.2      9.068     12.495
REMARK  7 active torsions:
REMARK  status: ('A' for Active; 'I' for Inactive)
REMARK    1  A    between atoms: C_6  and  C_5 
REMARK    2  A    between atoms: O_24  and  C_5 
REMARK    3  A    between atoms: O_28  and  C_6 
REMARK    4  A    between atoms: C_19  and  C_13 
REMARK    5  A    between atoms: O_26  and  C_14 
REMARK    6  A    between atoms: O_27  and  C_16 
REMARK    7  A    between atoms: O_28  and  C_18 
ROOT
HETATM    1  C   UNK N   1      33.509  13.286   8.730  0.00  0.00     0.067 A 
HETATM    2  C   UNK N   1      33.291  15.038   7.093  0.00  0.00     0.074 A 
HETATM    3  C   UNK N   1      33.052  13.715   7.492  0.00  0.00     0.073 A 
HETATM    4  C   UNK N   1      34.195  14.153   9.575  0.00  0.00     0.055 A 
HETATM    5  C   UNK N   1      33.993  15.933   7.911  0.00  0.00     0.088 A 
HETATM    6  C   UNK N   1      34.450  15.493   9.196  0.00  0.00     0.092 A 
HETATM    7  C   UNK N   1      35.247  14.486  11.665  0.00  0.00     0.118 A 
HETATM    8  C   UNK N   1      35.122  16.312  10.144  0.00  0.00     0.262 A 
HETATM    9  N   UNK N   1      34.593  13.695  10.782  0.00  0.00    -0.341 N 
HETATM   10  N   UNK N   1      35.504  15.780  11.351  0.00  0.00    -0.308 N 
ATOM     11  HN  UNK N   1      35.993  16.371  12.024  1.00  0.00     0.170 HD
HETATM   12  O   UNK N   1      35.334  17.488   9.933  0.00  0.00    -0.267 OA
HETATM   13  H   UNK N   1      34.400  12.761  11.027  0.00  0.00     0.167 HD
ENDROOT
BRANCH   7  14
HETATM   14  C   UNK N   1      35.545  13.963  13.006  0.00  0.00     0.009 A 
HETATM   15  C   UNK N   1      36.362  14.662  13.898  0.00  0.00     0.024 A 
HETATM   16  C   UNK N   1      36.498  14.223  15.220  0.00  0.00    -0.027 A 
HETATM   17  C   UNK N   1      37.353  15.008  16.154  0.00  0.00     0.051 C 
HETATM   18  C   UNK N   1      35.784  13.095  15.673  0.00  0.00     0.080 A 
HETATM   19  C   UNK N   1      34.995  12.364  14.743  0.00  0.00    -0.027 A 
HETATM   20  C   UNK N   1      34.239  11.129  15.099  0.00  0.00     0.051 C 
HETATM   21  C   UNK N   1      34.891  12.808  13.432  0.00  0.00     0.024 A 
BRANCH  18  22
HETATM   22  O   UNK N   1      35.864  12.767  16.992  0.00  0.00    -0.348 OA
BRANCH  22  23
HETATM   23  C   UNK N   1      35.064  13.316  17.973  0.00  0.00     0.201 C 
BRANCH  23  24
HETATM   24  C   UNK N   1      35.303  12.642  19.307  0.00  0.00     0.190 C 
BRANCH  24  25
HETATM   25  O   UNK N   1      34.735  13.396  20.333  0.00  0.00    -0.399 OA
HETATM   26  H   UNK N   1      34.164  14.146  20.560  0.00  0.00     0.209 HD
ENDBRANCH  24  25
ENDBRANCH  23  24
ENDBRANCH  22  23
ENDBRANCH  18  22
ENDBRANCH   7  14
BRANCH   3  27
HETATM   27  O   UNK N   1      32.396  12.836   6.699  0.00  0.00    -0.356 OA
HETATM   28  C   UNK N   1      33.023  12.057   5.754  0.00  0.00     0.210 C 
ENDBRANCH   3  27
BRANCH   5  29
HETATM   29  O   UNK N   1      34.198  17.178   7.419  0.00  0.00    -0.355 OA
HETATM   30  C   UNK N   1      33.708  17.592   6.203  0.00  0.00     0.210 C 
ENDBRANCH   5  29
TORSDOF 7
ENDMDL
MODEL 3
REMARK VINA RESULT:      -7.0      3.948      7.103
REMARK  7 active torsions:
REMARK  status: ('A' for Active; 'I' for Inactive)
REMARK    1  A    between atoms: C_6  and  C_5 
REMARK    2  A    between atoms: O_24  and  C_5 
REMARK    3  A    between atoms: O_28  and  C_6 
REMARK    4  A    between atoms: C_19  and  C_13 
REMARK    5  A    between atoms: O_26  and  C_14 
REMARK    6  A    between atoms: O_27  and  C_16 
REMARK    7  A    between atoms: O_28  and  C_18 
ROOT
HETATM    1  C   UNK N   1      24.781  18.917   4.407  0.00  0.00     0.067 A 
HETATM    2  C   UNK N   1      23.686  20.467   2.926  0.00  0.00     0.074 A 
HETATM    3  C   UNK N   1      24.859  19.982   3.521  0.00  0.00     0.073 A 
HETATM    4  C   UNK N   1      23.557  18.328   4.705  0.00  0.00     0.055 A 
HETATM    5  C   UNK N   1      22.434  19.908   3.216  0.00  0.00     0.088 A 
HETATM    6  C   UNK N   1      22.358  18.798   4.118  0.00  0.00     0.092 A 
HETATM    7  C   UNK N   1      22.387  16.636   5.872  0.00  0.00     0.118 A 
HETATM    8  C   UNK N   1      21.163  18.104   4.453  0.00  0.00     0.262 A 
HETATM    9  N   UNK N   1      23.538  17.274   5.551  0.00  0.00    -0.341 N 
HETATM   10  N   UNK N   1      21.215  17.045   5.326  0.00  0.00    -0.308 N 
ATOM     11  HN  UNK N   1      20.353  16.555   5.568  1.00  0.00     0.170 HD
HETATM   12  O   UNK N   1      20.095  18.397   3.958  0.00  0.00    -0.267 OA
HETATM   13  H   UNK N   1      24.385  16.960   5.943  0.00  0.00     0.167 HD
ENDROOT
BRANCH   7  14
HETATM   14  C   UNK N   1      22.451  15.425   6.701  0.00  0.00     0.009 A 
HETATM   15  C   UNK N   1      23.498  14.509   6.576  0.00  0.00     0.024 A 
HETATM   16  C   UNK N   1      23.621  13.452   7.485  0.00  0.00    -0.027 A 
HETATM   17  C   UNK N   1      24.766  12.509   7.342  0.00  0.00     0.051 C 
HETATM   18  C   UNK N   1      22.713  13.323   8.556  0.00  0.00     0.080 A 
HETATM   19  C   UNK N   1      21.624  14.233   8.643  0.00  0.00    -0.027 A 
HETATM   20  C   UNK N   1      20.576  14.161   9.702  0.00  0.00     0.051 C 
HETATM   21  C   UNK N   1      21.512  15.262   7.718  0.00  0.00     0.024 A 
BRANCH  18  22
HETATM   22  O   UNK N   1      22.933  12.343   9.475  0.00  0.00    -0.348 OA
BRANCH  22  23
HETATM   23  C   UNK N   1      23.730  12.498  10.590  0.00  0.00     0.201 C 
BRANCH  23  24
HETATM   24  C   UNK N   1      23.027  11.990  11.832  0.00  0.00     0.190 C 
BRANCH  24  25
HETATM   25  O   UNK N   1      23.781  12.290  12.965  0.00  0.00    -0.399 OA
HETATM   26  H   UNK N   1      24.590  12.104  13.467  0.00  0.00     0.209 HD
ENDBRANCH  24  25
ENDBRANCH  23  24
ENDBRANCH  22  23
ENDBRANCH  18  22
ENDBRANCH   7  14
BRANCH   3  27
HETATM   27  O   UNK N   1      26.070  20.531   3.266  0.00  0.00    -0.356 OA
HETATM   28  C   UNK N   1      27.157  20.382   4.096  0.00  0.00     0.210 C 
ENDBRANCH   3  27
BRANCH   5  29
HETATM   29  O   UNK N   1      21.360  20.470   2.612  0.00  0.00    -0.355 OA
HETATM   30  C   UNK N   1      21.131  20.381   1.259  0.00  0.00     0.210 C 
ENDBRANCH   5  29
TORSDOF 7
ENDMDL
MODEL 4
REMARK VINA RESULT:      -6.7      4.633     11.331
REMARK  7 active torsions:
REMARK  status: ('A' for Active; 'I' for Inactive)
REMARK    1  A    between atoms: C_6  and  C_5 
REMARK    2  A    between atoms: O_24  and  C_5 
REMARK    3  A    between atoms: O_28  and  C_6 
REMARK    4  A    between atoms: C_19  and  C_13 
REMARK    5  A    between atoms: O_26  and  C_14 
REMARK    6  A    between atoms: O_27  and  C_16 
REMARK    7  A    between atoms: O_28  and  C_18 
ROOT
HETATM    1  C   UNK N   1      34.230  14.964  11.305  0.00  0.00     0.067 A 
HETATM    2  C   UNK N   1      36.365  13.882  11.047  0.00  0.00     0.074 A 
HETATM    3  C   UNK N   1      35.293  14.268  11.864  0.00  0.00     0.073 A 
HETATM    4  C   UNK N   1      34.218  15.276   9.950  0.00  0.00     0.055 A 
HETATM    5  C   UNK N   1      36.394  14.194   9.681  0.00  0.00     0.088 A 
HETATM    6  C   UNK N   1      35.288  14.898   9.103  0.00  0.00     0.092 A 
HETATM    7  C   UNK N   1      33.054  16.248   8.136  0.00  0.00     0.118 A 
HETATM    8  C   UNK N   1      35.164  15.226   7.725  0.00  0.00     0.262 A 
HETATM    9  N   UNK N   1      33.146  15.928   9.449  0.00  0.00    -0.341 N 
HETATM   10  N   UNK N   1      34.049  15.897   7.285  0.00  0.00    -0.308 N 
ATOM     11  HN  UNK N   1      33.969  16.136   6.296  1.00  0.00     0.170 HD
HETATM   12  O   UNK N   1      36.002  14.894   6.913  0.00  0.00    -0.267 OA
HETATM   13  H   UNK N   1      32.411  16.177  10.055  0.00  0.00     0.167 HD
ENDROOT
BRANCH   7  14
HETATM   14  C   UNK N   1      31.810  16.849   7.635  0.00  0.00     0.009 A 
HETATM   15  C   UNK N   1      31.447  16.762   6.288  0.00  0.00     0.024 A 
HETATM   16  C   UNK N   1      30.186  17.200   5.869  0.00  0.00    -0.027 A 
HETATM   17  C   UNK N   1      29.819  17.065   4.431  0.00  0.00     0.051 C 
HETATM   18  C   UNK N   1      29.257  17.698   6.806  0.00  0.00     0.080 A 
HETATM   19  C   UNK N   1      29.656  17.828   8.164  0.00  0.00    -0.027 A 
HETATM   20  C   UNK N   1      28.776  18.388   9.229  0.00  0.00     0.051 C 
HETATM   21  C   UNK N   1      30.920  17.404   8.552  0.00  0.00     0.024 A 
BRANCH  18  22
HETATM   22  O   UNK N   1      28.007  18.014   6.369  0.00  0.00    -0.348 OA
BRANCH  22  23
HETATM   23  C   UNK N   1      27.600  19.294   6.058  0.00  0.00     0.201 C 
BRANCH  23  24
HETATM   24  C   UNK N   1      26.985  19.345   4.675  0.00  0.00     0.190 C 
BRANCH  24  25
HETATM   25  O   UNK N   1      27.898  19.875   3.764  0.00  0.00    -0.399 OA
HETATM   26  H   UNK N   1      28.175  20.659   3.266  0.00  0.00     0.209 HD
ENDBRANCH  24  25
ENDBRANCH  23  24
ENDBRANCH  22  23
ENDBRANCH  18  22
ENDBRANCH   7  14
BRANCH   3  27
HETATM   27  O   UNK N   1      35.268  13.993  13.189  0.00  0.00    -0.356 OA
HETATM   28  C   UNK N   1      36.367  14.116  14.008  0.00  0.00     0.210 C 
ENDBRANCH   3  27
BRANCH   5  29
HETATM   29  O   UNK N   1      37.489  13.803   8.987  0.00  0.00    -0.355 OA
HETATM   30  C   UNK N   1      38.659  13.410   9.595  0.00  0.00     0.210 C 
ENDBRANCH   5  29
TORSDOF 7
ENDMDL
MODEL 5
REMARK VINA RESULT:      -6.7      1.520      2.279
REMARK  7 active torsions:
REMARK  status: ('A' for Active; 'I' for Inactive)
REMARK    1  A    between atoms: C_6  and  C_5 
REMARK    2  A    between atoms: O_24  and  C_5 
REMARK    3  A    between atoms: O_28  and  C_6 
REMARK    4  A    between atoms: C_19  and  C_13 
REMARK    5  A    between atoms: O_26  and  C_14 
REMARK    6  A    between atoms: O_27  and  C_16 
REMARK    7  A    between atoms: O_28  and  C_18 
ROOT
HETATM    1  C   UNK N   1      23.618  16.574   5.067  0.00  0.00     0.067 A 
HETATM    2  C   UNK N   1      22.221  18.153   3.905  0.00  0.00     0.074 A 
HETATM    3  C   UNK N   1      22.390  16.898   4.507  0.00  0.00     0.073 A 
HETATM    4  C   UNK N   1      24.674  17.479   5.039  0.00  0.00     0.055 A 
HETATM    5  C   UNK N   1      23.267  19.083   3.845  0.00  0.00     0.088 A 
HETATM    6  C   UNK N   1      24.529  18.752   4.438  0.00  0.00     0.092 A 
HETATM    7  C   UNK N   1      26.905  17.963   5.655  0.00  0.00     0.118 A 
HETATM    8  C   UNK N   1      25.652  19.623   4.497  0.00  0.00     0.262 A 
HETATM    9  N   UNK N   1      25.840  17.127   5.624  0.00  0.00    -0.341 N 
HETATM   10  N   UNK N   1      26.810  19.198   5.101  0.00  0.00    -0.308 N 
ATOM     11  HN  UNK N   1      27.615  19.823   5.134  1.00  0.00     0.170 HD
HETATM   12  O   UNK N   1      25.606  20.754   4.060  0.00  0.00    -0.267 OA
HETATM   13  H   UNK N   1      25.917  16.238   6.041  0.00  0.00     0.167 HD
ENDROOT
BRANCH   7  14
HETATM   14  C   UNK N   1      28.101  17.566   6.411  0.00  0.00     0.009 A 
HETATM   15  C   UNK N   1      29.093  16.765   5.840  0.00  0.00     0.024 A 
HETATM   16  C   UNK N   1      30.293  16.536   6.523  0.00  0.00    -0.027 A 
HETATM   17  C   UNK N   1      31.343  15.701   5.874  0.00  0.00     0.051 C 
HETATM   18  C   UNK N   1      30.527  17.142   7.775  0.00  0.00     0.080 A 
HETATM   19  C   UNK N   1      29.491  17.914   8.367  0.00  0.00    -0.027 A 
HETATM   20  C   UNK N   1      29.608  18.558   9.706  0.00  0.00     0.051 C 
HETATM   21  C   UNK N   1      28.302  18.111   7.678  0.00  0.00     0.024 A 
BRANCH  18  22
HETATM   22  O   UNK N   1      31.748  16.977   8.353  0.00  0.00    -0.348 OA
BRANCH  22  23
HETATM   23  C   UNK N   1      32.760  17.913   8.297  0.00  0.00     0.201 C 
BRANCH  23  24
HETATM   24  C   UNK N   1      34.105  17.273   8.569  0.00  0.00     0.190 C 
BRANCH  24  25
HETATM   25  O   UNK N   1      34.365  17.270   9.939  0.00  0.00    -0.399 OA
HETATM   26  H   UNK N   1      34.928  16.930  10.650  0.00  0.00     0.209 HD
ENDBRANCH  24  25
ENDBRANCH  23  24
ENDBRANCH  22  23
ENDBRANCH  18  22
ENDBRANCH   7  14
BRANCH   3  27
HETATM   27  O   UNK N   1      21.393  15.984   4.548  0.00  0.00    -0.356 OA
HETATM   28  C   UNK N   1      21.076  15.261   5.675  0.00  0.00     0.210 C 
ENDBRANCH   3  27
BRANCH   5  29
HETATM   29  O   UNK N   1      23.009  20.254   3.215  0.00  0.00    -0.355 OA
HETATM   30  C   UNK N   1      21.823  20.510   2.569  0.00  0.00     0.210 C 
ENDBRANCH   5  29
TORSDOF 7
ENDMDL
MODEL 6
REMARK VINA RESULT:      -6.7      3.598      5.581
REMARK  7 active torsions:
REMARK  status: ('A' for Active; 'I' for Inactive)
REMARK    1  A    between atoms: C_6  and  C_5 
REMARK    2  A    between atoms: O_24  and  C_5 
REMARK    3  A    between atoms: O_28  and  C_6 
REMARK    4  A    between atoms: C_19  and  C_13 
REMARK    5  A    between atoms: O_26  and  C_14 
REMARK    6  A    between atoms: O_27  and  C_16 
REMARK    7  A    between atoms: O_28  and  C_18 
ROOT
HETATM    1  C   UNK N   1      21.684  14.295   7.981  0.00  0.00     0.067 A 
HETATM    2  C   UNK N   1      19.902  15.376   9.186  0.00  0.00     0.074 A 
HETATM    3  C   UNK N   1      20.685  14.239   8.943  0.00  0.00     0.073 A 
HETATM    4  C   UNK N   1      21.914  15.464   7.261  0.00  0.00     0.055 A 
HETATM    5  C   UNK N   1      20.094  16.565   8.469  0.00  0.00     0.088 A 
HETATM    6  C   UNK N   1      21.136  16.625   7.487  0.00  0.00     0.092 A 
HETATM    7  C   UNK N   1      23.213  16.583   5.634  0.00  0.00     0.118 A 
HETATM    8  C   UNK N   1      21.475  17.782   6.733  0.00  0.00     0.262 A 
HETATM    9  N   UNK N   1      22.917  15.477   6.357  0.00  0.00    -0.341 N 
HETATM   10  N   UNK N   1      22.503  17.723   5.824  0.00  0.00    -0.308 N 
ATOM     11  HN  UNK N   1      22.736  18.554   5.280  1.00  0.00     0.170 HD
HETATM   12  O   UNK N   1      20.904  18.840   6.896  0.00  0.00    -0.267 OA
HETATM   13  H   UNK N   1      23.448  14.659   6.220  0.00  0.00     0.167 HD
ENDROOT
BRANCH   7  14
HETATM   14  C   UNK N   1      24.391  16.566   4.756  0.00  0.00     0.009 A 
HETATM   15  C   UNK N   1      25.463  17.440   4.954  0.00  0.00     0.024 A 
HETATM   16  C   UNK N   1      26.636  17.295   4.206  0.00  0.00    -0.027 A 
HETATM   17  C   UNK N   1      27.772  18.225   4.463  0.00  0.00     0.051 C 
HETATM   18  C   UNK N   1      26.764  16.244   3.275  0.00  0.00     0.080 A 
HETATM   19  C   UNK N   1      25.649  15.392   3.048  0.00  0.00    -0.027 A 
HETATM   20  C   UNK N   1      25.652  14.282   2.052  0.00  0.00     0.051 C 
HETATM   21  C   UNK N   1      24.487  15.568   3.788  0.00  0.00     0.024 A 
BRANCH  18  22
HETATM   22  O   UNK N   1      27.961  16.077   2.648  0.00  0.00    -0.348 OA
BRANCH  22  23
HETATM   23  C   UNK N   1      28.888  15.119   3.000  0.00  0.00     0.201 C 
BRANCH  23  24
HETATM   24  C   UNK N   1      30.278  15.713   3.077  0.00  0.00     0.190 C 
BRANCH  24  25
HETATM   25  O   UNK N   1      30.297  16.967   2.468  0.00  0.00    -0.399 OA
HETATM   26  H   UNK N   1      30.519  17.906   2.565  0.00  0.00     0.209 HD
ENDBRANCH  24  25
ENDBRANCH  23  24
ENDBRANCH  22  23
ENDBRANCH  18  22
ENDBRANCH   7  14
BRANCH   3  27
HETATM   27  O   UNK N   1      20.490  13.079   9.613  0.00  0.00    -0.356 OA
HETATM   28  C   UNK N   1      21.446  12.500  10.415  0.00  0.00     0.210 C 
ENDBRANCH   3  27
BRANCH   5  29
HETATM   29  O   UNK N   1      19.264  17.594   8.758  0.00  0.00    -0.355 OA
HETATM   30  C   UNK N   1      17.979  17.414   9.213  0.00  0.00     0.210 C 
ENDBRANCH   5  29
TORSDOF 7
ENDMDL
MODEL 7
REMARK VINA RESULT:      -6.6      2.552      9.220
REMARK  7 active torsions:
REMARK  status: ('A' for Active; 'I' for Inactive)
REMARK    1  A    between atoms: C_6  and  C_5 
REMARK    2  A    between atoms: O_24  and  C_5 
REMARK    3  A    between atoms: O_28  and  C_6 
REMARK    4  A    between atoms: C_19  and  C_13 
REMARK    5  A    between atoms: O_26  and  C_14 
REMARK    6  A    between atoms: O_27  and  C_16 
REMARK    7  A    between atoms: O_28  and  C_18 
ROOT
HETATM    1  C   UNK N   1      31.608  16.122   8.239  0.00  0.00     0.067 A 
HETATM    2  C   UNK N   1      33.907  15.579   7.773  0.00  0.00     0.074 A 
HETATM    3  C   UNK N   1      32.822  15.597   8.661  0.00  0.00     0.073 A 
HETATM    4  C   UNK N   1      31.460  16.625   6.951  0.00  0.00     0.055 A 
HETATM    5  C   UNK N   1      33.798  16.091   6.474  0.00  0.00     0.088 A 
HETATM    6  C   UNK N   1      32.540  16.618   6.035  0.00  0.00     0.092 A 
HETATM    7  C   UNK N   1      30.025  17.583   5.335  0.00  0.00     0.118 A 
HETATM    8  C   UNK N   1      32.278  17.115   4.729  0.00  0.00     0.262 A 
HETATM    9  N   UNK N   1      30.250  17.098   6.578  0.00  0.00    -0.341 N 
HETATM   10  N   UNK N   1      31.026  17.587   4.420  0.00  0.00    -0.308 N 
ATOM     11  HN  UNK N   1      30.846  17.950   3.484  1.00  0.00     0.170 HD
HETATM   12  O   UNK N   1      33.124  17.098   3.859  0.00  0.00    -0.267 OA
HETATM   13  H   UNK N   1      29.512  17.088   7.230  0.00  0.00     0.167 HD
ENDROOT
BRANCH   7  14
HETATM   14  C   UNK N   1      28.658  17.970   4.958  0.00  0.00     0.009 A 
HETATM   15  C   UNK N   1      28.146  19.233   5.263  0.00  0.00     0.024 A 
HETATM   16  C   UNK N   1      26.905  19.632   4.754  0.00  0.00    -0.027 A 
HETATM   17  C   UNK N   1      26.401  20.997   5.075  0.00  0.00     0.051 C 
HETATM   18  C   UNK N   1      26.179  18.779   3.897  0.00  0.00     0.080 A 
HETATM   19  C   UNK N   1      26.688  17.478   3.633  0.00  0.00    -0.027 A 
HETATM   20  C   UNK N   1      25.981  16.476   2.785  0.00  0.00     0.051 C 
HETATM   21  C   UNK N   1      27.912  17.098   4.166  0.00  0.00     0.024 A 
BRANCH  18  22
HETATM   22  O   UNK N   1      25.029  19.250   3.341  0.00  0.00    -0.348 OA
BRANCH  22  23
HETATM   23  C   UNK N   1      23.770  18.995   3.843  0.00  0.00     0.201 C 
BRANCH  23  24
HETATM   24  C   UNK N   1      22.742  19.916   3.219  0.00  0.00     0.190 C 
BRANCH  24  25
HETATM   25  O   UNK N   1      23.325  21.143   2.908  0.00  0.00    -0.399 OA
HETATM   26  H   UNK N   1      23.285  22.105   3.021  0.00  0.00     0.209 HD
ENDBRANCH  24  25
ENDBRANCH  23  24
ENDBRANCH  22  23
ENDBRANCH  18  22
ENDBRANCH   7  14
BRANCH   3  27
HETATM   27  O   UNK N   1      32.924  15.127   9.926  0.00  0.00    -0.356 OA
HETATM   28  C   UNK N   1      34.127  14.902  10.554  0.00  0.00     0.210 C 
ENDBRANCH   3  27
BRANCH   5  29
HETATM   29  O   UNK N   1      34.913  16.055   5.707  0.00  0.00    -0.355 OA
HETATM   30  C   UNK N   1      35.723  14.947   5.617  0.00  0.00     0.210 C 
ENDBRANCH   5  29
TORSDOF 7
ENDMDL
MODEL 8
REMARK VINA RESULT:      -6.6      1.751      8.924
REMARK  7 active torsions:
REMARK  status: ('A' for Active; 'I' for Inactive)
REMARK    1  A    between atoms: C_6  and  C_5 
REMARK    2  A    between atoms: O_24  and  C_5 
REMARK    3  A    between atoms: O_28  and  C_6 
REMARK    4  A    between atoms: C_19  and  C_13 
REMARK    5  A    between atoms: O_26  and  C_14 
REMARK    6  A    between atoms: O_27  and  C_16 
REMARK    7  A    between atoms: O_28  and  C_18 
ROOT
HETATM    1  C   UNK N   1      30.204  17.344   3.965  0.00  0.00     0.067 A 
HETATM    2  C   UNK N   1      31.770  17.039   5.768  0.00  0.00     0.074 A 
HETATM    3  C   UNK N   1      31.513  17.182   4.397  0.00  0.00     0.073 A 
HETATM    4  C   UNK N   1      29.152  17.369   4.875  0.00  0.00     0.055 A 
HETATM    5  C   UNK N   1      30.734  17.042   6.711  0.00  0.00     0.088 A 
HETATM    6  C   UNK N   1      29.385  17.226   6.265  0.00  0.00     0.092 A 
HETATM    7  C   UNK N   1      26.829  17.616   5.235  0.00  0.00     0.118 A 
HETATM    8  C   UNK N   1      28.251  17.307   7.118  0.00  0.00     0.262 A 
HETATM    9  N   UNK N   1      27.899  17.560   4.407  0.00  0.00    -0.341 N 
HETATM   10  N   UNK N   1      27.004  17.495   6.574  0.00  0.00    -0.308 N 
ATOM     11  HN  UNK N   1      26.193  17.544   7.191  1.00  0.00     0.170 HD
HETATM   12  O   UNK N   1      28.356  17.252   8.325  0.00  0.00    -0.267 OA
HETATM   13  H   UNK N   1      27.761  17.662   3.438  0.00  0.00     0.167 HD
ENDROOT
BRANCH   7  14
HETATM   14  C   UNK N   1      25.511  17.945   4.673  0.00  0.00     0.009 A 
HETATM   15  C   UNK N   1      24.377  17.190   4.981  0.00  0.00     0.024 A 
HETATM   16  C   UNK N   1      23.112  17.618   4.565  0.00  0.00    -0.027 A 
HETATM   17  C   UNK N   1      21.919  16.805   4.935  0.00  0.00     0.051 C 
HETATM   18  C   UNK N   1      22.965  18.833   3.865  0.00  0.00     0.080 A 
HETATM   19  C   UNK N   1      24.131  19.568   3.516  0.00  0.00    -0.027 A 
HETATM   20  C   UNK N   1      24.100  20.837   2.734  0.00  0.00     0.051 C 
HETATM   21  C   UNK N   1      25.378  19.112   3.923  0.00  0.00     0.024 A 
BRANCH  18  22
HETATM   22  O   UNK N   1      21.707  19.263   3.573  0.00  0.00    -0.348 OA
BRANCH  22  23
HETATM   23  C   UNK N   1      21.052  18.984   2.391  0.00  0.00     0.201 C 
BRANCH  23  24
HETATM   24  C   UNK N   1      20.915  20.230   1.541  0.00  0.00     0.190 C 
BRANCH  24  25
HETATM   25  O   UNK N   1      20.598  19.881   0.229  0.00  0.00    -0.399 OA
HETATM   26  H   UNK N   1      19.912  19.558  -0.375  0.00  0.00     0.209 HD
ENDBRANCH  24  25
ENDBRANCH  23  24
ENDBRANCH  22  23
ENDBRANCH  18  22
ENDBRANCH   7  14
BRANCH   3  27
HETATM   27  O   UNK N   1      32.505  17.155   3.476  0.00  0.00    -0.356 OA
HETATM   28  C   UNK N   1      33.279  16.045   3.231  0.00  0.00     0.210 C 
ENDBRANCH   3  27
BRANCH   5  29
HETATM   29  O   UNK N   1      31.087  16.866   8.007  0.00  0.00    -0.355 OA
HETATM   30  C   UNK N   1      32.091  17.584   8.613  0.00  0.00     0.210 C 
ENDBRANCH   5  29
TORSDOF 7
ENDMDL
MODEL 9
REMARK VINA RESULT:      -6.4      2.417      9.270
REMARK  7 active torsions:
REMARK  status: ('A' for Active; 'I' for Inactive)
REMARK    1  A    between atoms: C_6  and  C_5 
REMARK    2  A    between atoms: O_24  and  C_5 
REMARK    3  A    between atoms: O_28  and  C_6 
REMARK    4  A    between atoms: C_19  and  C_13 
REMARK    5  A    between atoms: O_26  and  C_14 
REMARK    6  A    between atoms: O_27  and  C_16 
REMARK    7  A    between atoms: O_28  and  C_18 
ROOT
HETATM    1  C   UNK N   1      31.497  16.208   8.036  0.00  0.00     0.067 A 
HETATM    2  C   UNK N   1      33.813  15.636   7.713  0.00  0.00     0.074 A 
HETATM    3  C   UNK N   1      32.682  15.690   8.540  0.00  0.00     0.073 A 
HETATM    4  C   UNK N   1      31.421  16.667   6.725  0.00  0.00     0.055 A 
HETATM    5  C   UNK N   1      33.778  16.105   6.393  0.00  0.00     0.088 A 
HETATM    6  C   UNK N   1      32.549  16.624   5.870  0.00  0.00     0.092 A 
HETATM    7  C   UNK N   1      30.082  17.579   5.004  0.00  0.00     0.118 A 
HETATM    8  C   UNK N   1      32.361  17.078   4.536  0.00  0.00     0.262 A 
HETATM    9  N   UNK N   1      30.237  17.134   6.273  0.00  0.00    -0.341 N 
HETATM   10  N   UNK N   1      31.131  17.547   4.145  0.00  0.00    -0.308 N 
ATOM     11  HN  UNK N   1      31.004  17.879   3.188  1.00  0.00     0.170 HD
HETATM   12  O   UNK N   1      33.252  17.027   3.714  0.00  0.00    -0.267 OA
HETATM   13  H   UNK N   1      29.464  17.150   6.884  0.00  0.00     0.167 HD
ENDROOT
BRANCH   7  14
HETATM   14  C   UNK N   1      28.740  17.961   4.541  0.00  0.00     0.009 A 
HETATM   15  C   UNK N   1      27.936  17.074   3.820  0.00  0.00     0.024 A 
HETATM   16  C   UNK N   1      26.607  17.403   3.533  0.00  0.00    -0.027 A 
HETATM   17  C   UNK N   1      25.768  16.423   2.788  0.00  0.00     0.051 C 
HETATM   18  C   UNK N   1      26.056  18.614   4.000  0.00  0.00     0.080 A 
HETATM   19  C   UNK N   1      26.898  19.529   4.690  0.00  0.00    -0.027 A 
HETATM   20  C   UNK N   1      26.437  20.858   5.183  0.00  0.00     0.051 C 
HETATM   21  C   UNK N   1      28.219  19.188   4.946  0.00  0.00     0.024 A 
BRANCH  18  22
HETATM   22  O   UNK N   1      24.731  18.845   3.788  0.00  0.00    -0.348 OA
BRANCH  22  23
HETATM   23  C   UNK N   1      23.739  18.526   4.693  0.00  0.00     0.201 C 
BRANCH  23  24
HETATM   24  C   UNK N   1      22.374  18.579   4.040  0.00  0.00     0.190 C 
BRANCH  24  25
HETATM   25  O   UNK N   1      22.096  19.878   3.617  0.00  0.00    -0.399 OA
HETATM   26  H   UNK N   1      21.482  20.455   3.137  0.00  0.00     0.209 HD
ENDBRANCH  24  25
ENDBRANCH  23  24
ENDBRANCH  22  23
ENDBRANCH  18  22
ENDBRANCH   7  14
BRANCH   3  27
HETATM   27  O   UNK N   1      32.713  15.262   9.823  0.00  0.00    -0.356 OA
HETATM   28  C   UNK N   1      33.869  14.891  10.469  0.00  0.00     0.210 C 
ENDBRANCH   3  27
BRANCH   5  29
HETATM   29  O   UNK N   1      34.932  16.037   5.689  0.00  0.00    -0.355 OA
HETATM   30  C   UNK N   1      35.714  14.906   5.642  0.00  0.00     0.210 C 
ENDBRANCH   5  29
TORSDOF 7
ENDMDL
