REMARK  9 active torsions:
REMARK  status: ('A' for Active; 'I' for Inactive)
REMARK    1  A    between atoms: C_2  and  C_3 
REMARK    2  A    between atoms: C_11  and  N_24 
REMARK    3  A    between atoms: C_13  and  N_14 
REMARK    4  A    between atoms: N_14  and  C_15 
REMARK    5  A    between atoms: C_15  and  C_16 
REMARK    6  A    between atoms: N_20  and  O_22 
REMARK    7  A    between atoms: C_29  and  C_30 
REMARK    8  A    between atoms: C_30  and  C_31 
REMARK    9  A    between atoms: C_31  and  O_32 
ROOT
HETATM    1  C   UNK N   1      -1.538   0.701  -0.133  0.00  0.00     0.004 A 
HETATM    2  C   UNK N   1      -2.303  -0.427   0.164  0.00  0.00     0.118 A 
HETATM    3  N   UNK N   1      -1.474  -1.389   0.636  0.00  0.00    -0.301 N 
ATOM      4  HN  UNK N   1      -1.746  -2.327   0.928  1.00  0.00     0.186 HD
HETATM    5  N   UNK N   1      -0.245  -0.892   0.648  0.00  0.00    -0.224 N 
HETATM    6  C   UNK N   1      -0.249   0.355   0.188  0.00  0.00     0.138 A 
HETATM    7  N   UNK N   1       0.913   1.047  -0.003  0.00  0.00    -0.327 N 
ATOM      8  HN  UNK N   1       0.897   1.993  -0.384  1.00  0.00     0.169 HD
HETATM    9  C   UNK N   1       2.106   0.445   0.328  0.00  0.00     0.108 A 
HETATM   10  C   UNK N   1       2.091  -0.862   0.820  0.00  0.00     0.098 A 
HETATM   11  C   UNK N   1       0.890  -1.537   0.962  0.00  0.00     0.129 A 
ENDROOT
BRANCH  11  12
HETATM   12  N   UNK N   1       0.897  -2.925   1.097  0.00  0.00    -0.370 N 
HETATM   13  H   UNK N   1       0.434  -3.386   1.834  0.00  0.00     0.161 HD
BRANCH  12  14
HETATM   14  C   UNK N   1       1.631  -3.637   0.084  0.00  0.00     0.161 C 
BRANCH  14  15
HETATM   15  C   UNK N   1       1.182  -5.028   0.013  0.00  0.00    -0.023 A 
HETATM   16  C   UNK N   1       2.116  -6.046   0.148  0.00  0.00     0.012 A 
HETATM   17  C   UNK N   1       1.690  -7.368   0.130  0.00  0.00     0.020 A 
HETATM   18  C   UNK N   1       0.327  -7.646  -0.016  0.00  0.00     0.122 A 
HETATM   19  N   UNK N   1      -0.572  -6.633  -0.157  0.00  0.00    -0.247 N 
HETATM   20  C   UNK N   1      -0.170  -5.336  -0.151  0.00  0.00     0.131 A 
BRANCH  19  21
HETATM   21  O   UNK N   1      -1.863  -6.915  -0.281  0.00  0.00    -0.284 OA
ATOM     22  HO  UNK N   1      -2.491  -6.208  -0.379  1.00  0.00     0.245 HD
ENDBRANCH  19  21
ENDBRANCH  14  15
ENDBRANCH  12  14
ENDBRANCH  11  12
BRANCH   9  23
HETATM   23  N   UNK N   1       3.357   1.032  -0.050  0.00  0.00    -0.362 N 
HETATM   24  C   UNK N   1       3.340   2.075  -1.058  0.00  0.00     0.125 C 
HETATM   25  C   UNK N   1       4.310   3.187  -0.682  0.00  0.00     0.020 C 
HETATM   26  C   UNK N   1       5.733   2.664  -0.441  0.00  0.00     0.004 C 
HETATM   27  C   UNK N   1       5.829   1.141  -0.341  0.00  0.00     0.025 C 
HETATM   28  C   UNK N   1       4.662   0.557   0.459  0.00  0.00     0.087 C 
BRANCH  28  29
HETATM   29  C   UNK N   1       4.854  -0.959   0.624  0.00  0.00     0.051 C 
BRANCH  29  30
HETATM   30  C   UNK N   1       4.670  -1.768  -0.648  0.00  0.00     0.166 C 
BRANCH  30  31
HETATM   31  O   UNK N   1       4.682  -3.125  -0.322  0.00  0.00    -0.401 OA
HETATM   32  H   UNK N   1       3.869  -3.604  -0.095  0.00  0.00     0.209 HD
ENDBRANCH  30  31
ENDBRANCH  29  30
ENDBRANCH  28  29
ENDBRANCH   9  23
BRANCH   1  33
HETATM   33  C   UNK N   1      -2.037   1.959  -0.748  0.00  0.00     0.039 C 
HETATM   34  C   UNK N   1      -1.838   3.120   0.201  0.00  0.00     0.010 C 
ENDBRANCH   1  33
TORSDOF 9
