MODEL 1
REMARK VINA RESULT:      -5.6      0.000      0.000
REMARK  13 active torsions:
REMARK  status: ('A' for Active; 'I' for Inactive)
REMARK    1  A    between atoms: S_2  and  O_5 
REMARK    2  A    between atoms: O_5  and  C_6 
REMARK    3  A    between atoms: C_6  and  C_7 
REMARK    4  A    between atoms: C_7  and  C_8 
REMARK    5  A    between atoms: C_7  and  O_20 
REMARK    6  A    between atoms: C_8  and  C_9 
REMARK    7  A    between atoms: C_8  and  O_19 
REMARK    8  A    between atoms: C_9  and  C_10 
REMARK    9  A    between atoms: C_9  and  O_18 
REMARK   10  A    between atoms: C_10  and  C_11 
REMARK   11  A    between atoms: C_10  and  O_17 
REMARK   12  A    between atoms: C_11  and  O_12 
REMARK   13  A    between atoms: O_12  and  S_13 
ROOT
HETATM    1  C   UNK N   1      35.552  14.281  12.918  0.00  0.00     0.180 C 
ENDROOT
BRANCH   1   2
HETATM    2  C   UNK N   1      35.550  12.744  12.909  0.00  0.00     0.174 C 
BRANCH   2   3
HETATM    3  C   UNK N   1      36.191  12.128  14.143  0.00  0.00     0.224 C 
BRANCH   3   4
HETATM    4  O   UNK N   1      36.006  12.987  15.230  0.00  0.00    -0.273 OA
BRANCH   4   5
HETATM    5  S   UNK N   1      34.984  12.140  16.320  0.00  0.00     0.261 S 
HETATM    6  C   UNK N   1      35.316  11.678  18.041  0.00  0.00     0.194 C 
HETATM    7  O   UNK N   1      35.303  13.414  17.115  0.00  0.00    -0.199 OA
HETATM    8  O   UNK N   1      36.313  11.375  16.433  0.00  0.00    -0.199 OA
ENDBRANCH   4   5
ENDBRANCH   3   4
ENDBRANCH   2   3
BRANCH   2   9
HETATM    9  O   UNK N   1      34.239  12.280  12.800  0.00  0.00    -0.391 OA
HETATM   10  H   UNK N   1      33.706  12.078  13.584  0.00  0.00     0.210 HD
ENDBRANCH   2   9
ENDBRANCH   1   2
BRANCH   1  11
HETATM   11  C   UNK N   1      35.172  14.821  11.536  0.00  0.00     0.180 C 
BRANCH  11  12
HETATM   12  C   UNK N   1      35.882  16.140  11.208  0.00  0.00     0.174 C 
BRANCH  12  13
HETATM   13  C   UNK N   1      35.090  17.044  10.256  0.00  0.00     0.224 C 
BRANCH  13  14
HETATM   14  O   UNK N   1      34.907  16.419   9.006  0.00  0.00    -0.273 OA
BRANCH  14  15
HETATM   15  S   UNK N   1      33.850  17.437   8.099  0.00  0.00     0.261 S 
HETATM   16  O   UNK N   1      34.567  17.836   6.802  0.00  0.00    -0.199 OA
HETATM   17  O   UNK N   1      34.837  18.468   8.666  0.00  0.00    -0.199 OA
HETATM   18  C   UNK N   1      34.602  16.032   7.220  0.00  0.00     0.194 C 
ENDBRANCH  14  15
ENDBRANCH  13  14
ENDBRANCH  12  13
BRANCH  12  19
HETATM   19  O   UNK N   1      37.151  15.883  10.690  0.00  0.00    -0.391 OA
HETATM   20  H   UNK N   1      37.608  15.373  10.003  0.00  0.00     0.210 HD
ENDBRANCH  12  19
ENDBRANCH  11  12
BRANCH  11  21
HETATM   21  O   UNK N   1      33.789  14.936  11.371  0.00  0.00    -0.390 OA
HETATM   22  H   UNK N   1      33.405  15.578  10.753  0.00  0.00     0.210 HD
ENDBRANCH  11  21
ENDBRANCH   1  11
BRANCH   1  23
HETATM   23  O   UNK N   1      36.821  14.767  13.241  0.00  0.00    -0.390 OA
HETATM   24  H   UNK N   1      37.212  15.488  12.723  0.00  0.00     0.210 HD
ENDBRANCH   1  23
TORSDOF 13
ENDMDL
MODEL 2
REMARK VINA RESULT:      -5.5      1.864      3.258
REMARK  13 active torsions:
REMARK  status: ('A' for Active; 'I' for Inactive)
REMARK    1  A    between atoms: S_2  and  O_5 
REMARK    2  A    between atoms: O_5  and  C_6 
REMARK    3  A    between atoms: C_6  and  C_7 
REMARK    4  A    between atoms: C_7  and  C_8 
REMARK    5  A    between atoms: C_7  and  O_20 
REMARK    6  A    between atoms: C_8  and  C_9 
REMARK    7  A    between atoms: C_8  and  O_19 
REMARK    8  A    between atoms: C_9  and  C_10 
REMARK    9  A    between atoms: C_9  and  O_18 
REMARK   10  A    between atoms: C_10  and  C_11 
REMARK   11  A    between atoms: C_10  and  O_17 
REMARK   12  A    between atoms: C_11  and  O_12 
REMARK   13  A    between atoms: O_12  and  S_13 
ROOT
HETATM    1  C   UNK N   1      35.146  16.281  10.453  0.00  0.00     0.180 C 
ENDROOT
BRANCH   1   2
HETATM    2  C   UNK N   1      34.568  14.875  10.680  0.00  0.00     0.174 C 
BRANCH   2   3
HETATM    3  C   UNK N   1      35.413  14.013  11.606  0.00  0.00     0.224 C 
BRANCH   3   4
HETATM    4  O   UNK N   1      35.052  14.277  12.930  0.00  0.00    -0.273 OA
BRANCH   4   5
HETATM    5  S   UNK N   1      36.007  13.220  13.889  0.00  0.00     0.261 S 
HETATM    6  C   UNK N   1      36.385  13.342  15.658  0.00  0.00     0.194 C 
HETATM    7  O   UNK N   1      34.686  13.243  14.670  0.00  0.00    -0.199 OA
HETATM    8  O   UNK N   1      36.582  14.604  14.230  0.00  0.00    -0.199 OA
ENDBRANCH   4   5
ENDBRANCH   3   4
ENDBRANCH   2   3
BRANCH   2   9
HETATM    9  O   UNK N   1      33.281  14.980  11.208  0.00  0.00    -0.391 OA
HETATM   10  H   UNK N   1      33.017  15.738  11.752  0.00  0.00     0.210 HD
ENDBRANCH   2   9
ENDBRANCH   1   2
BRANCH   1  11
HETATM   11  C   UNK N   1      35.158  16.615   8.958  0.00  0.00     0.180 C 
BRANCH  11  12
HETATM   12  C   UNK N   1      34.351  17.879   8.634  0.00  0.00     0.174 C 
BRANCH  12  13
HETATM   13  C   UNK N   1      33.421  17.722   7.426  0.00  0.00     0.224 C 
BRANCH  13  14
HETATM   14  O   UNK N   1      34.114  17.967   6.224  0.00  0.00    -0.273 OA
BRANCH  14  15
HETATM   15  S   UNK N   1      33.489  16.857   5.061  0.00  0.00     0.261 S 
HETATM   16  O   UNK N   1      32.833  15.693   5.816  0.00  0.00    -0.199 OA
HETATM   17  O   UNK N   1      34.752  16.117   5.526  0.00  0.00    -0.199 OA
HETATM   18  C   UNK N   1      32.360  17.392   6.384  0.00  0.00     0.194 C 
ENDBRANCH  14  15
ENDBRANCH  13  14
ENDBRANCH  12  13
BRANCH  12  19
HETATM   19  O   UNK N   1      35.212  18.959   8.447  0.00  0.00    -0.391 OA
HETATM   20  H   UNK N   1      35.296  19.909   8.623  0.00  0.00     0.210 HD
ENDBRANCH  12  19
ENDBRANCH  11  12
BRANCH  11  21
HETATM   21  O   UNK N   1      34.747  15.537   8.169  0.00  0.00    -0.390 OA
HETATM   22  H   UNK N   1      34.734  15.596   7.200  0.00  0.00     0.210 HD
ENDBRANCH  11  21
ENDBRANCH   1  11
BRANCH   1  23
HETATM   23  O   UNK N   1      36.459  16.352  10.925  0.00  0.00    -0.390 OA
HETATM   24  H   UNK N   1      36.766  15.733  11.605  0.00  0.00     0.210 HD
ENDBRANCH   1  23
TORSDOF 13
ENDMDL
MODEL 3
REMARK VINA RESULT:      -5.5      1.919      3.309
REMARK  13 active torsions:
REMARK  status: ('A' for Active; 'I' for Inactive)
REMARK    1  A    between atoms: S_2  and  O_5 
REMARK    2  A    between atoms: O_5  and  C_6 
REMARK    3  A    between atoms: C_6  and  C_7 
REMARK    4  A    between atoms: C_7  and  C_8 
REMARK    5  A    between atoms: C_7  and  O_20 
REMARK    6  A    between atoms: C_8  and  C_9 
REMARK    7  A    between atoms: C_8  and  O_19 
REMARK    8  A    between atoms: C_9  and  C_10 
REMARK    9  A    between atoms: C_9  and  O_18 
REMARK   10  A    between atoms: C_10  and  C_11 
REMARK   11  A    between atoms: C_10  and  O_17 
REMARK   12  A    between atoms: C_11  and  O_12 
REMARK   13  A    between atoms: O_12  and  S_13 
ROOT
HETATM    1  C   UNK N   1      34.640  15.050  10.635  0.00  0.00     0.180 C 
ENDROOT
BRANCH   1   2
HETATM    2  C   UNK N   1      35.642  15.703  11.600  0.00  0.00     0.174 C 
BRANCH   2   3
HETATM    3  C   UNK N   1      36.104  14.777  12.714  0.00  0.00     0.224 C 
BRANCH   3   4
HETATM    4  O   UNK N   1      35.041  13.951  13.091  0.00  0.00    -0.273 OA
BRANCH   4   5
HETATM    5  S   UNK N   1      35.564  13.144  14.514  0.00  0.00     0.261 S 
HETATM    6  C   UNK N   1      35.774  11.363  14.782  0.00  0.00     0.194 C 
HETATM    7  O   UNK N   1      36.549  12.605  13.468  0.00  0.00    -0.199 OA
HETATM    8  O   UNK N   1      34.283  12.381  14.140  0.00  0.00    -0.199 OA
ENDBRANCH   4   5
ENDBRANCH   3   4
ENDBRANCH   2   3
BRANCH   2   9
HETATM    9  O   UNK N   1      36.756  16.145  10.887  0.00  0.00    -0.391 OA
HETATM   10  H   UNK N   1      37.297  15.534  10.364  0.00  0.00     0.210 HD
ENDBRANCH   2   9
ENDBRANCH   1   2
BRANCH   1  11
HETATM   11  C   UNK N   1      34.533  15.870   9.345  0.00  0.00     0.180 C 
BRANCH  11  12
HETATM   12  C   UNK N   1      33.082  16.051   8.884  0.00  0.00     0.174 C 
BRANCH  12  13
HETATM   13  C   UNK N   1      32.878  15.809   7.384  0.00  0.00     0.224 C 
BRANCH  13  14
HETATM   14  O   UNK N   1      32.440  16.985   6.742  0.00  0.00    -0.273 OA
BRANCH  14  15
HETATM   15  S   UNK N   1      33.534  17.269   5.439  0.00  0.00     0.261 S 
HETATM   16  O   UNK N   1      34.663  16.233   5.528  0.00  0.00    -0.199 OA
HETATM   17  O   UNK N   1      34.322  17.857   6.619  0.00  0.00    -0.199 OA
HETATM   18  C   UNK N   1      32.941  15.564   5.663  0.00  0.00     0.194 C 
ENDBRANCH  14  15
ENDBRANCH  13  14
ENDBRANCH  12  13
BRANCH  12  19
HETATM   19  O   UNK N   1      32.623  17.318   9.239  0.00  0.00    -0.391 OA
HETATM   20  H   UNK N   1      32.916  18.237   9.341  0.00  0.00     0.210 HD
ENDBRANCH  12  19
ENDBRANCH  11  12
BRANCH  11  21
HETATM   21  O   UNK N   1      35.329  15.352   8.319  0.00  0.00    -0.390 OA
HETATM   22  H   UNK N   1      35.055  14.572   7.812  0.00  0.00     0.210 HD
ENDBRANCH  11  21
ENDBRANCH   1  11
BRANCH   1  23
HETATM   23  O   UNK N   1      33.370  14.988  11.215  0.00  0.00    -0.390 OA
HETATM   24  H   UNK N   1      33.273  14.729  12.145  0.00  0.00     0.210 HD
ENDBRANCH   1  23
TORSDOF 13
ENDMDL
MODEL 4
REMARK VINA RESULT:      -5.5      1.244      1.521
REMARK  13 active torsions:
REMARK  status: ('A' for Active; 'I' for Inactive)
REMARK    1  A    between atoms: S_2  and  O_5 
REMARK    2  A    between atoms: O_5  and  C_6 
REMARK    3  A    between atoms: C_6  and  C_7 
REMARK    4  A    between atoms: C_7  and  C_8 
REMARK    5  A    between atoms: C_7  and  O_20 
REMARK    6  A    between atoms: C_8  and  C_9 
REMARK    7  A    between atoms: C_8  and  O_19 
REMARK    8  A    between atoms: C_9  and  C_10 
REMARK    9  A    between atoms: C_9  and  O_18 
REMARK   10  A    between atoms: C_10  and  C_11 
REMARK   11  A    between atoms: C_10  and  O_17 
REMARK   12  A    between atoms: C_11  and  O_12 
REMARK   13  A    between atoms: O_12  and  S_13 
ROOT
HETATM    1  C   UNK N   1      35.555  13.262  11.784  0.00  0.00     0.180 C 
ENDROOT
BRANCH   1   2
HETATM    2  C   UNK N   1      36.721  13.429  12.772  0.00  0.00     0.174 C 
BRANCH   2   3
HETATM    3  C   UNK N   1      36.324  13.206  14.223  0.00  0.00     0.224 C 
BRANCH   3   4
HETATM    4  O   UNK N   1      35.652  11.986  14.329  0.00  0.00    -0.273 OA
BRANCH   4   5
HETATM    5  S   UNK N   1      35.040  11.934  15.933  0.00  0.00     0.261 S 
HETATM    6  C   UNK N   1      34.887  13.294  17.122  0.00  0.00     0.194 C 
HETATM    7  O   UNK N   1      34.178  13.038  15.305  0.00  0.00    -0.199 OA
HETATM    8  O   UNK N   1      36.383  12.662  16.104  0.00  0.00    -0.199 OA
ENDBRANCH   4   5
ENDBRANCH   3   4
ENDBRANCH   2   3
BRANCH   2   9
HETATM    9  O   UNK N   1      37.744  12.541  12.439  0.00  0.00    -0.391 OA
HETATM   10  H   UNK N   1      38.521  12.428  13.008  0.00  0.00     0.210 HD
ENDBRANCH   2   9
ENDBRANCH   1   2
BRANCH   1  11
HETATM   11  C   UNK N   1      35.739  14.195  10.582  0.00  0.00     0.180 C 
BRANCH  11  12
HETATM   12  C   UNK N   1      35.916  15.660  11.001  0.00  0.00     0.174 C 
BRANCH  12  13
HETATM   13  C   UNK N   1      34.927  16.616  10.326  0.00  0.00     0.224 C 
BRANCH  13  14
HETATM   14  O   UNK N   1      35.268  16.819   8.973  0.00  0.00    -0.273 OA
BRANCH  14  15
HETATM   15  S   UNK N   1      34.062  17.861   8.313  0.00  0.00     0.261 S 
HETATM   16  O   UNK N   1      34.474  18.220   6.879  0.00  0.00    -0.199 OA
HETATM   17  O   UNK N   1      35.183  18.865   8.619  0.00  0.00    -0.199 OA
HETATM   18  C   UNK N   1      34.549  16.421   7.313  0.00  0.00     0.194 C 
ENDBRANCH  14  15
ENDBRANCH  13  14
ENDBRANCH  12  13
BRANCH  12  19
HETATM   19  O   UNK N   1      37.228  16.069  10.761  0.00  0.00    -0.391 OA
HETATM   20  H   UNK N   1      37.824  16.346  10.049  0.00  0.00     0.210 HD
ENDBRANCH  12  19
ENDBRANCH  11  12
BRANCH  11  21
HETATM   21  O   UNK N   1      34.715  14.059   9.641  0.00  0.00    -0.390 OA
HETATM   22  H   UNK N   1      33.795  14.274   9.861  0.00  0.00     0.210 HD
ENDBRANCH  11  21
ENDBRANCH   1  11
BRANCH   1  23
HETATM   23  O   UNK N   1      34.343  13.582  12.400  0.00  0.00    -0.390 OA
HETATM   24  H   UNK N   1      33.617  12.938  12.410  0.00  0.00     0.210 HD
ENDBRANCH   1  23
TORSDOF 13
ENDMDL
MODEL 5
REMARK VINA RESULT:      -5.4      2.661      4.001
REMARK  13 active torsions:
REMARK  status: ('A' for Active; 'I' for Inactive)
REMARK    1  A    between atoms: S_2  and  O_5 
REMARK    2  A    between atoms: O_5  and  C_6 
REMARK    3  A    between atoms: C_6  and  C_7 
REMARK    4  A    between atoms: C_7  and  C_8 
REMARK    5  A    between atoms: C_7  and  O_20 
REMARK    6  A    between atoms: C_8  and  C_9 
REMARK    7  A    between atoms: C_8  and  O_19 
REMARK    8  A    between atoms: C_9  and  C_10 
REMARK    9  A    between atoms: C_9  and  O_18 
REMARK   10  A    between atoms: C_10  and  C_11 
REMARK   11  A    between atoms: C_10  and  O_17 
REMARK   12  A    between atoms: C_11  and  O_12 
REMARK   13  A    between atoms: O_12  and  S_13 
ROOT
HETATM    1  C   UNK N   1      35.479  14.118  12.564  0.00  0.00     0.180 C 
ENDROOT
BRANCH   1   2
HETATM    2  C   UNK N   1      35.971  12.702  12.223  0.00  0.00     0.174 C 
BRANCH   2   3
HETATM    3  C   UNK N   1      36.758  12.628  10.924  0.00  0.00     0.224 C 
BRANCH   3   4
HETATM    4  O   UNK N   1      38.048  13.117  11.145  0.00  0.00    -0.273 OA
BRANCH   4   5
HETATM    5  S   UNK N   1      38.899  12.857   9.676  0.00  0.00     0.261 S 
HETATM    6  C   UNK N   1      38.313  12.037   8.168  0.00  0.00     0.194 C 
HETATM    7  O   UNK N   1      37.639  13.582   9.184  0.00  0.00    -0.199 OA
HETATM    8  O   UNK N   1      38.337  11.462   9.996  0.00  0.00    -0.199 OA
ENDBRANCH   4   5
ENDBRANCH   3   4
ENDBRANCH   2   3
BRANCH   2   9
HETATM    9  O   UNK N   1      36.767  12.222  13.264  0.00  0.00    -0.391 OA
HETATM   10  H   UNK N   1      37.205  12.824  13.885  0.00  0.00     0.210 HD
ENDBRANCH   2   9
ENDBRANCH   1   2
BRANCH   1  11
HETATM   11  C   UNK N   1      35.023  14.842  11.293  0.00  0.00     0.180 C 
BRANCH  11  12
HETATM   12  C   UNK N   1      35.731  16.188  11.100  0.00  0.00     0.174 C 
BRANCH  12  13
HETATM   13  C   UNK N   1      35.045  17.104  10.080  0.00  0.00     0.224 C 
BRANCH  13  14
HETATM   14  O   UNK N   1      34.763  16.404   8.889  0.00  0.00    -0.273 OA
BRANCH  14  15
HETATM   15  S   UNK N   1      33.762  17.439   7.938  0.00  0.00     0.261 S 
HETATM   16  O   UNK N   1      34.548  17.845   6.685  0.00  0.00    -0.199 OA
HETATM   17  O   UNK N   1      34.726  18.456   8.566  0.00  0.00    -0.199 OA
HETATM   18  C   UNK N   1      34.548  16.036   7.086  0.00  0.00     0.194 C 
ENDBRANCH  14  15
ENDBRANCH  13  14
ENDBRANCH  12  13
BRANCH  12  19
HETATM   19  O   UNK N   1      37.064  15.980  10.748  0.00  0.00    -0.391 OA
HETATM   20  H   UNK N   1      37.622  15.505  10.112  0.00  0.00     0.210 HD
ENDBRANCH  12  19
ENDBRANCH  11  12
BRANCH  11  21
HETATM   21  O   UNK N   1      33.634  14.988  11.233  0.00  0.00    -0.390 OA
HETATM   22  H   UNK N   1      33.138  15.398  11.958  0.00  0.00     0.210 HD
ENDBRANCH  11  21
ENDBRANCH   1  11
BRANCH   1  23
HETATM   23  O   UNK N   1      36.506  14.865  13.145  0.00  0.00    -0.390 OA
HETATM   24  H   UNK N   1      37.185  14.426  13.680  0.00  0.00     0.210 HD
ENDBRANCH   1  23
TORSDOF 13
ENDMDL
MODEL 6
REMARK VINA RESULT:      -5.4      1.628      7.287
REMARK  13 active torsions:
REMARK  status: ('A' for Active; 'I' for Inactive)
REMARK    1  A    between atoms: S_2  and  O_5 
REMARK    2  A    between atoms: O_5  and  C_6 
REMARK    3  A    between atoms: C_6  and  C_7 
REMARK    4  A    between atoms: C_7  and  C_8 
REMARK    5  A    between atoms: C_7  and  O_20 
REMARK    6  A    between atoms: C_8  and  C_9 
REMARK    7  A    between atoms: C_8  and  O_19 
REMARK    8  A    between atoms: C_9  and  C_10 
REMARK    9  A    between atoms: C_9  and  O_18 
REMARK   10  A    between atoms: C_10  and  C_11 
REMARK   11  A    between atoms: C_10  and  O_17 
REMARK   12  A    between atoms: C_11  and  O_12 
REMARK   13  A    between atoms: O_12  and  S_13 
ROOT
HETATM    1  C   UNK N   1      36.544  13.724  11.120  0.00  0.00     0.180 C 
ENDROOT
BRANCH   1   2
HETATM    2  C   UNK N   1      36.626  14.969  10.223  0.00  0.00     0.174 C 
BRANCH   2   3
HETATM    3  C   UNK N   1      35.284  15.391   9.646  0.00  0.00     0.224 C 
BRANCH   3   4
HETATM    4  O   UNK N   1      35.210  16.787   9.637  0.00  0.00    -0.273 OA
BRANCH   4   5
HETATM    5  S   UNK N   1      33.822  17.171   8.702  0.00  0.00     0.261 S 
HETATM    6  C   UNK N   1      33.751  17.836   7.017  0.00  0.00     0.194 C 
HETATM    7  O   UNK N   1      34.574  16.214   7.767  0.00  0.00    -0.199 OA
HETATM    8  O   UNK N   1      34.677  18.443   8.581  0.00  0.00    -0.199 OA
ENDBRANCH   4   5
ENDBRANCH   3   4
ENDBRANCH   2   3
BRANCH   2   9
HETATM    9  O   UNK N   1      37.161  16.032  10.951  0.00  0.00    -0.391 OA
HETATM   10  H   UNK N   1      36.674  16.863  11.067  0.00  0.00     0.210 HD
ENDBRANCH   2   9
ENDBRANCH   1   2
BRANCH   1  11
HETATM   11  C   UNK N   1      35.669  14.008  12.345  0.00  0.00     0.180 C 
BRANCH  11  12
HETATM   12  C   UNK N   1      36.450  13.899  13.660  0.00  0.00     0.174 C 
BRANCH  12  13
HETATM   13  C   UNK N   1      35.663  13.224  14.789  0.00  0.00     0.224 C 
BRANCH  13  14
HETATM   14  O   UNK N   1      35.934  11.841  14.831  0.00  0.00    -0.273 OA
BRANCH  14  15
HETATM   15  S   UNK N   1      34.497  11.077  15.406  0.00  0.00     0.261 S 
HETATM   16  O   UNK N   1      33.573  10.833  14.205  0.00  0.00    -0.199 OA
HETATM   17  O   UNK N   1      33.998  12.512  15.178  0.00  0.00    -0.199 OA
HETATM   18  C   UNK N   1      35.335  10.304  13.988  0.00  0.00     0.194 C 
ENDBRANCH  14  15
ENDBRANCH  13  14
ENDBRANCH  12  13
BRANCH  12  19
HETATM   19  O   UNK N   1      36.887  15.161  14.061  0.00  0.00    -0.391 OA
HETATM   20  H   UNK N   1      37.247  15.992  13.713  0.00  0.00     0.210 HD
ENDBRANCH  12  19
ENDBRANCH  11  12
BRANCH  11  21
HETATM   21  O   UNK N   1      34.519  13.213  12.373  0.00  0.00    -0.390 OA
HETATM   22  H   UNK N   1      33.641  13.599  12.516  0.00  0.00     0.210 HD
ENDBRANCH  11  21
ENDBRANCH   1  11
BRANCH   1  23
HETATM   23  O   UNK N   1      37.816  13.360  11.570  0.00  0.00    -0.390 OA
HETATM   24  H   UNK N   1      38.105  13.606  12.463  0.00  0.00     0.210 HD
ENDBRANCH   1  23
TORSDOF 13
ENDMDL
MODEL 7
REMARK VINA RESULT:      -5.3      2.332      3.291
REMARK  13 active torsions:
REMARK  status: ('A' for Active; 'I' for Inactive)
REMARK    1  A    between atoms: S_2  and  O_5 
REMARK    2  A    between atoms: O_5  and  C_6 
REMARK    3  A    between atoms: C_6  and  C_7 
REMARK    4  A    between atoms: C_7  and  C_8 
REMARK    5  A    between atoms: C_7  and  O_20 
REMARK    6  A    between atoms: C_8  and  C_9 
REMARK    7  A    between atoms: C_8  and  O_19 
REMARK    8  A    between atoms: C_9  and  C_10 
REMARK    9  A    between atoms: C_9  and  O_18 
REMARK   10  A    between atoms: C_10  and  C_11 
REMARK   11  A    between atoms: C_10  and  O_17 
REMARK   12  A    between atoms: C_11  and  O_12 
REMARK   13  A    between atoms: O_12  and  S_13 
ROOT
HETATM    1  C   UNK N   1      34.764  14.941  10.690  0.00  0.00     0.180 C 
ENDROOT
BRANCH   1   2
HETATM    2  C   UNK N   1      35.761  15.541  11.695  0.00  0.00     0.174 C 
BRANCH   2   3
HETATM    3  C   UNK N   1      36.163  14.578  12.801  0.00  0.00     0.224 C 
BRANCH   3   4
HETATM    4  O   UNK N   1      35.033  13.875  13.227  0.00  0.00    -0.273 OA
BRANCH   4   5
HETATM    5  S   UNK N   1      35.619  12.655  14.283  0.00  0.00     0.261 S 
HETATM    6  C   UNK N   1      35.916  12.763  16.069  0.00  0.00     0.194 C 
HETATM    7  O   UNK N   1      34.310  13.065  14.973  0.00  0.00    -0.199 OA
HETATM    8  O   UNK N   1      36.521  13.854  14.614  0.00  0.00    -0.199 OA
ENDBRANCH   4   5
ENDBRANCH   3   4
ENDBRANCH   2   3
BRANCH   2   9
HETATM    9  O   UNK N   1      36.907  15.961  11.020  0.00  0.00    -0.391 OA
HETATM   10  H   UNK N   1      37.605  15.336  10.770  0.00  0.00     0.210 HD
ENDBRANCH   2   9
ENDBRANCH   1   2
BRANCH   1  11
HETATM   11  C   UNK N   1      34.855  15.675   9.349  0.00  0.00     0.180 C 
BRANCH  11  12
HETATM   12  C   UNK N   1      34.289  17.098   9.421  0.00  0.00     0.174 C 
BRANCH  12  13
HETATM   13  C   UNK N   1      33.381  17.460   8.240  0.00  0.00     0.224 C 
BRANCH  13  14
HETATM   14  O   UNK N   1      32.077  16.963   8.439  0.00  0.00    -0.273 OA
BRANCH  14  15
HETATM   15  S   UNK N   1      31.305  16.979   6.896  0.00  0.00     0.261 S 
HETATM   16  O   UNK N   1      29.871  16.464   7.075  0.00  0.00    -0.199 OA
HETATM   17  O   UNK N   1      31.596  15.481   7.065  0.00  0.00    -0.199 OA
HETATM   18  C   UNK N   1      30.415  17.765   8.275  0.00  0.00     0.194 C 
ENDBRANCH  14  15
ENDBRANCH  13  14
ENDBRANCH  12  13
BRANCH  12  19
HETATM   19  O   UNK N   1      35.328  18.021   9.534  0.00  0.00    -0.391 OA
HETATM   20  H   UNK N   1      36.009  18.334  10.150  0.00  0.00     0.210 HD
ENDBRANCH  12  19
ENDBRANCH  11  12
BRANCH  11  21
HETATM   21  O   UNK N   1      34.271  14.951   8.305  0.00  0.00    -0.390 OA
HETATM   22  H   UNK N   1      34.807  14.409   7.705  0.00  0.00     0.210 HD
ENDBRANCH  11  21
ENDBRANCH   1  11
BRANCH   1  23
HETATM   23  O   UNK N   1      33.456  15.065  11.165  0.00  0.00    -0.390 OA
HETATM   24  H   UNK N   1      32.939  15.860  10.964  0.00  0.00     0.210 HD
ENDBRANCH   1  23
TORSDOF 13
ENDMDL
MODEL 8
REMARK VINA RESULT:      -5.3      1.520      7.613
REMARK  13 active torsions:
REMARK  status: ('A' for Active; 'I' for Inactive)
REMARK    1  A    between atoms: S_2  and  O_5 
REMARK    2  A    between atoms: O_5  and  C_6 
REMARK    3  A    between atoms: C_6  and  C_7 
REMARK    4  A    between atoms: C_7  and  C_8 
REMARK    5  A    between atoms: C_7  and  O_20 
REMARK    6  A    between atoms: C_8  and  C_9 
REMARK    7  A    between atoms: C_8  and  O_19 
REMARK    8  A    between atoms: C_9  and  C_10 
REMARK    9  A    between atoms: C_9  and  O_18 
REMARK   10  A    between atoms: C_10  and  C_11 
REMARK   11  A    between atoms: C_10  and  O_17 
REMARK   12  A    between atoms: C_11  and  O_12 
REMARK   13  A    between atoms: O_12  and  S_13 
ROOT
HETATM    1  C   UNK N   1      36.009  14.940  10.754  0.00  0.00     0.180 C 
ENDROOT
BRANCH   1   2
HETATM    2  C   UNK N   1      34.648  15.290  10.132  0.00  0.00     0.174 C 
BRANCH   2   3
HETATM    3  C   UNK N   1      34.747  16.236   8.945  0.00  0.00     0.224 C 
BRANCH   3   4
HETATM    4  O   UNK N   1      34.279  17.496   9.326  0.00  0.00    -0.273 OA
BRANCH   4   5
HETATM    5  S   UNK N   1      33.308  18.044   8.020  0.00  0.00     0.261 S 
HETATM    6  C   UNK N   1      33.440  17.610   6.264  0.00  0.00     0.194 C 
HETATM    7  O   UNK N   1      33.187  16.520   7.882  0.00  0.00    -0.199 OA
HETATM    8  O   UNK N   1      34.737  18.279   7.505  0.00  0.00    -0.199 OA
ENDBRANCH   4   5
ENDBRANCH   3   4
ENDBRANCH   2   3
BRANCH   2   9
HETATM    9  O   UNK N   1      34.007  14.120   9.726  0.00  0.00    -0.391 OA
HETATM   10  H   UNK N   1      34.391  13.540   9.049  0.00  0.00     0.210 HD
ENDBRANCH   2   9
ENDBRANCH   1   2
BRANCH   1  11
HETATM   11  C   UNK N   1      35.814  14.298  12.131  0.00  0.00     0.180 C 
BRANCH  11  12
HETATM   12  C   UNK N   1      36.736  13.093  12.350  0.00  0.00     0.174 C 
BRANCH  12  13
HETATM   13  C   UNK N   1      37.027  12.801  13.828  0.00  0.00     0.224 C 
BRANCH  13  14
HETATM   14  O   UNK N   1      35.927  12.168  14.439  0.00  0.00    -0.273 OA
BRANCH  14  15
HETATM   15  S   UNK N   1      35.658  12.987  15.934  0.00  0.00     0.261 S 
HETATM   16  O   UNK N   1      34.872  12.048  16.858  0.00  0.00    -0.199 OA
HETATM   17  O   UNK N   1      34.271  13.098  15.283  0.00  0.00    -0.199 OA
HETATM   18  C   UNK N   1      36.350  11.306  16.024  0.00  0.00     0.194 C 
ENDBRANCH  14  15
ENDBRANCH  13  14
ENDBRANCH  12  13
BRANCH  12  19
HETATM   19  O   UNK N   1      37.927  13.269  11.647  0.00  0.00    -0.391 OA
HETATM   20  H   UNK N   1      38.461  12.879  10.937  0.00  0.00     0.210 HD
ENDBRANCH  12  19
ENDBRANCH  11  12
BRANCH  11  21
HETATM   21  O   UNK N   1      34.479  13.965  12.378  0.00  0.00    -0.390 OA
HETATM   22  H   UNK N   1      33.791  14.646  12.439  0.00  0.00     0.210 HD
ENDBRANCH  11  21
ENDBRANCH   1  11
BRANCH   1  23
HETATM   23  O   UNK N   1      36.782  16.092  10.918  0.00  0.00    -0.390 OA
HETATM   24  H   UNK N   1      36.547  16.907  10.448  0.00  0.00     0.210 HD
ENDBRANCH   1  23
TORSDOF 13
ENDMDL
MODEL 9
REMARK VINA RESULT:      -5.2      1.915      2.595
REMARK  13 active torsions:
REMARK  status: ('A' for Active; 'I' for Inactive)
REMARK    1  A    between atoms: S_2  and  O_5 
REMARK    2  A    between atoms: O_5  and  C_6 
REMARK    3  A    between atoms: C_6  and  C_7 
REMARK    4  A    between atoms: C_7  and  C_8 
REMARK    5  A    between atoms: C_7  and  O_20 
REMARK    6  A    between atoms: C_8  and  C_9 
REMARK    7  A    between atoms: C_8  and  O_19 
REMARK    8  A    between atoms: C_9  and  C_10 
REMARK    9  A    between atoms: C_9  and  O_18 
REMARK   10  A    between atoms: C_10  and  C_11 
REMARK   11  A    between atoms: C_10  and  O_17 
REMARK   12  A    between atoms: C_11  and  O_12 
REMARK   13  A    between atoms: O_12  and  S_13 
ROOT
HETATM    1  C   UNK N   1      36.013  13.910  11.929  0.00  0.00     0.180 C 
ENDROOT
BRANCH   1   2
HETATM    2  C   UNK N   1      35.783  14.238  13.413  0.00  0.00     0.174 C 
BRANCH   2   3
HETATM    3  C   UNK N   1      35.522  13.011  14.273  0.00  0.00     0.224 C 
BRANCH   3   4
HETATM    4  O   UNK N   1      34.262  12.493  13.958  0.00  0.00    -0.273 OA
BRANCH   4   5
HETATM    5  S   UNK N   1      34.265  10.880  14.547  0.00  0.00     0.261 S 
HETATM    6  C   UNK N   1      35.096   9.429  13.845  0.00  0.00     0.194 C 
HETATM    7  O   UNK N   1      35.767  11.179  14.446  0.00  0.00    -0.199 OA
HETATM    8  O   UNK N   1      33.894  10.702  13.066  0.00  0.00    -0.199 OA
ENDBRANCH   4   5
ENDBRANCH   3   4
ENDBRANCH   2   3
BRANCH   2   9
HETATM    9  O   UNK N   1      36.892  14.917  13.917  0.00  0.00    -0.391 OA
HETATM   10  H   UNK N   1      37.714  14.453  14.134  0.00  0.00     0.210 HD
ENDBRANCH   2   9
ENDBRANCH   1   2
BRANCH   1  11
HETATM   11  C   UNK N   1      35.015  14.677  11.054  0.00  0.00     0.180 C 
BRANCH  11  12
HETATM   12  C   UNK N   1      35.462  16.119  10.785  0.00  0.00     0.174 C 
BRANCH  12  13
HETATM   13  C   UNK N   1      34.938  16.687   9.460  0.00  0.00     0.224 C 
BRANCH  13  14
HETATM   14  O   UNK N   1      33.534  16.805   9.486  0.00  0.00    -0.273 OA
BRANCH  14  15
HETATM   15  S   UNK N   1      32.956  16.103   8.019  0.00  0.00     0.261 S 
HETATM   16  O   UNK N   1      31.536  16.625   7.766  0.00  0.00    -0.199 OA
HETATM   17  O   UNK N   1      32.195  15.273   9.064  0.00  0.00    -0.199 OA
HETATM   18  C   UNK N   1      32.804  17.908   8.188  0.00  0.00     0.194 C 
ENDBRANCH  14  15
ENDBRANCH  13  14
ENDBRANCH  12  13
BRANCH  12  19
HETATM   19  O   UNK N   1      36.852  16.205  10.834  0.00  0.00    -0.391 OA
HETATM   20  H   UNK N   1      37.625  15.844  11.295  0.00  0.00     0.210 HD
ENDBRANCH  12  19
ENDBRANCH  11  12
BRANCH  11  21
HETATM   21  O   UNK N   1      33.716  14.638  11.570  0.00  0.00    -0.390 OA
HETATM   22  H   UNK N   1      33.336  13.816  11.919  0.00  0.00     0.210 HD
ENDBRANCH  11  21
ENDBRANCH   1  11
BRANCH   1  23
HETATM   23  O   UNK N   1      35.833  12.544  11.696  0.00  0.00    -0.390 OA
HETATM   24  H   UNK N   1      35.830  12.201  10.789  0.00  0.00     0.210 HD
ENDBRANCH   1  23
TORSDOF 13
ENDMDL
