REMARK  4 active torsions:
REMARK  status: ('A' for Active; 'I' for Inactive)
REMARK    1  A    between atoms: C_2  and  C_1 
REMARK    2  A    between atoms: N_12  and  C_1 
REMARK    3  A    between atoms: N_13  and  C_2 
REMARK    4  A    between atoms: N_14  and  C_9 
ROOT
HETATM    1  C   UNK N   1       0.189   2.631  -0.319  0.00  0.00     0.144 A 
HETATM    2  C   UNK N   1      -1.649   1.585   0.140  0.00  0.00     0.184 A 
HETATM    3  C   UNK N   1      -0.794   3.549  -0.024  0.00  0.00     0.192 A 
HETATM    4  N   UNK N   1      -0.357   1.399  -0.219  0.00  0.00    -0.358 N 
ATOM      5  HN  UNK N   1       0.110   0.507  -0.381  1.00  0.00     0.166 HD
HETATM    6  N   UNK N   1      -1.934   2.894   0.260  0.00  0.00    -0.322 N 
ENDROOT
BRANCH   6   7
HETATM    7  C   UNK N   1      -3.196   3.463   0.710  0.00  0.00     0.162 C 
BRANCH   7   8
HETATM    8  C   UNK N   1      -4.363   3.155  -0.218  0.00  0.00     0.292 C 
BRANCH   8   9
HETATM    9  N   UNK N   1      -5.506   3.933   0.238  0.00  0.00     0.094 N 
HETATM   10  C   UNK N   1      -5.379   5.297  -0.277  0.00  0.00     0.298 C 
HETATM   11  C   UNK N   1      -6.603   6.099   0.165  0.00  0.00     0.198 C 
HETATM   12  O   UNK N   1      -7.761   5.526  -0.394  0.00  0.00    -0.388 OA
HETATM   13  C   UNK N   1      -7.914   4.248   0.179  0.00  0.00     0.198 C 
HETATM   14  C   UNK N   1      -6.751   3.345  -0.255  0.00  0.00     0.298 C 
ENDBRANCH   8   9
ENDBRANCH   7   8
ENDBRANCH   6   7
BRANCH   3  15
HETATM   15  N   UNK N   1      -0.624   4.963   0.003  0.00  0.00    -0.096 N 
HETATM   16  O   UNK N   1       0.455   5.438  -0.180  0.00  0.00    -0.530 OA
HETATM   17  O   UNK N   1      -1.558   5.682   0.191  0.00  0.00    -0.530 OA
ENDBRANCH   3  15
TORSDOF 4
