MODEL 1
REMARK VINA RESULT:      -7.9      0.000      0.000
REMARK  6 active torsions:
REMARK  status: ('A' for Active; 'I' for Inactive)
REMARK    1  A    between atoms: C_3  and  C_15 
REMARK    2  A    between atoms: C_5  and  C_9 
REMARK       I    between atoms: C_9  and  N_11 
REMARK    3  A    between atoms: N_11  and  C_12 
REMARK    4  A    between atoms: C_18  and  C_22 
REMARK       I    between atoms: C_22  and  N_24 
REMARK    5  A    between atoms: N_24  and  C_25 
REMARK    6  A    between atoms: C_25  and  C_26 
ROOT
HETATM    1  C   UNK N   1      35.983  13.763  13.927  0.00  0.00     0.043 A 
HETATM    2  C   UNK N   1      34.882  13.030  14.388  0.00  0.00     0.031 A 
HETATM    3  C   UNK N   1      34.648  12.932  15.764  0.00  0.00     0.021 A 
HETATM    4  C   UNK N   1      35.518  13.544  16.678  0.00  0.00     0.047 A 
HETATM    5  C   UNK N   1      36.610  14.253  16.174  0.00  0.00     0.105 A 
HETATM    6  N   UNK N   1      36.805  14.358  14.837  0.00  0.00    -0.364 N 
ATOM      7  HN  UNK N   1      37.598  14.903  14.500  1.00  0.00     0.165 HD
ENDROOT
BRANCH   1   8
HETATM    8  C   UNK N   1      36.293  13.941  12.481  0.00  0.00     0.000 A 
HETATM    9  C   UNK N   1      37.076  13.059  11.685  0.00  0.00    -0.011 A 
HETATM   10  C   UNK N   1      37.699  11.822  12.247  0.00  0.00     0.052 C 
HETATM   11  C   UNK N   1      37.296  13.364  10.326  0.00  0.00     0.124 A 
HETATM   12  C   UNK N   1      36.735  14.515   9.755  0.00  0.00     0.059 A 
HETATM   13  F   UNK N   1      38.051  12.544   9.554  0.00  0.00    -0.206 F 
HETATM   14  C   UNK N   1      35.954  15.374  10.533  0.00  0.00     0.035 A 
HETATM   15  C   UNK N   1      35.754  15.079  11.877  0.00  0.00     0.031 A 
BRANCH  14  16
HETATM   16  C   UNK N   1      35.296  16.573   9.970  0.00  0.00     0.252 C 
HETATM   17  O   UNK N   1      35.604  17.678  10.392  0.00  0.00    -0.268 OA
HETATM   18  N   UNK N   1      34.346  16.454   9.006  0.00  0.00    -0.352 N 
HETATM   19  H   UNK N   1      34.126  15.557   8.664  0.00  0.00     0.163 HD
BRANCH  18  20
HETATM   20  C   UNK N   1      33.643  17.600   8.465  0.00  0.00     0.084 A 
HETATM   21  C   UNK N   1      33.670  17.590   6.942  0.00  0.00     0.027 A 
HETATM   22  C   UNK N   1      32.438  17.120   7.679  0.00  0.00     0.027 A 
ENDBRANCH  18  20
ENDBRANCH  14  16
ENDBRANCH   1   8
BRANCH   4  23
HETATM   23  C   UNK N   1      35.355  13.445  18.161  0.00  0.00     0.253 C 
HETATM   24  O   UNK N   1      35.207  14.478  18.796  0.00  0.00    -0.268 OA
HETATM   25  N   UNK N   1      35.359  12.270  18.844  0.00  0.00    -0.356 N 
HETATM   26  H   UNK N   1      35.329  12.320  19.827  0.00  0.00     0.162 HD
BRANCH  25  27
HETATM   27  C   UNK N   1      35.406  10.955  18.250  0.00  0.00     0.131 C 
BRANCH  27  28
HETATM   28  C   UNK N   1      35.133   9.855  19.270  0.00  0.00    -0.035 C 
HETATM   29  C   UNK N   1      34.678  10.507  20.559  0.00  0.00     0.016 C 
HETATM   30  C   UNK N   1      36.381   9.039  19.554  0.00  0.00     0.016 C 
HETATM   31  C   UNK N   1      34.033   8.937  18.773  0.00  0.00     0.016 C 
ENDBRANCH  27  28
ENDBRANCH  25  27
ENDBRANCH   4  23
TORSDOF 6
ENDMDL
MODEL 2
REMARK VINA RESULT:      -7.8     12.831     15.801
REMARK  6 active torsions:
REMARK  status: ('A' for Active; 'I' for Inactive)
REMARK    1  A    between atoms: C_3  and  C_15 
REMARK    2  A    between atoms: C_5  and  C_9 
REMARK       I    between atoms: C_9  and  N_11 
REMARK    3  A    between atoms: N_11  and  C_12 
REMARK    4  A    between atoms: C_18  and  C_22 
REMARK       I    between atoms: C_22  and  N_24 
REMARK    5  A    between atoms: N_24  and  C_25 
REMARK    6  A    between atoms: C_25  and  C_26 
ROOT
HETATM    1  C   UNK N   1      21.557  17.092   5.722  0.00  0.00     0.043 A 
HETATM    2  C   UNK N   1      21.792  15.715   5.610  0.00  0.00     0.031 A 
HETATM    3  C   UNK N   1      21.444  14.869   6.669  0.00  0.00     0.021 A 
HETATM    4  C   UNK N   1      20.884  15.394   7.843  0.00  0.00     0.047 A 
HETATM    5  C   UNK N   1      20.680  16.773   7.916  0.00  0.00     0.105 A 
HETATM    6  N   UNK N   1      21.000  17.573   6.869  0.00  0.00    -0.364 N 
ATOM      7  HN  UNK N   1      20.817  18.573   6.943  1.00  0.00     0.165 HD
ENDROOT
BRANCH   1   8
HETATM    8  C   UNK N   1      21.872  18.061   4.635  0.00  0.00     0.000 A 
HETATM    9  C   UNK N   1      20.977  18.478   3.611  0.00  0.00    -0.011 A 
HETATM   10  C   UNK N   1      19.580  17.955   3.514  0.00  0.00     0.052 C 
HETATM   11  C   UNK N   1      21.420  19.397   2.638  0.00  0.00     0.124 A 
HETATM   12  C   UNK N   1      22.722  19.912   2.685  0.00  0.00     0.059 A 
HETATM   13  F   UNK N   1      20.586  19.797   1.644  0.00  0.00    -0.206 F 
HETATM   14  C   UNK N   1      23.597  19.514   3.700  0.00  0.00     0.035 A 
HETATM   15  C   UNK N   1      23.162  18.593   4.648  0.00  0.00     0.031 A 
BRANCH  14  16
HETATM   16  C   UNK N   1      24.964  20.064   3.828  0.00  0.00     0.252 C 
HETATM   17  O   UNK N   1      25.545  20.461   2.829  0.00  0.00    -0.268 OA
HETATM   18  N   UNK N   1      25.580  20.114   5.038  0.00  0.00    -0.352 N 
HETATM   19  H   UNK N   1      25.087  19.809   5.835  0.00  0.00     0.163 HD
BRANCH  18  20
HETATM   20  C   UNK N   1      26.936  20.600   5.199  0.00  0.00     0.084 A 
HETATM   21  C   UNK N   1      27.039  21.558   6.377  0.00  0.00     0.027 A 
HETATM   22  C   UNK N   1      27.481  20.123   6.530  0.00  0.00     0.027 A 
ENDBRANCH  18  20
ENDBRANCH  14  16
ENDBRANCH   1   8
BRANCH   4  23
HETATM   23  C   UNK N   1      20.529  14.558   9.030  0.00  0.00     0.253 C 
HETATM   24  O   UNK N   1      19.359  14.515   9.377  0.00  0.00    -0.268 OA
HETATM   25  N   UNK N   1      21.434  13.839   9.745  0.00  0.00    -0.356 N 
HETATM   26  H   UNK N   1      21.111  13.388  10.559  0.00  0.00     0.162 HD
BRANCH  25  27
HETATM   27  C   UNK N   1      22.831  13.681   9.412  0.00  0.00     0.131 C 
BRANCH  27  28
HETATM   28  C   UNK N   1      23.409  12.382   9.966  0.00  0.00    -0.035 C 
HETATM   29  C   UNK N   1      24.851  12.633  10.352  0.00  0.00     0.016 C 
HETATM   30  C   UNK N   1      23.370  11.272   8.931  0.00  0.00     0.016 C 
HETATM   31  C   UNK N   1      22.642  11.949  11.200  0.00  0.00     0.016 C 
ENDBRANCH  27  28
ENDBRANCH  25  27
ENDBRANCH   4  23
TORSDOF 6
ENDMDL
MODEL 3
REMARK VINA RESULT:      -7.8     20.195     23.114
REMARK  6 active torsions:
REMARK  status: ('A' for Active; 'I' for Inactive)
REMARK    1  A    between atoms: C_3  and  C_15 
REMARK    2  A    between atoms: C_5  and  C_9 
REMARK       I    between atoms: C_9  and  N_11 
REMARK    3  A    between atoms: N_11  and  C_12 
REMARK    4  A    between atoms: C_18  and  C_22 
REMARK       I    between atoms: C_22  and  N_24 
REMARK    5  A    between atoms: N_24  and  C_25 
REMARK    6  A    between atoms: C_25  and  C_26 
ROOT
HETATM    1  C   UNK N   1      28.176  24.946  -3.749  0.00  0.00     0.043 A 
HETATM    2  C   UNK N   1      27.919  23.935  -2.814  0.00  0.00     0.031 A 
HETATM    3  C   UNK N   1      28.880  22.943  -2.592  0.00  0.00     0.021 A 
HETATM    4  C   UNK N   1      30.085  22.947  -3.311  0.00  0.00     0.047 A 
HETATM    5  C   UNK N   1      30.293  23.966  -4.241  0.00  0.00     0.105 A 
HETATM    6  N   UNK N   1      29.359  24.933  -4.424  0.00  0.00    -0.364 N 
ATOM      7  HN  UNK N   1      29.551  25.677  -5.094  1.00  0.00     0.165 HD
ENDROOT
BRANCH   1   8
HETATM    8  C   UNK N   1      27.221  26.055  -4.030  0.00  0.00     0.000 A 
HETATM    9  C   UNK N   1      26.064  25.964  -4.852  0.00  0.00    -0.011 A 
HETATM   10  C   UNK N   1      25.683  24.700  -5.552  0.00  0.00     0.052 C 
HETATM   11  C   UNK N   1      25.256  27.105  -5.037  0.00  0.00     0.124 A 
HETATM   12  C   UNK N   1      25.575  28.314  -4.404  0.00  0.00     0.059 A 
HETATM   13  F   UNK N   1      24.156  27.044  -5.829  0.00  0.00    -0.206 F 
HETATM   14  C   UNK N   1      26.704  28.399  -3.584  0.00  0.00     0.035 A 
HETATM   15  C   UNK N   1      27.508  27.277  -3.419  0.00  0.00     0.031 A 
BRANCH  14  16
HETATM   16  C   UNK N   1      27.059  29.634  -2.851  0.00  0.00     0.252 C 
HETATM   17  O   UNK N   1      26.731  30.718  -3.312  0.00  0.00    -0.268 OA
HETATM   18  N   UNK N   1      27.757  29.572  -1.687  0.00  0.00    -0.352 N 
HETATM   19  H   UNK N   1      27.993  28.688  -1.321  0.00  0.00     0.163 HD
BRANCH  18  20
HETATM   20  C   UNK N   1      28.166  30.760  -0.965  0.00  0.00     0.084 A 
HETATM   21  C   UNK N   1      28.662  30.408   0.432  0.00  0.00     0.027 A 
HETATM   22  C   UNK N   1      29.652  30.679  -0.675  0.00  0.00     0.027 A 
ENDBRANCH  18  20
ENDBRANCH  14  16
ENDBRANCH   1   8
BRANCH   4  23
HETATM   23  C   UNK N   1      31.137  21.896  -3.157  0.00  0.00     0.253 C 
HETATM   24  O   UNK N   1      31.876  21.956  -2.186  0.00  0.00    -0.268 OA
HETATM   25  N   UNK N   1      31.320  20.876  -4.036  0.00  0.00    -0.356 N 
HETATM   26  H   UNK N   1      32.094  20.286  -3.888  0.00  0.00     0.162 HD
BRANCH  25  27
HETATM   27  C   UNK N   1      30.473  20.584  -5.169  0.00  0.00     0.131 C 
BRANCH  27  28
HETATM   28  C   UNK N   1      31.261  20.536  -6.475  0.00  0.00    -0.035 C 
HETATM   29  C   UNK N   1      32.644  19.998  -6.174  0.00  0.00     0.016 C 
HETATM   30  C   UNK N   1      31.401  21.917  -7.089  0.00  0.00     0.016 C 
HETATM   31  C   UNK N   1      30.583  19.610  -7.465  0.00  0.00     0.016 C 
ENDBRANCH  27  28
ENDBRANCH  25  27
ENDBRANCH   4  23
TORSDOF 6
ENDMDL
MODEL 4
REMARK VINA RESULT:      -7.7     13.106     16.146
REMARK  6 active torsions:
REMARK  status: ('A' for Active; 'I' for Inactive)
REMARK    1  A    between atoms: C_3  and  C_15 
REMARK    2  A    between atoms: C_5  and  C_9 
REMARK       I    between atoms: C_9  and  N_11 
REMARK    3  A    between atoms: N_11  and  C_12 
REMARK    4  A    between atoms: C_18  and  C_22 
REMARK       I    between atoms: C_22  and  N_24 
REMARK    5  A    between atoms: N_24  and  C_25 
REMARK    6  A    between atoms: C_25  and  C_26 
ROOT
HETATM    1  C   UNK N   1      21.744  17.132   4.808  0.00  0.00     0.043 A 
HETATM    2  C   UNK N   1      21.150  17.182   6.076  0.00  0.00     0.031 A 
HETATM    3  C   UNK N   1      20.871  15.990   6.753  0.00  0.00     0.021 A 
HETATM    4  C   UNK N   1      21.163  14.752   6.161  0.00  0.00     0.047 A 
HETATM    5  C   UNK N   1      21.743  14.749   4.891  0.00  0.00     0.105 A 
HETATM    6  N   UNK N   1      22.029  15.916   4.262  0.00  0.00    -0.364 N 
ATOM      7  HN  UNK N   1      22.474  15.881   3.346  1.00  0.00     0.165 HD
ENDROOT
BRANCH   1   8
HETATM    8  C   UNK N   1      22.099  18.351   4.028  0.00  0.00     0.000 A 
HETATM    9  C   UNK N   1      21.210  19.099   3.208  0.00  0.00    -0.011 A 
HETATM   10  C   UNK N   1      19.776  18.713   3.031  0.00  0.00     0.052 C 
HETATM   11  C   UNK N   1      21.692  20.228   2.516  0.00  0.00     0.124 A 
HETATM   12  C   UNK N   1      23.030  20.627   2.648  0.00  0.00     0.059 A 
HETATM   13  F   UNK N   1      20.864  20.947   1.717  0.00  0.00    -0.206 F 
HETATM   14  C   UNK N   1      23.900  19.901   3.465  0.00  0.00     0.035 A 
HETATM   15  C   UNK N   1      23.425  18.776   4.131  0.00  0.00     0.031 A 
BRANCH  14  16
HETATM   16  C   UNK N   1      25.306  20.305   3.681  0.00  0.00     0.252 C 
HETATM   17  O   UNK N   1      26.006  20.573   2.716  0.00  0.00    -0.268 OA
HETATM   18  N   UNK N   1      25.826  20.363   4.935  0.00  0.00    -0.352 N 
HETATM   19  H   UNK N   1      25.240  20.163   5.702  0.00  0.00     0.163 HD
BRANCH  18  20
HETATM   20  C   UNK N   1      27.211  20.706   5.185  0.00  0.00     0.084 A 
HETATM   21  C   UNK N   1      27.341  21.604   6.408  0.00  0.00     0.027 A 
HETATM   22  C   UNK N   1      27.635  20.127   6.521  0.00  0.00     0.027 A 
ENDBRANCH  18  20
ENDBRANCH  14  16
ENDBRANCH   1   8
BRANCH   4  23
HETATM   23  C   UNK N   1      20.854  13.439   6.806  0.00  0.00     0.253 C 
HETATM   24  O   UNK N   1      19.980  12.744   6.312  0.00  0.00    -0.268 OA
HETATM   25  N   UNK N   1      21.493  12.973   7.912  0.00  0.00    -0.356 N 
HETATM   26  H   UNK N   1      21.157  12.135   8.307  0.00  0.00     0.162 HD
BRANCH  25  27
HETATM   27  C   UNK N   1      22.622  13.602   8.557  0.00  0.00     0.131 C 
BRANCH  27  28
HETATM   28  C   UNK N   1      23.367  12.639   9.475  0.00  0.00    -0.035 C 
HETATM   29  C   UNK N   1      23.407  11.282   8.805  0.00  0.00     0.016 C 
HETATM   30  C   UNK N   1      22.668  12.498  10.815  0.00  0.00     0.016 C 
HETATM   31  C   UNK N   1      24.789  13.116   9.696  0.00  0.00     0.016 C 
ENDBRANCH  27  28
ENDBRANCH  25  27
ENDBRANCH   4  23
TORSDOF 6
ENDMDL
MODEL 5
REMARK VINA RESULT:      -7.4      5.966     10.288
REMARK  6 active torsions:
REMARK  status: ('A' for Active; 'I' for Inactive)
REMARK    1  A    between atoms: C_3  and  C_15 
REMARK    2  A    between atoms: C_5  and  C_9 
REMARK       I    between atoms: C_9  and  N_11 
REMARK    3  A    between atoms: N_11  and  C_12 
REMARK    4  A    between atoms: C_18  and  C_22 
REMARK       I    between atoms: C_22  and  N_24 
REMARK    5  A    between atoms: N_24  and  C_25 
REMARK    6  A    between atoms: C_25  and  C_26 
ROOT
HETATM    1  C   UNK N   1      31.296  17.215   6.195  0.00  0.00     0.043 A 
HETATM    2  C   UNK N   1      32.572  17.209   5.617  0.00  0.00     0.031 A 
HETATM    3  C   UNK N   1      33.692  17.447   6.421  0.00  0.00     0.021 A 
HETATM    4  C   UNK N   1      33.541  17.710   7.791  0.00  0.00     0.047 A 
HETATM    5  C   UNK N   1      32.250  17.720   8.321  0.00  0.00     0.105 A 
HETATM    6  N   UNK N   1      31.179  17.461   7.530  0.00  0.00    -0.364 N 
ATOM      7  HN  UNK N   1      30.251  17.452   7.952  1.00  0.00     0.165 HD
ENDROOT
BRANCH   1   8
HETATM    8  C   UNK N   1      30.052  16.946   5.420  0.00  0.00     0.000 A 
HETATM    9  C   UNK N   1      29.635  15.676   4.936  0.00  0.00    -0.011 A 
HETATM   10  C   UNK N   1      30.442  14.437   5.155  0.00  0.00     0.052 C 
HETATM   11  C   UNK N   1      28.434  15.575   4.204  0.00  0.00     0.124 A 
HETATM   12  C   UNK N   1      27.645  16.710   3.970  0.00  0.00     0.059 A 
HETATM   13  F   UNK N   1      28.025  14.375   3.720  0.00  0.00    -0.206 F 
HETATM   14  C   UNK N   1      28.047  17.956   4.459  0.00  0.00     0.035 A 
HETATM   15  C   UNK N   1      29.242  18.054   5.165  0.00  0.00     0.031 A 
BRANCH  14  16
HETATM   16  C   UNK N   1      27.229  19.176   4.286  0.00  0.00     0.252 C 
HETATM   17  O   UNK N   1      27.760  20.272   4.392  0.00  0.00    -0.268 OA
HETATM   18  N   UNK N   1      25.898  19.087   4.030  0.00  0.00    -0.352 N 
HETATM   19  H   UNK N   1      25.492  18.194   3.927  0.00  0.00     0.163 HD
BRANCH  18  20
HETATM   20  C   UNK N   1      25.053  20.257   3.903  0.00  0.00     0.084 A 
HETATM   21  C   UNK N   1      24.671  20.502   2.449  0.00  0.00     0.027 A 
HETATM   22  C   UNK N   1      23.692  19.835   3.385  0.00  0.00     0.027 A 
ENDBRANCH  18  20
ENDBRANCH  14  16
ENDBRANCH   1   8
BRANCH   4  23
HETATM   23  C   UNK N   1      34.687  18.015   8.701  0.00  0.00     0.253 C 
HETATM   24  O   UNK N   1      35.281  19.072   8.549  0.00  0.00    -0.268 OA
HETATM   25  N   UNK N   1      35.107  17.184   9.691  0.00  0.00    -0.356 N 
HETATM   26  H   UNK N   1      35.923  17.440  10.179  0.00  0.00     0.162 HD
BRANCH  25  27
HETATM   27  C   UNK N   1      34.457  15.956  10.086  0.00  0.00     0.131 C 
BRANCH  27  28
HETATM   28  C   UNK N   1      35.446  14.939  10.648  0.00  0.00    -0.035 C 
HETATM   29  C   UNK N   1      35.880  15.410  12.020  0.00  0.00     0.016 C 
HETATM   30  C   UNK N   1      36.676  14.817   9.766  0.00  0.00     0.016 C 
HETATM   31  C   UNK N   1      34.785  13.581  10.784  0.00  0.00     0.016 C 
ENDBRANCH  27  28
ENDBRANCH  25  27
ENDBRANCH   4  23
TORSDOF 6
ENDMDL
MODEL 6
REMARK VINA RESULT:      -7.2      8.647     13.455
REMARK  6 active torsions:
REMARK  status: ('A' for Active; 'I' for Inactive)
REMARK    1  A    between atoms: C_3  and  C_15 
REMARK    2  A    between atoms: C_5  and  C_9 
REMARK       I    between atoms: C_9  and  N_11 
REMARK    3  A    between atoms: N_11  and  C_12 
REMARK    4  A    between atoms: C_18  and  C_22 
REMARK       I    between atoms: C_22  and  N_24 
REMARK    5  A    between atoms: N_24  and  C_25 
REMARK    6  A    between atoms: C_25  and  C_26 
ROOT
HETATM    1  C   UNK N   1      27.210  18.370   6.096  0.00  0.00     0.043 A 
HETATM    2  C   UNK N   1      27.975  17.213   5.898  0.00  0.00     0.031 A 
HETATM    3  C   UNK N   1      28.903  16.827   6.871  0.00  0.00     0.021 A 
HETATM    4  C   UNK N   1      29.083  17.600   8.028  0.00  0.00     0.047 A 
HETATM    5  C   UNK N   1      28.308  18.751   8.178  0.00  0.00     0.105 A 
HETATM    6  N   UNK N   1      27.396  19.095   7.235  0.00  0.00    -0.364 N 
ATOM      7  HN  UNK N   1      26.829  19.928   7.385  1.00  0.00     0.165 HD
ENDROOT
BRANCH   1   8
HETATM    8  C   UNK N   1      26.182  18.841   5.126  0.00  0.00     0.000 A 
HETATM    9  C   UNK N   1      26.402  19.767   4.069  0.00  0.00    -0.011 A 
HETATM   10  C   UNK N   1      27.737  20.394   3.826  0.00  0.00     0.052 C 
HETATM   11  C   UNK N   1      25.326  20.130   3.233  0.00  0.00     0.124 A 
HETATM   12  C   UNK N   1      24.055  19.571   3.425  0.00  0.00     0.059 A 
HETATM   13  F   UNK N   1      25.511  21.023   2.229  0.00  0.00    -0.206 F 
HETATM   14  C   UNK N   1      23.842  18.649   4.454  0.00  0.00     0.035 A 
HETATM   15  C   UNK N   1      24.902  18.308   5.288  0.00  0.00     0.031 A 
BRANCH  14  16
HETATM   16  C   UNK N   1      22.536  17.991   4.669  0.00  0.00     0.252 C 
HETATM   17  O   UNK N   1      21.700  18.014   3.778  0.00  0.00    -0.268 OA
HETATM   18  N   UNK N   1      22.255  17.379   5.850  0.00  0.00    -0.352 N 
HETATM   19  H   UNK N   1      22.950  17.352   6.549  0.00  0.00     0.163 HD
BRANCH  18  20
HETATM   20  C   UNK N   1      20.970  16.765   6.118  0.00  0.00     0.084 A 
HETATM   21  C   UNK N   1      21.057  15.805   7.297  0.00  0.00     0.027 A 
HETATM   22  C   UNK N   1      20.492  17.191   7.493  0.00  0.00     0.027 A 
ENDBRANCH  18  20
ENDBRANCH  14  16
ENDBRANCH   1   8
BRANCH   4  23
HETATM   23  C   UNK N   1      30.085  17.272   9.088  0.00  0.00     0.253 C 
HETATM   24  O   UNK N   1      29.691  16.724  10.106  0.00  0.00    -0.268 OA
HETATM   25  N   UNK N   1      31.412  17.547   8.983  0.00  0.00    -0.356 N 
HETATM   26  H   UNK N   1      31.974  17.367   9.772  0.00  0.00     0.162 HD
BRANCH  25  27
HETATM   27  C   UNK N   1      32.068  18.082   7.813  0.00  0.00     0.131 C 
BRANCH  27  28
HETATM   28  C   UNK N   1      33.461  17.494   7.617  0.00  0.00    -0.035 C 
HETATM   29  C   UNK N   1      33.509  16.149   8.312  0.00  0.00     0.016 C 
HETATM   30  C   UNK N   1      34.530  18.388   8.219  0.00  0.00     0.016 C 
HETATM   31  C   UNK N   1      33.745  17.290   6.142  0.00  0.00     0.016 C 
ENDBRANCH  27  28
ENDBRANCH  25  27
ENDBRANCH   4  23
TORSDOF 6
ENDMDL
MODEL 7
REMARK VINA RESULT:      -7.1     12.028     15.075
REMARK  6 active torsions:
REMARK  status: ('A' for Active; 'I' for Inactive)
REMARK    1  A    between atoms: C_3  and  C_15 
REMARK    2  A    between atoms: C_5  and  C_9 
REMARK       I    between atoms: C_9  and  N_11 
REMARK    3  A    between atoms: N_11  and  C_12 
REMARK    4  A    between atoms: C_18  and  C_22 
REMARK       I    between atoms: C_22  and  N_24 
REMARK    5  A    between atoms: N_24  and  C_25 
REMARK    6  A    between atoms: C_25  and  C_26 
ROOT
HETATM    1  C   UNK N   1      23.857  17.700   4.814  0.00  0.00     0.043 A 
HETATM    2  C   UNK N   1      23.584  16.408   4.346  0.00  0.00     0.031 A 
HETATM    3  C   UNK N   1      22.426  15.751   4.777  0.00  0.00     0.021 A 
HETATM    4  C   UNK N   1      21.554  16.370   5.684  0.00  0.00     0.047 A 
HETATM    5  C   UNK N   1      21.872  17.652   6.134  0.00  0.00     0.105 A 
HETATM    6  N   UNK N   1      22.986  18.282   5.686  0.00  0.00    -0.364 N 
ATOM      7  HN  UNK N   1      23.179  19.227   6.015  1.00  0.00     0.165 HD
ENDROOT
BRANCH   1   8
HETATM    8  C   UNK N   1      25.052  18.482   4.390  0.00  0.00     0.000 A 
HETATM    9  C   UNK N   1      25.031  19.669   3.606  0.00  0.00    -0.011 A 
HETATM   10  C   UNK N   1      23.757  20.265   3.101  0.00  0.00     0.052 C 
HETATM   11  C   UNK N   1      26.247  20.297   3.270  0.00  0.00     0.124 A 
HETATM   12  C   UNK N   1      27.467  19.773   3.718  0.00  0.00     0.059 A 
HETATM   13  F   UNK N   1      26.250  21.422   2.511  0.00  0.00    -0.206 F 
HETATM   14  C   UNK N   1      27.488  18.616   4.501  0.00  0.00     0.035 A 
HETATM   15  C   UNK N   1      26.287  17.988   4.815  0.00  0.00     0.031 A 
BRANCH  14  16
HETATM   16  C   UNK N   1      28.741  18.048   5.043  0.00  0.00     0.252 C 
HETATM   17  O   UNK N   1      28.937  18.074   6.249  0.00  0.00    -0.268 OA
HETATM   18  N   UNK N   1      29.677  17.518   4.213  0.00  0.00    -0.352 N 
HETATM   19  H   UNK N   1      29.492  17.487   3.246  0.00  0.00     0.163 HD
BRANCH  18  20
HETATM   20  C   UNK N   1      30.939  16.997   4.700  0.00  0.00     0.084 A 
HETATM   21  C   UNK N   1      31.778  16.439   3.559  0.00  0.00     0.027 A 
HETATM   22  C   UNK N   1      32.074  17.812   4.112  0.00  0.00     0.027 A 
ENDBRANCH  18  20
ENDBRANCH  14  16
ENDBRANCH   1   8
BRANCH   4  23
HETATM   23  C   UNK N   1      20.322  15.712   6.219  0.00  0.00     0.253 C 
HETATM   24  O   UNK N   1      19.343  15.641   5.493  0.00  0.00    -0.268 OA
HETATM   25  N   UNK N   1      20.230  15.186   7.469  0.00  0.00    -0.356 N 
HETATM   26  H   UNK N   1      19.349  14.850   7.754  0.00  0.00     0.162 HD
BRANCH  25  27
HETATM   27  C   UNK N   1      21.316  15.078   8.416  0.00  0.00     0.131 C 
BRANCH  27  28
HETATM   28  C   UNK N   1      21.985  13.708   8.367  0.00  0.00    -0.035 C 
HETATM   29  C   UNK N   1      22.074  13.174   9.781  0.00  0.00     0.016 C 
HETATM   30  C   UNK N   1      23.388  13.796   7.793  0.00  0.00     0.016 C 
HETATM   31  C   UNK N   1      21.158  12.748   7.534  0.00  0.00     0.016 C 
ENDBRANCH  27  28
ENDBRANCH  25  27
ENDBRANCH   4  23
TORSDOF 6
ENDMDL
MODEL 8
REMARK VINA RESULT:      -7.1      8.905     13.318
REMARK  6 active torsions:
REMARK  status: ('A' for Active; 'I' for Inactive)
REMARK    1  A    between atoms: C_3  and  C_15 
REMARK    2  A    between atoms: C_5  and  C_9 
REMARK       I    between atoms: C_9  and  N_11 
REMARK    3  A    between atoms: N_11  and  C_12 
REMARK    4  A    between atoms: C_18  and  C_22 
REMARK       I    between atoms: C_22  and  N_24 
REMARK    5  A    between atoms: N_24  and  C_25 
REMARK    6  A    between atoms: C_25  and  C_26 
ROOT
HETATM    1  C   UNK N   1      27.317  17.113   5.915  0.00  0.00     0.043 A 
HETATM    2  C   UNK N   1      28.525  17.649   5.450  0.00  0.00     0.031 A 
HETATM    3  C   UNK N   1      29.538  17.957   6.364  0.00  0.00     0.021 A 
HETATM    4  C   UNK N   1      29.343  17.749   7.738  0.00  0.00     0.047 A 
HETATM    5  C   UNK N   1      28.119  17.224   8.157  0.00  0.00     0.105 A 
HETATM    6  N   UNK N   1      27.159  16.909   7.254  0.00  0.00    -0.364 N 
ATOM      7  HN  UNK N   1      26.285  16.505   7.589  1.00  0.00     0.165 HD
ENDROOT
BRANCH   1   8
HETATM    8  C   UNK N   1      26.195  16.733   5.012  0.00  0.00     0.000 A 
HETATM    9  C   UNK N   1      26.202  15.648   4.091  0.00  0.00    -0.011 A 
HETATM   10  C   UNK N   1      27.388  14.754   3.925  0.00  0.00     0.052 C 
HETATM   11  C   UNK N   1      25.066  15.415   3.288  0.00  0.00     0.124 A 
HETATM   12  C   UNK N   1      23.931  16.230   3.406  0.00  0.00     0.059 A 
HETATM   13  F   UNK N   1      25.058  14.395   2.394  0.00  0.00    -0.206 F 
HETATM   14  C   UNK N   1      23.919  17.286   4.321  0.00  0.00     0.035 A 
HETATM   15  C   UNK N   1      25.048  17.524   5.098  0.00  0.00     0.031 A 
BRANCH  14  16
HETATM   16  C   UNK N   1      22.731  18.144   4.524  0.00  0.00     0.252 C 
HETATM   17  O   UNK N   1      22.222  18.208   5.633  0.00  0.00    -0.268 OA
HETATM   18  N   UNK N   1      22.197  18.843   3.488  0.00  0.00    -0.352 N 
HETATM   19  H   UNK N   1      22.635  18.795   2.606  0.00  0.00     0.163 HD
BRANCH  18  20
HETATM   20  C   UNK N   1      21.006  19.656   3.634  0.00  0.00     0.084 A 
HETATM   21  C   UNK N   1      20.656  20.354   2.327  0.00  0.00     0.027 A 
HETATM   22  C   UNK N   1      19.915  19.105   2.738  0.00  0.00     0.027 A 
ENDBRANCH  18  20
ENDBRANCH  14  16
ENDBRANCH   1   8
BRANCH   4  23
HETATM   23  C   UNK N   1      30.364  18.093   8.775  0.00  0.00     0.253 C 
HETATM   24  O   UNK N   1      30.036  18.843   9.682  0.00  0.00    -0.268 OA
HETATM   25  N   UNK N   1      31.637  17.618   8.767  0.00  0.00    -0.356 N 
HETATM   26  H   UNK N   1      32.255  17.972   9.448  0.00  0.00     0.162 HD
BRANCH  25  27
HETATM   27  C   UNK N   1      32.161  16.638   7.844  0.00  0.00     0.131 C 
BRANCH  27  28
HETATM   28  C   UNK N   1      33.477  17.087   7.218  0.00  0.00    -0.035 C 
HETATM   29  C   UNK N   1      33.969  18.305   7.972  0.00  0.00     0.016 C 
HETATM   30  C   UNK N   1      33.297  17.461   5.758  0.00  0.00     0.016 C 
HETATM   31  C   UNK N   1      34.517  15.990   7.333  0.00  0.00     0.016 C 
ENDBRANCH  27  28
ENDBRANCH  25  27
ENDBRANCH   4  23
TORSDOF 6
ENDMDL
MODEL 9
REMARK VINA RESULT:      -7.1     11.798     14.857
REMARK  6 active torsions:
REMARK  status: ('A' for Active; 'I' for Inactive)
REMARK    1  A    between atoms: C_3  and  C_15 
REMARK    2  A    between atoms: C_5  and  C_9 
REMARK       I    between atoms: C_9  and  N_11 
REMARK    3  A    between atoms: N_11  and  C_12 
REMARK    4  A    between atoms: C_18  and  C_22 
REMARK       I    between atoms: C_22  and  N_24 
REMARK    5  A    between atoms: N_24  and  C_25 
REMARK    6  A    between atoms: C_25  and  C_26 
ROOT
HETATM    1  C   UNK N   1      22.880  16.798   5.499  0.00  0.00     0.043 A 
HETATM    2  C   UNK N   1      21.856  16.988   6.437  0.00  0.00     0.031 A 
HETATM    3  C   UNK N   1      21.288  15.876   7.069  0.00  0.00     0.021 A 
HETATM    4  C   UNK N   1      21.724  14.580   6.754  0.00  0.00     0.047 A 
HETATM    5  C   UNK N   1      22.737  14.439   5.805  0.00  0.00     0.105 A 
HETATM    6  N   UNK N   1      23.292  15.529   5.221  0.00  0.00    -0.364 N 
ATOM      7  HN  UNK N   1      24.047  15.394   4.550  1.00  0.00     0.165 HD
ENDROOT
BRANCH   1   8
HETATM    8  C   UNK N   1      23.558  17.924   4.797  0.00  0.00     0.000 A 
HETATM    9  C   UNK N   1      22.914  18.918   4.008  0.00  0.00    -0.011 A 
HETATM   10  C   UNK N   1      21.436  18.924   3.787  0.00  0.00     0.052 C 
HETATM   11  C   UNK N   1      23.690  19.921   3.392  0.00  0.00     0.124 A 
HETATM   12  C   UNK N   1      25.080  19.955   3.568  0.00  0.00     0.059 A 
HETATM   13  F   UNK N   1      23.098  20.869   2.623  0.00  0.00    -0.206 F 
HETATM   14  C   UNK N   1      25.711  18.988   4.355  0.00  0.00     0.035 A 
HETATM   15  C   UNK N   1      24.945  17.989   4.946  0.00  0.00     0.031 A 
BRANCH  14  16
HETATM   16  C   UNK N   1      27.167  19.005   4.616  0.00  0.00     0.252 C 
HETATM   17  O   UNK N   1      27.820  19.989   4.301  0.00  0.00    -0.268 OA
HETATM   18  N   UNK N   1      27.781  17.935   5.186  0.00  0.00    -0.352 N 
HETATM   19  H   UNK N   1      27.235  17.160   5.453  0.00  0.00     0.163 HD
BRANCH  18  20
HETATM   20  C   UNK N   1      29.212  17.893   5.413  0.00  0.00     0.084 A 
HETATM   21  C   UNK N   1      29.681  16.472   5.694  0.00  0.00     0.027 A 
HETATM   22  C   UNK N   1      29.866  17.070   4.320  0.00  0.00     0.027 A 
ENDBRANCH  18  20
ENDBRANCH  14  16
ENDBRANCH   1   8
BRANCH   4  23
HETATM   23  C   UNK N   1      21.135  13.346   7.358  0.00  0.00     0.253 C 
HETATM   24  O   UNK N   1      20.340  12.700   6.693  0.00  0.00    -0.268 OA
HETATM   25  N   UNK N   1      21.435  12.899   8.606  0.00  0.00    -0.356 N 
HETATM   26  H   UNK N   1      20.929  12.123   8.941  0.00  0.00     0.162 HD
BRANCH  25  27
HETATM   27  C   UNK N   1      22.431  13.467   9.483  0.00  0.00     0.131 C 
BRANCH  27  28
HETATM   28  C   UNK N   1      23.481  12.441   9.899  0.00  0.00    -0.035 C 
HETATM   29  C   UNK N   1      24.843  13.095   9.810  0.00  0.00     0.016 C 
HETATM   30  C   UNK N   1      23.464  11.230   8.984  0.00  0.00     0.016 C 
HETATM   31  C   UNK N   1      23.245  11.997  11.330  0.00  0.00     0.016 C 
ENDBRANCH  27  28
ENDBRANCH  25  27
ENDBRANCH   4  23
TORSDOF 6
ENDMDL
