REMARK  5 active torsions:
REMARK  status: ('A' for Active; 'I' for Inactive)
REMARK    1  A    between atoms: C_14  and  C_16 
REMARK    2  A    between atoms: C_16  and  N_17 
REMARK    3  A    between atoms: C_20  and  N_23 
REMARK    4  A    between atoms: N_23  and  C_24 
REMARK    5  A    between atoms: C_24  and  C_25 
ROOT
HETATM    1  N   UNK N   1       2.644  -3.599   0.113  0.00  0.00     0.090 N 
HETATM    2  C   UNK N   1       3.746  -4.549  -0.015  0.00  0.00     0.274 C 
HETATM    3  C   UNK N   1       3.252  -5.931   0.445  0.00  0.00     0.055 C 
HETATM    4  C   UNK N   1       2.023  -6.344  -0.377  0.00  0.00     0.080 C 
HETATM    5  C   UNK N   1       0.963  -5.241  -0.375  0.00  0.00     0.055 C 
HETATM    6  C   UNK N   1       1.607  -3.957  -0.847  0.00  0.00     0.274 C 
ENDROOT
BRANCH   1   7
HETATM    7  C   UNK N   1       3.057  -2.232  -0.162  0.00  0.00     0.299 C 
BRANCH   7   8
HETATM    8  C   UNK N   1       2.310  -1.299   0.799  0.00  0.00     0.141 A 
HETATM    9  N   UNK N   1       2.392   0.102   0.377  0.00  0.00    -0.289 N 
HETATM   10  C   UNK N   1       3.486   0.918   0.225  0.00  0.00     0.265 A 
HETATM   11  C   UNK N   1       1.171   0.568   0.154  0.00  0.00     0.143 A 
HETATM   12  C   UNK N   1       3.277   2.256  -0.174  0.00  0.00     0.163 A 
HETATM   13  O   UNK N   1       4.611   0.502   0.432  0.00  0.00    -0.266 OA
HETATM   14  N   UNK N   1       2.002   2.710  -0.399  0.00  0.00    -0.358 N 
HETATM   15  C   UNK N   1       0.938   1.875  -0.241  0.00  0.00     0.077 A 
ATOM     16  HN  UNK N   1       1.851   3.677  -0.687  1.00  0.00     0.165 HD
HETATM   17  C   UNK N   1      -0.388   2.276  -0.454  0.00  0.00     0.039 A 
HETATM   18  C   UNK N   1      -1.429   1.340  -0.266  0.00  0.00     0.077 A 
HETATM   19  C   UNK N   1      -1.118   0.026   0.139  0.00  0.00     0.249 A 
HETATM   20  O   UNK N   1      -2.002  -0.795   0.305  0.00  0.00    -0.268 OA
HETATM   21  N   UNK N   1       0.198  -0.309   0.342  0.00  0.00    -0.296 N 
HETATM   22  C   UNK N   1       0.761  -1.579   0.774  0.00  0.00     0.161 A 
ENDBRANCH   7   8
ENDBRANCH   1   7
BRANCH   4  23
HETATM   23  N   UNK N   1       1.443  -7.589   0.111  0.00  0.00    -0.412 N 
HETATM   24  H   UNK N   1       1.606  -8.038   1.012  0.00  0.00     0.153 HD
BRANCH  23  25
HETATM   25  C   UNK N   1       0.579  -8.053  -0.966  0.00  0.00     0.171 C 
BRANCH  25  26
HETATM   26  C   UNK N   1      -0.547  -8.887  -0.470  0.00  0.00     0.027 A 
HETATM   27  C   UNK N   1      -1.838  -8.350  -0.431  0.00  0.00     0.036 A 
HETATM   28  C   UNK N   1      -2.910  -9.172  -0.084  0.00  0.00    -0.021 A 
HETATM   29  C   UNK N   1      -2.681 -10.528   0.206  0.00  0.00     0.090 A 
HETATM   30  C   UNK N   1      -4.304  -8.623  -0.052  0.00  0.00     0.043 C 
HETATM   31  C   UNK N   1      -1.375 -11.022   0.159  0.00  0.00     0.125 A 
HETATM   32  O   UNK N   1      -3.710 -11.356   0.512  0.00  0.00    -0.349 OA
HETATM   33  N   UNK N   1      -0.344 -10.201  -0.178  0.00  0.00    -0.365 N 
ATOM     34  HN  UNK N   1       0.603 -10.578  -0.213  1.00  0.00     0.165 HD
HETATM   35  C   UNK N   1      -5.017 -10.916   0.662  0.00  0.00     0.176 C 
HETATM   36  C   UNK N   1      -5.326  -9.738  -0.264  0.00  0.00     0.031 C 
ENDBRANCH  25  26
ENDBRANCH  23  25
ENDBRANCH   4  23
TORSDOF 5
