MODEL 1
REMARK VINA RESULT:      -7.1      0.000      0.000
REMARK  7 active torsions:
REMARK  status: ('A' for Active; 'I' for Inactive)
REMARK    1  A    between atoms: C_9  and  C_5 
REMARK    2  A    between atoms: N_25  and  C_5 
REMARK    3  A    between atoms: C_9  and  C_6 
REMARK    4  A    between atoms: O_26  and  C_6 
REMARK    5  A    between atoms: C_9  and  O_27 
REMARK    6  A    between atoms: N_23  and  C_11 
REMARK    7  A    between atoms: N_23  and  C_14 
ROOT
HETATM    1  C   UNK N   1      19.125  14.243   0.801  0.00  0.00     0.161 C 
HETATM    2  C   UNK N   1      20.242  17.982   2.179  0.00  0.00     0.187 A 
HETATM    3  C   UNK N   1      20.241  15.875   3.984  0.00  0.00     0.106 A 
HETATM    4  C   UNK N   1      19.814  13.519   4.413  0.00  0.00     0.211 A 
HETATM    5  C   UNK N   1      20.204  14.786   4.891  0.00  0.00     0.097 A 
HETATM    6  C   UNK N   1      19.865  15.679   2.639  0.00  0.00     0.129 A 
HETATM    7  C   UNK N   1      20.651  17.174   4.371  0.00  0.00     0.265 A 
HETATM    8  C   UNK N   1      19.476  13.359   3.062  0.00  0.00     0.289 A 
HETATM    9  F   UNK N   1      19.723  12.443   5.227  0.00  0.00    -0.198 F 
HETATM   10  N   UNK N   1      19.871  16.737   1.780  0.00  0.00    -0.337 N 
ATOM     11  HN  UNK N   1      19.592  16.589   0.810  1.00  0.00     0.168 HD
HETATM   12  N   UNK N   1      19.500  14.436   2.201  0.00  0.00    -0.301 N 
HETATM   13  N   UNK N   1      20.627  18.208   3.462  0.00  0.00    -0.307 N 
HETATM   14  O   UNK N   1      21.056  17.382   5.504  0.00  0.00    -0.267 OA
HETATM   15  O   UNK N   1      19.145  12.256   2.656  0.00  0.00    -0.264 OA
ENDROOT
BRANCH   5  16
HETATM   16  N   UNK N   1      20.492  15.058   6.265  0.00  0.00    -0.350 N 
HETATM   17  H   UNK N   1      20.239  15.974   6.522  0.00  0.00     0.166 HD
BRANCH  16  18
HETATM   18  C   UNK N   1      21.050  14.335   7.351  0.00  0.00     0.071 A 
HETATM   19  C   UNK N   1      22.121  13.445   7.210  0.00  0.00     0.034 A 
HETATM   20  C   UNK N   1      22.641  12.786   8.330  0.00  0.00     0.020 A 
HETATM   21  C   UNK N   1      22.097  13.023   9.597  0.00  0.00     0.009 A 
HETATM   22  C   UNK N   1      21.041  13.920   9.745  0.00  0.00     0.062 A 
HETATM   23  I   UNK N   1      22.865  12.041  11.290  0.00  0.00    -0.044 I 
HETATM   24  C   UNK N   1      20.522  14.577   8.630  0.00  0.00     0.144 A 
HETATM   25  F   UNK N   1      19.497  15.452   8.788  0.00  0.00    -0.204 F 
ENDBRANCH  16  18
ENDBRANCH   5  16
BRANCH  13  26
HETATM   26  C   UNK N   1      21.115  19.541   3.835  0.00  0.00     0.166 C 
BRANCH  26  27
HETATM   27  C   UNK N   1      21.918  20.275   2.746  0.00  0.00     0.160 C 
BRANCH  27  28
HETATM   28  C   UNK N   1      23.391  20.115   3.094  0.00  0.00     0.197 C 
BRANCH  28  29
HETATM   29  O   UNK N   1      24.179  20.975   2.327  0.00  0.00    -0.398 OA
HETATM   30  H   UNK N   1      25.131  21.109   2.199  0.00  0.00     0.209 HD
ENDBRANCH  28  29
ENDBRANCH  27  28
BRANCH  27  31
HETATM   31  O   UNK N   1      21.614  21.637   2.688  0.00  0.00    -0.392 OA
HETATM   32  H   UNK N   1      22.198  22.386   2.883  0.00  0.00     0.210 HD
ENDBRANCH  27  31
ENDBRANCH  26  27
ENDBRANCH  13  26
TORSDOF 7
ENDMDL
MODEL 2
REMARK VINA RESULT:      -7.1      4.736      7.396
REMARK  7 active torsions:
REMARK  status: ('A' for Active; 'I' for Inactive)
REMARK    1  A    between atoms: C_9  and  C_5 
REMARK    2  A    between atoms: N_25  and  C_5 
REMARK    3  A    between atoms: C_9  and  C_6 
REMARK    4  A    between atoms: O_26  and  C_6 
REMARK    5  A    between atoms: C_9  and  O_27 
REMARK    6  A    between atoms: N_23  and  C_11 
REMARK    7  A    between atoms: N_23  and  C_14 
ROOT
HETATM    1  C   UNK N   1      21.233  20.414   2.455  0.00  0.00     0.161 C 
HETATM    2  C   UNK N   1      20.420  17.037   4.704  0.00  0.00     0.187 A 
HETATM    3  C   UNK N   1      23.032  17.968   4.651  0.00  0.00     0.106 A 
HETATM    4  C   UNK N   1      24.632  19.596   3.807  0.00  0.00     0.211 A 
HETATM    5  C   UNK N   1      24.364  18.450   4.583  0.00  0.00     0.097 A 
HETATM    6  C   UNK N   1      22.014  18.622   3.927  0.00  0.00     0.129 A 
HETATM    7  C   UNK N   1      22.669  16.844   5.431  0.00  0.00     0.265 A 
HETATM    8  C   UNK N   1      23.586  20.234   3.126  0.00  0.00     0.289 A 
HETATM    9  F   UNK N   1      25.882  20.091   3.669  0.00  0.00    -0.198 F 
HETATM   10  N   UNK N   1      20.742  18.135   3.971  0.00  0.00    -0.337 N 
ATOM     11  HN  UNK N   1      20.011  18.609   3.440  1.00  0.00     0.168 HD
HETATM   12  N   UNK N   1      22.301  19.738   3.190  0.00  0.00    -0.301 N 
HETATM   13  N   UNK N   1      21.369  16.389   5.428  0.00  0.00    -0.307 N 
HETATM   14  O   UNK N   1      23.496  16.286   6.134  0.00  0.00    -0.267 OA
HETATM   15  O   UNK N   1      23.827  21.230   2.462  0.00  0.00    -0.264 OA
ENDROOT
BRANCH   5  16
HETATM   16  N   UNK N   1      25.378  17.691   5.248  0.00  0.00    -0.350 N 
HETATM   17  H   UNK N   1      25.001  17.085   5.926  0.00  0.00     0.166 HD
BRANCH  16  18
HETATM   18  C   UNK N   1      26.791  17.594   5.173  0.00  0.00     0.071 A 
HETATM   19  C   UNK N   1      27.638  17.898   6.245  0.00  0.00     0.034 A 
HETATM   20  C   UNK N   1      29.024  17.753   6.110  0.00  0.00     0.020 A 
HETATM   21  C   UNK N   1      29.566  17.295   4.905  0.00  0.00     0.009 A 
HETATM   22  C   UNK N   1      28.726  16.977   3.840  0.00  0.00     0.062 A 
HETATM   23  I   UNK N   1      31.645  17.073   4.685  0.00  0.00    -0.044 I 
HETATM   24  C   UNK N   1      27.346  17.121   3.973  0.00  0.00     0.144 A 
HETATM   25  F   UNK N   1      26.538  16.803   2.930  0.00  0.00    -0.204 F 
ENDBRANCH  16  18
ENDBRANCH   5  16
BRANCH  13  26
HETATM   26  C   UNK N   1      20.968  15.268   6.286  0.00  0.00     0.166 C 
BRANCH  26  27
HETATM   27  C   UNK N   1      20.453  15.660   7.683  0.00  0.00     0.160 C 
BRANCH  27  28
HETATM   28  C   UNK N   1      20.778  14.505   8.618  0.00  0.00     0.197 C 
BRANCH  28  29
HETATM   29  O   UNK N   1      19.688  14.209   9.438  0.00  0.00    -0.398 OA
HETATM   30  H   UNK N   1      18.974  13.552   9.427  0.00  0.00     0.209 HD
ENDBRANCH  28  29
ENDBRANCH  27  28
BRANCH  27  31
HETATM   31  O   UNK N   1      19.074  15.880   7.699  0.00  0.00    -0.392 OA
HETATM   32  H   UNK N   1      18.601  16.709   7.528  0.00  0.00     0.210 HD
ENDBRANCH  27  31
ENDBRANCH  26  27
ENDBRANCH  13  26
TORSDOF 7
ENDMDL
MODEL 3
REMARK VINA RESULT:      -7.0      5.355      7.031
REMARK  7 active torsions:
REMARK  status: ('A' for Active; 'I' for Inactive)
REMARK    1  A    between atoms: C_9  and  C_5 
REMARK    2  A    between atoms: N_25  and  C_5 
REMARK    3  A    between atoms: C_9  and  C_6 
REMARK    4  A    between atoms: O_26  and  C_6 
REMARK    5  A    between atoms: C_9  and  O_27 
REMARK    6  A    between atoms: N_23  and  C_11 
REMARK    7  A    between atoms: N_23  and  C_14 
ROOT
HETATM    1  C   UNK N   1      22.276  15.084   6.967  0.00  0.00     0.161 C 
HETATM    2  C   UNK N   1      21.794  18.382   4.515  0.00  0.00     0.187 A 
HETATM    3  C   UNK N   1      24.364  17.415   4.906  0.00  0.00     0.106 A 
HETATM    4  C   UNK N   1      25.823  15.798   5.990  0.00  0.00     0.211 A 
HETATM    5  C   UNK N   1      25.670  16.917   5.147  0.00  0.00     0.097 A 
HETATM    6  C   UNK N   1      23.256  16.805   5.531  0.00  0.00     0.129 A 
HETATM    7  C   UNK N   1      24.115  18.514   4.048  0.00  0.00     0.265 A 
HETATM    8  C   UNK N   1      24.694  15.202   6.568  0.00  0.00     0.289 A 
HETATM    9  F   UNK N   1      27.040  15.290   6.291  0.00  0.00    -0.198 F 
HETATM   10  N   UNK N   1      22.007  17.309   5.321  0.00  0.00    -0.337 N 
ATOM     11  HN  UNK N   1      21.211  16.868   5.781  1.00  0.00     0.168 HD
HETATM   12  N   UNK N   1      23.435  15.715   6.336  0.00  0.00    -0.301 N 
HETATM   13  N   UNK N   1      22.833  18.988   3.882  0.00  0.00    -0.307 N 
HETATM   14  O   UNK N   1      25.029  19.031   3.426  0.00  0.00    -0.267 OA
HETATM   15  O   UNK N   1      24.837  14.230   7.292  0.00  0.00    -0.264 OA
ENDROOT
BRANCH   5  16
HETATM   16  N   UNK N   1      26.768  17.633   4.576  0.00  0.00    -0.350 N 
HETATM   17  H   UNK N   1      26.510  18.539   4.290  0.00  0.00     0.166 HD
BRANCH  16  18
HETATM   18  C   UNK N   1      28.137  17.364   4.321  0.00  0.00     0.071 A 
HETATM   19  C   UNK N   1      29.175  17.844   5.128  0.00  0.00     0.034 A 
HETATM   20  C   UNK N   1      30.505  17.516   4.833  0.00  0.00     0.020 A 
HETATM   21  C   UNK N   1      30.798  16.700   3.736  0.00  0.00     0.009 A 
HETATM   22  C   UNK N   1      29.766  16.208   2.939  0.00  0.00     0.062 A 
HETATM   23  I   UNK N   1      32.787  16.200   3.279  0.00  0.00    -0.044 I 
HETATM   24  C   UNK N   1      28.443  16.534   3.231  0.00  0.00     0.144 A 
HETATM   25  F   UNK N   1      27.447  16.044   2.450  0.00  0.00    -0.204 F 
ENDBRANCH  16  18
ENDBRANCH   5  16
BRANCH  13  26
HETATM   26  C   UNK N   1      22.556  20.080   2.943  0.00  0.00     0.166 C 
BRANCH  26  27
HETATM   27  C   UNK N   1      21.070  20.292   2.600  0.00  0.00     0.160 C 
BRANCH  27  28
HETATM   28  C   UNK N   1      20.961  20.310   1.082  0.00  0.00     0.197 C 
BRANCH  28  29
HETATM   29  O   UNK N   1      20.419  21.517   0.638  0.00  0.00    -0.398 OA
HETATM   30  H   UNK N   1      20.680  22.450   0.684  0.00  0.00     0.209 HD
ENDBRANCH  28  29
ENDBRANCH  27  28
BRANCH  27  31
HETATM   31  O   UNK N   1      20.576  21.497   3.102  0.00  0.00    -0.392 OA
HETATM   32  H   UNK N   1      19.657  21.720   3.317  0.00  0.00     0.210 HD
ENDBRANCH  27  31
ENDBRANCH  26  27
ENDBRANCH  13  26
TORSDOF 7
ENDMDL
MODEL 4
REMARK VINA RESULT:      -7.0     14.252     16.056
REMARK  7 active torsions:
REMARK  status: ('A' for Active; 'I' for Inactive)
REMARK    1  A    between atoms: C_9  and  C_5 
REMARK    2  A    between atoms: N_25  and  C_5 
REMARK    3  A    between atoms: C_9  and  C_6 
REMARK    4  A    between atoms: O_26  and  C_6 
REMARK    5  A    between atoms: C_9  and  O_27 
REMARK    6  A    between atoms: N_23  and  C_11 
REMARK    7  A    between atoms: N_23  and  C_14 
ROOT
HETATM    1  C   UNK N   1      37.173  11.151   7.618  0.00  0.00     0.161 C 
HETATM    2  C   UNK N   1      35.428  14.836   8.321  0.00  0.00     0.187 A 
HETATM    3  C   UNK N   1      35.340  12.945  10.349  0.00  0.00     0.106 A 
HETATM    4  C   UNK N   1      35.876  10.696  11.104  0.00  0.00     0.211 A 
HETATM    5  C   UNK N   1      35.286  11.950  11.358  0.00  0.00     0.097 A 
HETATM    6  C   UNK N   1      35.954  12.656   9.113  0.00  0.00     0.129 A 
HETATM    7  C   UNK N   1      34.801  14.242  10.530  0.00  0.00     0.265 A 
HETATM    8  C   UNK N   1      36.503  10.458   9.873  0.00  0.00     0.289 A 
HETATM    9  F   UNK N   1      35.832   9.688  12.006  0.00  0.00    -0.198 F 
HETATM   10  N   UNK N   1      35.975  13.606   8.136  0.00  0.00    -0.337 N 
ATOM     11  HN  UNK N   1      36.415  13.389   7.242  1.00  0.00     0.168 HD
HETATM   12  N   UNK N   1      36.528  11.433   8.899  0.00  0.00    -0.301 N 
HETATM   13  N   UNK N   1      34.841  15.160   9.503  0.00  0.00    -0.307 N 
HETATM   14  O   UNK N   1      34.325  14.569  11.606  0.00  0.00    -0.267 OA
HETATM   15  O   UNK N   1      37.016   9.370   9.666  0.00  0.00    -0.264 OA
ENDROOT
BRANCH   5  16
HETATM   16  N   UNK N   1      34.560  12.256  12.552  0.00  0.00    -0.350 N 
HETATM   17  H   UNK N   1      33.770  12.816  12.372  0.00  0.00     0.166 HD
BRANCH  16  18
HETATM   18  C   UNK N   1      34.695  11.953  13.931  0.00  0.00     0.071 A 
HETATM   19  C   UNK N   1      34.193  10.782  14.510  0.00  0.00     0.034 A 
HETATM   20  C   UNK N   1      34.386  10.533  15.875  0.00  0.00     0.020 A 
HETATM   21  C   UNK N   1      35.090  11.451  16.661  0.00  0.00     0.009 A 
HETATM   22  C   UNK N   1      35.604  12.611  16.085  0.00  0.00     0.062 A 
HETATM   23  I   UNK N   1      35.388  11.094  18.711  0.00  0.00    -0.044 I 
HETATM   24  C   UNK N   1      35.412  12.860  14.727  0.00  0.00     0.144 A 
HETATM   25  F   UNK N   1      35.923  13.991  14.178  0.00  0.00    -0.204 F 
ENDBRANCH  16  18
ENDBRANCH   5  16
BRANCH  13  26
HETATM   26  C   UNK N   1      34.349  16.527   9.704  0.00  0.00     0.166 C 
BRANCH  26  27
HETATM   27  C   UNK N   1      33.368  17.037   8.634  0.00  0.00     0.160 C 
BRANCH  27  28
HETATM   28  C   UNK N   1      33.975  18.299   8.037  0.00  0.00     0.197 C 
BRANCH  28  29
HETATM   29  O   UNK N   1      34.567  18.029   6.802  0.00  0.00    -0.398 OA
HETATM   30  H   UNK N   1      34.450  18.352   5.896  0.00  0.00     0.209 HD
ENDBRANCH  28  29
ENDBRANCH  27  28
BRANCH  27  31
HETATM   31  O   UNK N   1      32.115  17.347   9.166  0.00  0.00    -0.392 OA
HETATM   32  H   UNK N   1      31.482  18.012   8.852  0.00  0.00     0.210 HD
ENDBRANCH  27  31
ENDBRANCH  26  27
ENDBRANCH  13  26
TORSDOF 7
ENDMDL
MODEL 5
REMARK VINA RESULT:      -6.9      3.103      4.576
REMARK  7 active torsions:
REMARK  status: ('A' for Active; 'I' for Inactive)
REMARK    1  A    between atoms: C_9  and  C_5 
REMARK    2  A    between atoms: N_25  and  C_5 
REMARK    3  A    between atoms: C_9  and  C_6 
REMARK    4  A    between atoms: O_26  and  C_6 
REMARK    5  A    between atoms: C_9  and  O_27 
REMARK    6  A    between atoms: N_23  and  C_11 
REMARK    7  A    between atoms: N_23  and  C_14 
ROOT
HETATM    1  C   UNK N   1      20.695  20.659   2.194  0.00  0.00     0.161 C 
HETATM    2  C   UNK N   1      24.680  20.512   3.298  0.00  0.00     0.187 A 
HETATM    3  C   UNK N   1      23.079  18.330   3.906  0.00  0.00     0.106 A 
HETATM    4  C   UNK N   1      20.873  17.305   3.856  0.00  0.00     0.211 A 
HETATM    5  C   UNK N   1      22.231  17.240   4.229  0.00  0.00     0.097 A 
HETATM    6  C   UNK N   1      22.549  19.458   3.247  0.00  0.00     0.129 A 
HETATM    7  C   UNK N   1      24.461  18.335   4.214  0.00  0.00     0.265 A 
HETATM    8  C   UNK N   1      20.392  18.432   3.176  0.00  0.00     0.289 A 
HETATM    9  F   UNK N   1      19.999  16.319   4.161  0.00  0.00    -0.198 F 
HETATM   10  N   UNK N   1      23.362  20.515   2.968  0.00  0.00    -0.337 N 
ATOM     11  HN  UNK N   1      22.971  21.331   2.497  1.00  0.00     0.168 HD
HETATM   12  N   UNK N   1      21.229  19.489   2.888  0.00  0.00    -0.301 N 
HETATM   13  N   UNK N   1      25.233  19.437   3.918  0.00  0.00    -0.307 N 
HETATM   14  O   UNK N   1      24.986  17.355   4.717  0.00  0.00    -0.267 OA
HETATM   15  O   UNK N   1      19.215  18.475   2.852  0.00  0.00    -0.264 OA
ENDROOT
BRANCH   5  16
HETATM   16  N   UNK N   1      22.792  16.167   4.990  0.00  0.00    -0.350 N 
HETATM   17  H   UNK N   1      23.609  15.807   4.575  0.00  0.00     0.166 HD
BRANCH  16  18
HETATM   18  C   UNK N   1      22.464  15.493   6.194  0.00  0.00     0.071 A 
HETATM   19  C   UNK N   1      21.509  15.964   7.101  0.00  0.00     0.034 A 
HETATM   20  C   UNK N   1      21.215  15.233   8.258  0.00  0.00     0.020 A 
HETATM   21  C   UNK N   1      21.870  14.022   8.506  0.00  0.00     0.009 A 
HETATM   22  C   UNK N   1      22.812  13.541   7.599  0.00  0.00     0.062 A 
HETATM   23  I   UNK N   1      21.442  12.912  10.239  0.00  0.00    -0.044 I 
HETATM   24  C   UNK N   1      23.105  14.269   6.447  0.00  0.00     0.144 A 
HETATM   25  F   UNK N   1      24.020  13.787   5.568  0.00  0.00    -0.204 F 
ENDBRANCH  16  18
ENDBRANCH   5  16
BRANCH  13  26
HETATM   26  C   UNK N   1      26.679  19.425   4.170  0.00  0.00     0.166 C 
BRANCH  26  27
HETATM   27  C   UNK N   1      27.108  19.921   5.562  0.00  0.00     0.160 C 
BRANCH  27  28
HETATM   28  C   UNK N   1      27.934  18.811   6.195  0.00  0.00     0.197 C 
BRANCH  28  29
HETATM   29  O   UNK N   1      27.109  17.830   6.745  0.00  0.00    -0.398 OA
HETATM   30  H   UNK N   1      27.116  16.861   6.778  0.00  0.00     0.209 HD
ENDBRANCH  28  29
ENDBRANCH  27  28
BRANCH  27  31
HETATM   31  O   UNK N   1      26.016  20.198   6.387  0.00  0.00    -0.392 OA
HETATM   32  H   UNK N   1      25.087  20.298   6.131  0.00  0.00     0.210 HD
ENDBRANCH  27  31
ENDBRANCH  26  27
ENDBRANCH  13  26
TORSDOF 7
ENDMDL
MODEL 6
REMARK VINA RESULT:      -6.8     15.374     16.784
REMARK  7 active torsions:
REMARK  status: ('A' for Active; 'I' for Inactive)
REMARK    1  A    between atoms: C_9  and  C_5 
REMARK    2  A    between atoms: N_25  and  C_5 
REMARK    3  A    between atoms: C_9  and  C_6 
REMARK    4  A    between atoms: O_26  and  C_6 
REMARK    5  A    between atoms: C_9  and  O_27 
REMARK    6  A    between atoms: N_23  and  C_11 
REMARK    7  A    between atoms: N_23  and  C_14 
ROOT
HETATM    1  C   UNK N   1      25.730  21.032  -8.645  0.00  0.00     0.161 C 
HETATM    2  C   UNK N   1      29.437  20.675  -6.842  0.00  0.00     0.187 A 
HETATM    3  C   UNK N   1      28.231  23.173  -6.856  0.00  0.00     0.106 A 
HETATM    4  C   UNK N   1      26.345  24.556  -7.528  0.00  0.00     0.211 A 
HETATM    5  C   UNK N   1      27.604  24.444  -6.903  0.00  0.00     0.097 A 
HETATM    6  C   UNK N   1      27.603  22.060  -7.452  0.00  0.00     0.129 A 
HETATM    7  C   UNK N   1      29.480  22.964  -6.222  0.00  0.00     0.265 A 
HETATM    8  C   UNK N   1      25.740  23.419  -8.082  0.00  0.00     0.289 A 
HETATM    9  F   UNK N   1      25.704  25.741  -7.640  0.00  0.00    -0.198 F 
HETATM   10  N   UNK N   1      28.225  20.848  -7.432  0.00  0.00    -0.337 N 
ATOM     11  HN  UNK N   1      27.769  20.049  -7.870  1.00  0.00     0.168 HD
HETATM   12  N   UNK N   1      26.377  22.196  -8.042  0.00  0.00    -0.301 N 
HETATM   13  N   UNK N   1      30.068  21.719  -6.242  0.00  0.00    -0.307 N 
HETATM   14  O   UNK N   1      30.031  23.876  -5.627  0.00  0.00    -0.267 OA
HETATM   15  O   UNK N   1      24.647  23.526  -8.615  0.00  0.00    -0.264 OA
ENDROOT
BRANCH   5  16
HETATM   16  N   UNK N   1      28.328  25.560  -6.379  0.00  0.00    -0.350 N 
HETATM   17  H   UNK N   1      29.303  25.426  -6.431  0.00  0.00     0.166 HD
BRANCH  16  18
HETATM   18  C   UNK N   1      27.993  26.813  -5.804  0.00  0.00     0.071 A 
HETATM   19  C   UNK N   1      27.996  28.012  -6.525  0.00  0.00     0.034 A 
HETATM   20  C   UNK N   1      27.627  29.210  -5.901  0.00  0.00     0.020 A 
HETATM   21  C   UNK N   1      27.244  29.209  -4.556  0.00  0.00     0.009 A 
HETATM   22  C   UNK N   1      27.225  28.015  -3.838  0.00  0.00     0.062 A 
HETATM   23  I   UNK N   1      26.688  30.998  -3.603  0.00  0.00    -0.044 I 
HETATM   24  C   UNK N   1      27.593  26.822  -4.458  0.00  0.00     0.144 A 
HETATM   25  F   UNK N   1      27.564  25.666  -3.750  0.00  0.00    -0.204 F 
ENDBRANCH  16  18
ENDBRANCH   5  16
BRANCH  13  26
HETATM   26  C   UNK N   1      31.327  21.476  -5.528  0.00  0.00     0.166 C 
BRANCH  26  27
HETATM   27  C   UNK N   1      31.189  20.741  -4.183  0.00  0.00     0.160 C 
BRANCH  27  28
HETATM   28  C   UNK N   1      31.435  21.767  -3.087  0.00  0.00     0.197 C 
BRANCH  28  29
HETATM   29  O   UNK N   1      32.389  21.305  -2.179  0.00  0.00    -0.398 OA
HETATM   30  H   UNK N   1      32.886  20.481  -2.060  0.00  0.00     0.209 HD
ENDBRANCH  28  29
ENDBRANCH  27  28
BRANCH  27  31
HETATM   31  O   UNK N   1      32.115  19.704  -4.047  0.00  0.00    -0.392 OA
HETATM   32  H   UNK N   1      32.554  19.201  -4.750  0.00  0.00     0.210 HD
ENDBRANCH  27  31
ENDBRANCH  26  27
ENDBRANCH  13  26
TORSDOF 7
ENDMDL
MODEL 7
REMARK VINA RESULT:      -6.7     14.524     16.280
REMARK  7 active torsions:
REMARK  status: ('A' for Active; 'I' for Inactive)
REMARK    1  A    between atoms: C_9  and  C_5 
REMARK    2  A    between atoms: N_25  and  C_5 
REMARK    3  A    between atoms: C_9  and  C_6 
REMARK    4  A    between atoms: O_26  and  C_6 
REMARK    5  A    between atoms: C_9  and  O_27 
REMARK    6  A    between atoms: N_23  and  C_11 
REMARK    7  A    between atoms: N_23  and  C_14 
ROOT
HETATM    1  C   UNK N   1      37.968  12.670   7.228  0.00  0.00     0.161 C 
HETATM    2  C   UNK N   1      34.901  15.428   7.563  0.00  0.00     0.187 A 
HETATM    3  C   UNK N   1      35.944  14.351   9.896  0.00  0.00     0.106 A 
HETATM    4  C   UNK N   1      37.516  12.818  10.945  0.00  0.00     0.211 A 
HETATM    5  C   UNK N   1      36.477  13.763  11.071  0.00  0.00     0.097 A 
HETATM    6  C   UNK N   1      36.439  13.964   8.634  0.00  0.00     0.129 A 
HETATM    7  C   UNK N   1      34.922  15.330   9.933  0.00  0.00     0.265 A 
HETATM    8  C   UNK N   1      38.000  12.483   9.673  0.00  0.00     0.289 A 
HETATM    9  F   UNK N   1      38.049  12.192  12.019  0.00  0.00    -0.198 F 
HETATM   10  N   UNK N   1      35.901  14.509   7.507  0.00  0.00    -0.337 N 
ATOM     11  HN  UNK N   1      36.259  14.221   6.597  1.00  0.00     0.168 HD
HETATM   12  N   UNK N   1      37.454  13.053   8.542  0.00  0.00    -0.301 N 
HETATM   13  N   UNK N   1      34.408  15.839   8.760  0.00  0.00    -0.307 N 
HETATM   14  O   UNK N   1      34.510  15.755  11.000  0.00  0.00    -0.267 OA
HETATM   15  O   UNK N   1      38.904  11.668   9.575  0.00  0.00    -0.264 OA
ENDROOT
BRANCH   5  16
HETATM   16  N   UNK N   1      35.870  14.108  12.319  0.00  0.00    -0.350 N 
HETATM   17  H   UNK N   1      35.475  15.010  12.302  0.00  0.00     0.166 HD
BRANCH  16  18
HETATM   18  C   UNK N   1      35.694  13.474  13.576  0.00  0.00     0.071 A 
HETATM   19  C   UNK N   1      34.950  12.302  13.746  0.00  0.00     0.034 A 
HETATM   20  C   UNK N   1      34.840  11.714  15.012  0.00  0.00     0.020 A 
HETATM   21  C   UNK N   1      35.484  12.293  16.111  0.00  0.00     0.009 A 
HETATM   22  C   UNK N   1      36.239  13.452  15.944  0.00  0.00     0.062 A 
HETATM   23  I   UNK N   1      35.329  11.425  18.018  0.00  0.00    -0.044 I 
HETATM   24  C   UNK N   1      36.348  14.039  14.684  0.00  0.00     0.144 A 
HETATM   25  F   UNK N   1      37.090  15.164  14.534  0.00  0.00    -0.204 F 
ENDBRANCH  16  18
ENDBRANCH   5  16
BRANCH  13  26
HETATM   26  C   UNK N   1      33.399  16.904   8.788  0.00  0.00     0.166 C 
BRANCH  26  27
HETATM   27  C   UNK N   1      31.939  16.431   8.676  0.00  0.00     0.160 C 
BRANCH  27  28
HETATM   28  C   UNK N   1      31.068  17.677   8.641  0.00  0.00     0.197 C 
BRANCH  28  29
HETATM   29  O   UNK N   1      30.288  17.771   9.795  0.00  0.00    -0.398 OA
HETATM   30  H   UNK N   1      29.760  18.466  10.217  0.00  0.00     0.209 HD
ENDBRANCH  28  29
ENDBRANCH  27  28
BRANCH  27  31
HETATM   31  O   UNK N   1      31.552  15.640   9.759  0.00  0.00    -0.392 OA
HETATM   32  H   UNK N   1      32.122  15.165  10.384  0.00  0.00     0.210 HD
ENDBRANCH  27  31
ENDBRANCH  26  27
ENDBRANCH  13  26
TORSDOF 7
ENDMDL
MODEL 8
REMARK VINA RESULT:      -6.7     11.028     12.660
REMARK  7 active torsions:
REMARK  status: ('A' for Active; 'I' for Inactive)
REMARK    1  A    between atoms: C_9  and  C_5 
REMARK    2  A    between atoms: N_25  and  C_5 
REMARK    3  A    between atoms: C_9  and  C_6 
REMARK    4  A    between atoms: O_26  and  C_6 
REMARK    5  A    between atoms: C_9  and  O_27 
REMARK    6  A    between atoms: N_23  and  C_11 
REMARK    7  A    between atoms: N_23  and  C_14 
ROOT
HETATM    1  C   UNK N   1      34.230  13.505   3.335  0.00  0.00     0.161 C 
HETATM    2  C   UNK N   1      35.333  15.271   6.911  0.00  0.00     0.187 A 
HETATM    3  C   UNK N   1      32.646  15.289   6.224  0.00  0.00     0.106 A 
HETATM    4  C   UNK N   1      30.919  14.712   4.610  0.00  0.00     0.211 A 
HETATM    5  C   UNK N   1      31.282  15.309   5.834  0.00  0.00     0.097 A 
HETATM    6  C   UNK N   1      33.607  14.702   5.376  0.00  0.00     0.129 A 
HETATM    7  C   UNK N   1      33.094  15.837   7.451  0.00  0.00     0.265 A 
HETATM    8  C   UNK N   1      31.901  14.112   3.810  0.00  0.00     0.289 A 
HETATM    9  F   UNK N   1      29.644  14.723   4.159  0.00  0.00    -0.198 F 
HETATM   10  N   UNK N   1      34.920  14.715   5.742  0.00  0.00    -0.337 N 
ATOM     11  HN  UNK N   1      35.612  14.295   5.121  1.00  0.00     0.168 HD
HETATM   12  N   UNK N   1      33.224  14.121   4.199  0.00  0.00    -0.301 N 
HETATM   13  N   UNK N   1      34.435  15.832   7.763  0.00  0.00    -0.307 N 
HETATM   14  O   UNK N   1      32.295  16.291   8.254  0.00  0.00    -0.267 OA
HETATM   15  O   UNK N   1      31.575  13.593   2.755  0.00  0.00    -0.264 OA
ENDROOT
BRANCH   5  16
HETATM   16  N   UNK N   1      30.362  16.008   6.677  0.00  0.00    -0.350 N 
HETATM   17  H   UNK N   1      30.286  15.593   7.567  0.00  0.00     0.166 HD
BRANCH  16  18
HETATM   18  C   UNK N   1      29.532  17.152   6.550  0.00  0.00     0.071 A 
HETATM   19  C   UNK N   1      29.229  17.746   5.319  0.00  0.00     0.034 A 
HETATM   20  C   UNK N   1      28.380  18.858   5.265  0.00  0.00     0.020 A 
HETATM   21  C   UNK N   1      27.823  19.372   6.440  0.00  0.00     0.009 A 
HETATM   22  C   UNK N   1      28.110  18.774   7.666  0.00  0.00     0.062 A 
HETATM   23  I   UNK N   1      26.547  21.041   6.377  0.00  0.00    -0.044 I 
HETATM   24  C   UNK N   1      28.957  17.668   7.722  0.00  0.00     0.144 A 
HETATM   25  F   UNK N   1      29.223  17.092   8.921  0.00  0.00    -0.204 F 
ENDBRANCH  16  18
ENDBRANCH   5  16
BRANCH  13  26
HETATM   26  C   UNK N   1      34.902  16.333   9.061  0.00  0.00     0.166 C 
BRANCH  26  27
HETATM   27  C   UNK N   1      35.513  15.274   9.994  0.00  0.00     0.160 C 
BRANCH  27  28
HETATM   28  C   UNK N   1      34.698  15.287  11.279  0.00  0.00     0.197 C 
BRANCH  28  29
HETATM   29  O   UNK N   1      33.344  15.080  11.009  0.00  0.00    -0.398 OA
HETATM   30  H   UNK N   1      32.637  14.544  11.400  0.00  0.00     0.209 HD
ENDBRANCH  28  29
ENDBRANCH  27  28
BRANCH  27  31
HETATM   31  O   UNK N   1      36.848  15.545  10.304  0.00  0.00    -0.392 OA
HETATM   32  H   UNK N   1      37.268  15.545  11.178  0.00  0.00     0.210 HD
ENDBRANCH  27  31
ENDBRANCH  26  27
ENDBRANCH  13  26
TORSDOF 7
ENDMDL
MODEL 9
REMARK VINA RESULT:      -6.6     12.160     13.496
REMARK  7 active torsions:
REMARK  status: ('A' for Active; 'I' for Inactive)
REMARK    1  A    between atoms: C_9  and  C_5 
REMARK    2  A    between atoms: N_25  and  C_5 
REMARK    3  A    between atoms: C_9  and  C_6 
REMARK    4  A    between atoms: O_26  and  C_6 
REMARK    5  A    between atoms: C_9  and  O_27 
REMARK    6  A    between atoms: N_23  and  C_11 
REMARK    7  A    between atoms: N_23  and  C_14 
ROOT
HETATM    1  C   UNK N   1      33.019  14.996   3.374  0.00  0.00     0.161 C 
HETATM    2  C   UNK N   1      30.854  17.142   6.173  0.00  0.00     0.187 A 
HETATM    3  C   UNK N   1      33.333  16.152   6.925  0.00  0.00     0.106 A 
HETATM    4  C   UNK N   1      35.317  14.873   6.332  0.00  0.00     0.211 A 
HETATM    5  C   UNK N   1      34.592  15.610   7.291  0.00  0.00     0.097 A 
HETATM    6  C   UNK N   1      32.823  15.924   5.630  0.00  0.00     0.129 A 
HETATM    7  C   UNK N   1      32.553  16.930   7.814  0.00  0.00     0.265 A 
HETATM    8  C   UNK N   1      34.788  14.695   5.046  0.00  0.00     0.289 A 
HETATM    9  F   UNK N   1      36.507  14.299   6.620  0.00  0.00    -0.198 F 
HETATM   10  N   UNK N   1      31.599  16.420   5.295  0.00  0.00    -0.337 N 
ATOM     11  HN  UNK N   1      31.233  16.247   4.360  1.00  0.00     0.168 HD
HETATM   12  N   UNK N   1      33.553  15.214   4.718  0.00  0.00    -0.301 N 
HETATM   13  N   UNK N   1      31.317  17.397   7.425  0.00  0.00    -0.307 N 
HETATM   14  O   UNK N   1      32.980  17.219   8.920  0.00  0.00    -0.267 OA
HETATM   15  O   UNK N   1      35.427  14.061   4.222  0.00  0.00    -0.264 OA
ENDROOT
BRANCH   5  16
HETATM   16  N   UNK N   1      35.017  15.778   8.646  0.00  0.00    -0.350 N 
HETATM   17  H   UNK N   1      34.974  16.719   8.933  0.00  0.00     0.166 HD
BRANCH  16  18
HETATM   18  C   UNK N   1      35.486  14.926   9.679  0.00  0.00     0.071 A 
HETATM   19  C   UNK N   1      36.827  14.554   9.816  0.00  0.00     0.034 A 
HETATM   20  C   UNK N   1      37.225  13.731  10.877  0.00  0.00     0.020 A 
HETATM   21  C   UNK N   1      36.282  13.288  11.810  0.00  0.00     0.009 A 
HETATM   22  C   UNK N   1      34.948  13.669  11.687  0.00  0.00     0.062 A 
HETATM   23  I   UNK N   1      36.862  12.052  13.409  0.00  0.00    -0.044 I 
HETATM   24  C   UNK N   1      34.550  14.487  10.630  0.00  0.00     0.144 A 
HETATM   25  F   UNK N   1      33.249  14.855  10.525  0.00  0.00    -0.204 F 
ENDBRANCH  16  18
ENDBRANCH   5  16
BRANCH  13  26
HETATM   26  C   UNK N   1      30.532  18.262   8.313  0.00  0.00     0.166 C 
BRANCH  26  27
HETATM   27  C   UNK N   1      29.687  17.528   9.368  0.00  0.00     0.160 C 
BRANCH  27  28
HETATM   28  C   UNK N   1      28.281  17.399   8.802  0.00  0.00     0.197 C 
BRANCH  28  29
HETATM   29  O   UNK N   1      27.441  18.380   9.331  0.00  0.00    -0.398 OA
HETATM   30  H   UNK N   1      26.485  18.546   9.328  0.00  0.00     0.209 HD
ENDBRANCH  28  29
ENDBRANCH  27  28
BRANCH  27  31
HETATM   31  O   UNK N   1      29.625  18.223  10.578  0.00  0.00    -0.392 OA
HETATM   32  H   UNK N   1      28.958  18.868  10.860  0.00  0.00     0.210 HD
ENDBRANCH  27  31
ENDBRANCH  26  27
ENDBRANCH  13  26
TORSDOF 7
ENDMDL
