MODEL 1
REMARK VINA RESULT:      -7.6      0.000      0.000
REMARK  9 active torsions:
REMARK  status: ('A' for Active; 'I' for Inactive)
REMARK    1  A    between atoms: C_2  and  C_3 
REMARK    2  A    between atoms: C_2  and  N_41 
REMARK       I    between atoms: C_3  and  N_5 
REMARK    3  A    between atoms: C_6  and  N_5 
REMARK    4  A    between atoms: C_6  and  C_7 
REMARK    5  A    between atoms: C_6  and  C_13 
REMARK       I    between atoms: C_13  and  N_15 
REMARK    6  A    between atoms: C_19  and  C_20 
REMARK       I    between atoms: C_20  and  N_22 
REMARK    7  A    between atoms: N_22  and  C_23 
REMARK    8  A    between atoms: C_24  and  C_35 
REMARK    9  A    between atoms: C_27  and  C_29 
ROOT
HETATM    1  C   UNK N   1      28.995  14.493   5.254  0.00  0.00     0.243 C 
HETATM    2  O   UNK N   1      29.949  13.744   5.440  0.00  0.00    -0.271 OA
HETATM    3  N   UNK N   1      27.809  13.954   4.853  0.00  0.00    -0.337 N 
HETATM    4  C   UNK N   1      27.699  12.561   4.528  0.00  0.00     0.127 C 
HETATM    5  C   UNK N   1      26.362  12.411   3.827  0.00  0.00     0.022 C 
HETATM    6  C   UNK N   1      25.610  13.712   4.049  0.00  0.00     0.037 C 
HETATM    7  C   UNK N   1      26.603  14.702   4.626  0.00  0.00     0.179 C 
ENDROOT
BRANCH   7   8
HETATM    8  C   UNK N   1      25.989  15.337   5.849  0.00  0.00     0.245 C 
HETATM    9  O   UNK N   1      26.196  14.801   6.924  0.00  0.00    -0.271 OA
HETATM   10  N   UNK N   1      25.350  16.532   5.852  0.00  0.00    -0.318 N 
HETATM   11  H   UNK N   1      25.328  16.990   6.723  0.00  0.00     0.169 HD
BRANCH  10  12
HETATM   12  C   UNK N   1      24.712  17.226   4.794  0.00  0.00     0.106 A 
HETATM   13  C   UNK N   1      24.845  18.608   4.516  0.00  0.00     0.077 A 
HETATM   14  N   UNK N   1      23.739  19.169   3.896  0.00  0.00    -0.344 N 
HETATM   15  C   UNK N   1      22.747  18.261   3.694  0.00  0.00     0.128 A 
ATOM     16  HN  UNK N   1      23.678  20.150   3.622  1.00  0.00     0.167 HD
HETATM   17  S   UNK N   1      23.219  16.789   4.253  0.00  0.00    -0.048 SA
BRANCH  13  18
HETATM   18  C   UNK N   1      25.992  19.439   4.947  0.00  0.00    -0.007 A 
HETATM   19  C   UNK N   1      25.834  20.417   5.938  0.00  0.00     0.014 A 
HETATM   20  C   UNK N   1      26.920  21.185   6.363  0.00  0.00     0.001 A 
HETATM   21  C   UNK N   1      28.179  20.985   5.791  0.00  0.00     0.000 A 
HETATM   22  C   UNK N   1      28.350  20.014   4.802  0.00  0.00     0.001 A 
HETATM   23  C   UNK N   1      27.263  19.237   4.385  0.00  0.00     0.014 A 
ENDBRANCH  13  18
BRANCH  15  24
HETATM   24  C   UNK N   1      21.354  18.594   3.388  0.00  0.00     0.181 A 
HETATM   25  N   UNK N   1      20.394  17.685   3.139  0.00  0.00    -0.343 N 
HETATM   26  C   UNK N   1      19.334  18.413   2.736  0.00  0.00     0.115 A 
ATOM     27  HN  UNK N   1      20.457  16.672   3.233  1.00  0.00     0.167 HD
HETATM   28  C   UNK N   1      19.691  19.750   2.751  0.00  0.00     0.161 A 
HETATM   29  O   UNK N   1      20.939  19.814   3.147  0.00  0.00    -0.302 OA
ENDBRANCH  15  24
ENDBRANCH  10  12
ENDBRANCH   7   8
BRANCH   1  30
HETATM   30  C   UNK N   1      29.192  15.993   5.464  0.00  0.00     0.181 C 
BRANCH  30  31
HETATM   31  N   UNK N   1      29.623  16.297   6.822  0.00  0.00    -0.346 N 
HETATM   32  C   UNK N   1      28.966  17.124   7.685  0.00  0.00     0.240 C 
HETATM   33  O   UNK N   1      27.916  17.658   7.364  0.00  0.00    -0.271 OA
HETATM   34  H   UNK N   1      30.452  15.873   7.143  0.00  0.00     0.163 HD
BRANCH  32  35
HETATM   35  C   UNK N   1      29.541  17.411   9.039  0.00  0.00     0.165 C 
HETATM   36  C   UNK N   1      29.530  18.905   9.307  0.00  0.00     0.042 C 
BRANCH  35  37
HETATM   37  N   UNK N   1      30.900  16.903   9.143  0.00  0.00    -0.414 N 
HETATM   38  C   UNK N   1      31.791  17.948   8.666  0.00  0.00     0.140 C 
HETATM   39  H   UNK N   1      31.177  15.983   9.487  0.00  0.00     0.153 HD
ENDBRANCH  35  37
ENDBRANCH  32  35
ENDBRANCH  30  31
BRANCH  30  40
HETATM   40  C   UNK N   1      30.115  16.688   4.435  0.00  0.00     0.018 C 
HETATM   41  C   UNK N   1      31.398  17.308   5.008  0.00  0.00     0.007 C 
HETATM   42  C   UNK N   1      32.276  17.832   3.878  0.00  0.00     0.000 C 
HETATM   43  C   UNK N   1      32.721  16.707   2.935  0.00  0.00     0.000 C 
HETATM   44  C   UNK N   1      31.768  15.506   2.900  0.00  0.00     0.000 C 
HETATM   45  C   UNK N   1      30.310  15.912   3.124  0.00  0.00     0.007 C 
ENDBRANCH  30  40
ENDBRANCH   1  30
TORSDOF 9
ENDMDL
MODEL 2
REMARK VINA RESULT:      -7.3      4.181      8.892
REMARK  9 active torsions:
REMARK  status: ('A' for Active; 'I' for Inactive)
REMARK    1  A    between atoms: C_2  and  C_3 
REMARK    2  A    between atoms: C_2  and  N_41 
REMARK       I    between atoms: C_3  and  N_5 
REMARK    3  A    between atoms: C_6  and  N_5 
REMARK    4  A    between atoms: C_6  and  C_7 
REMARK    5  A    between atoms: C_6  and  C_13 
REMARK       I    between atoms: C_13  and  N_15 
REMARK    6  A    between atoms: C_19  and  C_20 
REMARK       I    between atoms: C_20  and  N_22 
REMARK    7  A    between atoms: N_22  and  C_23 
REMARK    8  A    between atoms: C_24  and  C_35 
REMARK    9  A    between atoms: C_27  and  C_29 
ROOT
HETATM    1  C   UNK N   1      22.008  13.438   3.610  0.00  0.00     0.243 C 
HETATM    2  O   UNK N   1      22.947  13.305   2.833  0.00  0.00    -0.271 OA
HETATM    3  N   UNK N   1      21.974  12.663   4.732  0.00  0.00    -0.337 N 
HETATM    4  C   UNK N   1      22.940  11.625   4.947  0.00  0.00     0.127 C 
HETATM    5  C   UNK N   1      22.397  10.794   6.093  0.00  0.00     0.022 C 
HETATM    6  C   UNK N   1      21.251  11.589   6.698  0.00  0.00     0.037 C 
HETATM    7  C   UNK N   1      20.954  12.728   5.743  0.00  0.00     0.179 C 
ENDROOT
BRANCH   7   8
HETATM    8  C   UNK N   1      20.901  14.012   6.534  0.00  0.00     0.245 C 
HETATM    9  O   UNK N   1      19.820  14.565   6.637  0.00  0.00    -0.271 OA
HETATM   10  N   UNK N   1      21.935  14.510   7.255  0.00  0.00    -0.318 N 
HETATM   11  H   UNK N   1      21.679  15.115   7.988  0.00  0.00     0.169 HD
BRANCH  10  12
HETATM   12  C   UNK N   1      23.329  14.293   7.117  0.00  0.00     0.106 A 
HETATM   13  C   UNK N   1      24.206  13.891   8.153  0.00  0.00     0.077 A 
HETATM   14  N   UNK N   1      25.514  14.320   7.985  0.00  0.00    -0.344 N 
HETATM   15  C   UNK N   1      25.672  15.055   6.851  0.00  0.00     0.128 A 
ATOM     16  HN  UNK N   1      26.270  14.110   8.637  1.00  0.00     0.167 HD
HETATM   17  S   UNK N   1      24.237  15.165   6.057  0.00  0.00    -0.048 SA
BRANCH  13  18
HETATM   18  C   UNK N   1      23.779  13.184   9.381  0.00  0.00    -0.007 A 
HETATM   19  C   UNK N   1      24.722  12.570  10.217  0.00  0.00     0.014 A 
HETATM   20  C   UNK N   1      24.323  11.924  11.389  0.00  0.00     0.001 A 
HETATM   21  C   UNK N   1      22.970  11.878  11.733  0.00  0.00     0.000 A 
HETATM   22  C   UNK N   1      22.020  12.485  10.907  0.00  0.00     0.001 A 
HETATM   23  C   UNK N   1      22.422  13.142   9.739  0.00  0.00     0.014 A 
ENDBRANCH  13  18
BRANCH  15  24
HETATM   24  C   UNK N   1      26.816  15.924   6.566  0.00  0.00     0.181 A 
HETATM   25  N   UNK N   1      27.085  17.064   7.226  0.00  0.00    -0.343 N 
HETATM   26  C   UNK N   1      28.098  17.625   6.537  0.00  0.00     0.115 A 
ATOM     27  HN  UNK N   1      26.624  17.423   8.062  1.00  0.00     0.167 HD
HETATM   28  C   UNK N   1      28.409  16.801   5.469  0.00  0.00     0.161 A 
HETATM   29  O   UNK N   1      27.593  15.776   5.521  0.00  0.00    -0.302 OA
ENDBRANCH  15  24
ENDBRANCH  10  12
ENDBRANCH   7   8
BRANCH   1  30
HETATM   30  C   UNK N   1      20.914  14.449   3.271  0.00  0.00     0.181 C 
BRANCH  30  31
HETATM   31  N   UNK N   1      21.304  15.806   3.629  0.00  0.00    -0.346 N 
HETATM   32  C   UNK N   1      20.447  16.784   4.041  0.00  0.00     0.240 C 
HETATM   33  O   UNK N   1      19.253  16.558   4.167  0.00  0.00    -0.271 OA
HETATM   34  H   UNK N   1      22.260  16.036   3.570  0.00  0.00     0.163 HD
BRANCH  32  35
HETATM   35  C   UNK N   1      20.957  18.165   4.321  0.00  0.00     0.165 C 
HETATM   36  C   UNK N   1      21.535  18.777   3.058  0.00  0.00     0.042 C 
BRANCH  35  37
HETATM   37  N   UNK N   1      21.971  18.140   5.364  0.00  0.00    -0.414 N 
HETATM   38  C   UNK N   1      21.280  18.029   6.637  0.00  0.00     0.140 C 
HETATM   39  H   UNK N   1      22.981  18.192   5.226  0.00  0.00     0.153 HD
ENDBRANCH  35  37
ENDBRANCH  32  35
ENDBRANCH  30  31
BRANCH  30  40
HETATM   40  C   UNK N   1      20.400  14.400   1.813  0.00  0.00     0.018 C 
HETATM   41  C   UNK N   1      18.922  14.017   1.644  0.00  0.00     0.007 C 
HETATM   42  C   UNK N   1      18.514  14.143   0.181  0.00  0.00     0.000 C 
HETATM   43  C   UNK N   1      18.648  15.585  -0.325  0.00  0.00     0.000 C 
HETATM   44  C   UNK N   1      19.691  16.418   0.431  0.00  0.00     0.000 C 
HETATM   45  C   UNK N   1      20.861  15.572   0.933  0.00  0.00     0.007 C 
ENDBRANCH  30  40
ENDBRANCH   1  30
TORSDOF 9
ENDMDL
MODEL 3
REMARK VINA RESULT:      -7.2      2.726      4.953
REMARK  9 active torsions:
REMARK  status: ('A' for Active; 'I' for Inactive)
REMARK    1  A    between atoms: C_2  and  C_3 
REMARK    2  A    between atoms: C_2  and  N_41 
REMARK       I    between atoms: C_3  and  N_5 
REMARK    3  A    between atoms: C_6  and  N_5 
REMARK    4  A    between atoms: C_6  and  C_7 
REMARK    5  A    between atoms: C_6  and  C_13 
REMARK       I    between atoms: C_13  and  N_15 
REMARK    6  A    between atoms: C_19  and  C_20 
REMARK       I    between atoms: C_20  and  N_22 
REMARK    7  A    between atoms: N_22  and  C_23 
REMARK    8  A    between atoms: C_24  and  C_35 
REMARK    9  A    between atoms: C_27  and  C_29 
ROOT
HETATM    1  C   UNK N   1      28.649  15.591   4.775  0.00  0.00     0.243 C 
HETATM    2  O   UNK N   1      29.103  14.655   5.424  0.00  0.00    -0.271 OA
HETATM    3  N   UNK N   1      27.729  15.327   3.803  0.00  0.00    -0.337 N 
HETATM    4  C   UNK N   1      27.387  13.979   3.451  0.00  0.00     0.127 C 
HETATM    5  C   UNK N   1      26.613  14.081   2.151  0.00  0.00     0.022 C 
HETATM    6  C   UNK N   1      26.282  15.552   1.960  0.00  0.00     0.037 C 
HETATM    7  C   UNK N   1      27.091  16.322   2.985  0.00  0.00     0.179 C 
ENDROOT
BRANCH   7   8
HETATM    8  C   UNK N   1      26.167  17.268   3.710  0.00  0.00     0.245 C 
HETATM    9  O   UNK N   1      26.367  18.463   3.577  0.00  0.00    -0.271 OA
HETATM   10  N   UNK N   1      25.050  16.886   4.376  0.00  0.00    -0.318 N 
HETATM   11  H   UNK N   1      24.366  17.586   4.480  0.00  0.00     0.169 HD
BRANCH  10  12
HETATM   12  C   UNK N   1      24.714  15.632   4.946  0.00  0.00     0.106 A 
HETATM   13  C   UNK N   1      23.512  14.918   4.714  0.00  0.00     0.077 A 
HETATM   14  N   UNK N   1      23.129  14.101   5.767  0.00  0.00    -0.344 N 
HETATM   15  C   UNK N   1      23.995  14.171   6.814  0.00  0.00     0.128 A 
ATOM     16  HN  UNK N   1      22.293  13.516   5.757  1.00  0.00     0.167 HD
HETATM   17  S   UNK N   1      25.220  15.205   6.452  0.00  0.00    -0.048 SA
BRANCH  13  18
HETATM   18  C   UNK N   1      22.652  15.097   3.523  0.00  0.00    -0.007 A 
HETATM   19  C   UNK N   1      21.576  15.995   3.547  0.00  0.00     0.014 A 
HETATM   20  C   UNK N   1      20.779  16.183   2.416  0.00  0.00     0.001 A 
HETATM   21  C   UNK N   1      21.046  15.464   1.249  0.00  0.00     0.000 A 
HETATM   22  C   UNK N   1      22.115  14.565   1.212  0.00  0.00     0.001 A 
HETATM   23  C   UNK N   1      22.920  14.386   2.342  0.00  0.00     0.014 A 
ENDBRANCH  13  18
BRANCH  15  24
HETATM   24  C   UNK N   1      23.705  13.714   8.175  0.00  0.00     0.181 A 
HETATM   25  N   UNK N   1      24.630  13.240   9.028  0.00  0.00    -0.343 N 
HETATM   26  C   UNK N   1      23.919  12.776  10.076  0.00  0.00     0.115 A 
ATOM     27  HN  UNK N   1      25.642  13.233   8.909  1.00  0.00     0.167 HD
HETATM   28  C   UNK N   1      22.575  12.983   9.817  0.00  0.00     0.161 A 
HETATM   29  O   UNK N   1      22.490  13.551   8.638  0.00  0.00    -0.302 OA
ENDBRANCH  15  24
ENDBRANCH  10  12
ENDBRANCH   7   8
BRANCH   1  30
HETATM   30  C   UNK N   1      29.151  17.002   5.075  0.00  0.00     0.181 C 
BRANCH  30  31
HETATM   31  N   UNK N   1      29.070  17.313   6.496  0.00  0.00    -0.346 N 
HETATM   32  C   UNK N   1      28.501  18.437   7.020  0.00  0.00     0.240 C 
HETATM   33  O   UNK N   1      27.978  19.270   6.295  0.00  0.00    -0.271 OA
HETATM   34  H   UNK N   1      29.454  16.663   7.128  0.00  0.00     0.163 HD
BRANCH  32  35
HETATM   35  C   UNK N   1      28.533  18.679   8.498  0.00  0.00     0.165 C 
HETATM   36  C   UNK N   1      29.968  18.747   8.987  0.00  0.00     0.042 C 
BRANCH  35  37
HETATM   37  N   UNK N   1      27.820  17.631   9.211  0.00  0.00    -0.414 N 
HETATM   38  C   UNK N   1      28.772  16.986  10.099  0.00  0.00     0.140 C 
HETATM   39  H   UNK N   1      26.833  17.392   9.106  0.00  0.00     0.153 HD
ENDBRANCH  35  37
ENDBRANCH  32  35
ENDBRANCH  30  31
BRANCH  30  40
HETATM   40  C   UNK N   1      30.561  17.331   4.529  0.00  0.00     0.018 C 
HETATM   41  C   UNK N   1      31.706  17.231   5.548  0.00  0.00     0.007 C 
HETATM   42  C   UNK N   1      33.045  17.443   4.852  0.00  0.00     0.000 C 
HETATM   43  C   UNK N   1      33.312  16.365   3.793  0.00  0.00     0.000 C 
HETATM   44  C   UNK N   1      32.042  15.734   3.208  0.00  0.00     0.000 C 
HETATM   45  C   UNK N   1      30.873  16.719   3.155  0.00  0.00     0.007 C 
ENDBRANCH  30  40
ENDBRANCH   1  30
TORSDOF 9
ENDMDL
MODEL 4
REMARK VINA RESULT:      -7.2      4.597      8.987
REMARK  9 active torsions:
REMARK  status: ('A' for Active; 'I' for Inactive)
REMARK    1  A    between atoms: C_2  and  C_3 
REMARK    2  A    between atoms: C_2  and  N_41 
REMARK       I    between atoms: C_3  and  N_5 
REMARK    3  A    between atoms: C_6  and  N_5 
REMARK    4  A    between atoms: C_6  and  C_7 
REMARK    5  A    between atoms: C_6  and  C_13 
REMARK       I    between atoms: C_13  and  N_15 
REMARK    6  A    between atoms: C_19  and  C_20 
REMARK       I    between atoms: C_20  and  N_22 
REMARK    7  A    between atoms: N_22  and  C_23 
REMARK    8  A    between atoms: C_24  and  C_35 
REMARK    9  A    between atoms: C_27  and  C_29 
ROOT
HETATM    1  C   UNK N   1      21.398  17.269   6.517  0.00  0.00     0.243 C 
HETATM    2  O   UNK N   1      21.144  18.442   6.768  0.00  0.00    -0.271 OA
HETATM    3  N   UNK N   1      20.950  16.306   7.372  0.00  0.00    -0.337 N 
HETATM    4  C   UNK N   1      20.304  16.650   8.605  0.00  0.00     0.127 C 
HETATM    5  C   UNK N   1      20.253  15.366   9.411  0.00  0.00     0.022 C 
HETATM    6  C   UNK N   1      20.618  14.242   8.455  0.00  0.00     0.037 C 
HETATM    7  C   UNK N   1      21.146  14.893   7.192  0.00  0.00     0.179 C 
ENDROOT
BRANCH   7   8
HETATM    8  C   UNK N   1      20.438  14.281   6.009  0.00  0.00     0.245 C 
HETATM    9  O   UNK N   1      19.322  14.696   5.745  0.00  0.00    -0.271 OA
HETATM   10  N   UNK N   1      21.010  13.414   5.139  0.00  0.00    -0.318 N 
HETATM   11  H   UNK N   1      20.593  13.381   4.248  0.00  0.00     0.169 HD
BRANCH  10  12
HETATM   12  C   UNK N   1      22.119  12.548   5.313  0.00  0.00     0.106 A 
HETATM   13  C   UNK N   1      22.971  12.084   4.282  0.00  0.00     0.077 A 
HETATM   14  N   UNK N   1      23.547  10.848   4.538  0.00  0.00    -0.344 N 
HETATM   15  C   UNK N   1      23.154  10.337   5.736  0.00  0.00     0.128 A 
ATOM     16  HN  UNK N   1      24.190  10.378   3.901  1.00  0.00     0.167 HD
HETATM   17  S   UNK N   1      22.130  11.386   6.479  0.00  0.00    -0.048 SA
BRANCH  13  18
HETATM   18  C   UNK N   1      23.158  12.767   2.982  0.00  0.00    -0.007 A 
HETATM   19  C   UNK N   1      22.381  12.412   1.871  0.00  0.00     0.014 A 
HETATM   20  C   UNK N   1      22.539  13.072   0.650  0.00  0.00     0.001 A 
HETATM   21  C   UNK N   1      23.484  14.093   0.528  0.00  0.00     0.000 A 
HETATM   22  C   UNK N   1      24.265  14.456   1.629  0.00  0.00     0.001 A 
HETATM   23  C   UNK N   1      24.098  13.801   2.854  0.00  0.00     0.014 A 
ENDBRANCH  13  18
BRANCH  15  24
HETATM   24  C   UNK N   1      23.300   8.936   6.139  0.00  0.00     0.181 A 
HETATM   25  N   UNK N   1      22.404   7.972   5.867  0.00  0.00    -0.343 N 
HETATM   26  C   UNK N   1      22.835   6.901   6.562  0.00  0.00     0.115 A 
ATOM     27  HN  UNK N   1      21.581   8.037   5.268  1.00  0.00     0.167 HD
HETATM   28  C   UNK N   1      23.987   7.257   7.242  0.00  0.00     0.161 A 
HETATM   29  O   UNK N   1      24.230   8.514   6.962  0.00  0.00    -0.302 OA
ENDBRANCH  15  24
ENDBRANCH  10  12
ENDBRANCH   7   8
BRANCH   1  30
HETATM   30  C   UNK N   1      22.221  16.949   5.271  0.00  0.00     0.181 C 
BRANCH  30  31
HETATM   31  N   UNK N   1      21.679  17.598   4.084  0.00  0.00    -0.346 N 
HETATM   32  C   UNK N   1      21.127  16.948   3.020  0.00  0.00     0.240 C 
HETATM   33  O   UNK N   1      21.024  15.731   3.014  0.00  0.00    -0.271 OA
HETATM   34  H   UNK N   1      21.714  18.582   4.047  0.00  0.00     0.163 HD
BRANCH  32  35
HETATM   35  C   UNK N   1      20.659  17.721   1.824  0.00  0.00     0.165 C 
HETATM   36  C   UNK N   1      20.621  19.205   2.142  0.00  0.00     0.042 C 
BRANCH  35  37
HETATM   37  N   UNK N   1      19.341  17.274   1.402  0.00  0.00    -0.414 N 
HETATM   38  C   UNK N   1      19.498  16.616   0.116  0.00  0.00     0.140 C 
HETATM   39  H   UNK N   1      18.468  17.400   1.915  0.00  0.00     0.153 HD
ENDBRANCH  35  37
ENDBRANCH  32  35
ENDBRANCH  30  31
BRANCH  30  40
HETATM   40  C   UNK N   1      23.739  17.225   5.393  0.00  0.00     0.018 C 
HETATM   41  C   UNK N   1      24.615  15.997   5.681  0.00  0.00     0.007 C 
HETATM   42  C   UNK N   1      26.088  16.384   5.639  0.00  0.00     0.000 C 
HETATM   43  C   UNK N   1      26.502  16.895   4.253  0.00  0.00     0.000 C 
HETATM   44  C   UNK N   1      25.350  17.502   3.441  0.00  0.00     0.000 C 
HETATM   45  C   UNK N   1      24.303  18.177   4.328  0.00  0.00     0.007 C 
ENDBRANCH  30  40
ENDBRANCH   1  30
TORSDOF 9
ENDMDL
MODEL 5
REMARK VINA RESULT:      -7.1      3.188      8.836
REMARK  9 active torsions:
REMARK  status: ('A' for Active; 'I' for Inactive)
REMARK    1  A    between atoms: C_2  and  C_3 
REMARK    2  A    between atoms: C_2  and  N_41 
REMARK       I    between atoms: C_3  and  N_5 
REMARK    3  A    between atoms: C_6  and  N_5 
REMARK    4  A    between atoms: C_6  and  C_7 
REMARK    5  A    between atoms: C_6  and  C_13 
REMARK       I    between atoms: C_13  and  N_15 
REMARK    6  A    between atoms: C_19  and  C_20 
REMARK       I    between atoms: C_20  and  N_22 
REMARK    7  A    between atoms: N_22  and  C_23 
REMARK    8  A    between atoms: C_24  and  C_35 
REMARK    9  A    between atoms: C_27  and  C_29 
ROOT
HETATM    1  C   UNK N   1      20.610  17.465   3.557  0.00  0.00     0.243 C 
HETATM    2  O   UNK N   1      19.414  17.693   3.400  0.00  0.00    -0.271 OA
HETATM    3  N   UNK N   1      21.492  18.498   3.437  0.00  0.00    -0.337 N 
HETATM    4  C   UNK N   1      21.061  19.798   3.013  0.00  0.00     0.127 C 
HETATM    5  C   UNK N   1      22.330  20.562   2.687  0.00  0.00     0.022 C 
HETATM    6  C   UNK N   1      23.483  19.739   3.236  0.00  0.00     0.037 C 
HETATM    7  C   UNK N   1      22.914  18.387   3.622  0.00  0.00     0.179 C 
ENDROOT
BRANCH   7   8
HETATM    8  C   UNK N   1      23.366  18.062   5.024  0.00  0.00     0.245 C 
HETATM    9  O   UNK N   1      22.547  18.174   5.919  0.00  0.00    -0.271 OA
HETATM   10  N   UNK N   1      24.568  17.517   5.333  0.00  0.00    -0.318 N 
HETATM   11  H   UNK N   1      24.597  17.029   6.187  0.00  0.00     0.169 HD
BRANCH  10  12
HETATM   12  C   UNK N   1      25.789  17.540   4.614  0.00  0.00     0.106 A 
HETATM   13  C   UNK N   1      26.292  16.488   3.810  0.00  0.00     0.077 A 
HETATM   14  N   UNK N   1      27.675  16.454   3.722  0.00  0.00    -0.344 N 
HETATM   15  C   UNK N   1      28.260  17.446   4.446  0.00  0.00     0.128 A 
ATOM     16  HN  UNK N   1      28.193  15.765   3.177  1.00  0.00     0.167 HD
HETATM   17  S   UNK N   1      27.103  18.360   5.172  0.00  0.00    -0.048 SA
BRANCH  13  18
HETATM   18  C   UNK N   1      25.454  15.428   3.204  0.00  0.00    -0.007 A 
HETATM   19  C   UNK N   1      25.138  15.461   1.839  0.00  0.00     0.014 A 
HETATM   20  C   UNK N   1      24.369  14.448   1.260  0.00  0.00     0.001 A 
HETATM   21  C   UNK N   1      23.901  13.394   2.048  0.00  0.00     0.000 A 
HETATM   22  C   UNK N   1      24.208  13.351   3.410  0.00  0.00     0.001 A 
HETATM   23  C   UNK N   1      24.988  14.360   3.986  0.00  0.00     0.014 A 
ENDBRANCH  13  18
BRANCH  15  24
HETATM   24  C   UNK N   1      29.672  17.480   4.836  0.00  0.00     0.181 A 
HETATM   25  N   UNK N   1      30.695  17.585   3.971  0.00  0.00    -0.343 N 
HETATM   26  C   UNK N   1      31.797  17.398   4.724  0.00  0.00     0.115 A 
ATOM     27  HN  UNK N   1      30.647  17.765   2.969  1.00  0.00     0.167 HD
HETATM   28  C   UNK N   1      31.401  17.180   6.032  0.00  0.00     0.161 A 
HETATM   29  O   UNK N   1      30.091  17.230   6.053  0.00  0.00    -0.302 OA
ENDBRANCH  15  24
ENDBRANCH  10  12
ENDBRANCH   7   8
BRANCH   1  30
HETATM   30  C   UNK N   1      21.049  16.034   3.858  0.00  0.00     0.181 C 
BRANCH  30  31
HETATM   31  N   UNK N   1      20.551  15.577   5.149  0.00  0.00    -0.346 N 
HETATM   32  C   UNK N   1      21.322  15.051   6.144  0.00  0.00     0.240 C 
HETATM   33  O   UNK N   1      22.533  14.955   6.013  0.00  0.00    -0.271 OA
HETATM   34  H   UNK N   1      19.584  15.654   5.318  0.00  0.00     0.163 HD
BRANCH  32  35
HETATM   35  C   UNK N   1      20.688  14.555   7.408  0.00  0.00     0.165 C 
HETATM   36  C   UNK N   1      20.600  15.677   8.425  0.00  0.00     0.042 C 
BRANCH  35  37
HETATM   37  N   UNK N   1      21.444  13.444   7.964  0.00  0.00    -0.414 N 
HETATM   38  C   UNK N   1      21.671  13.736   9.370  0.00  0.00     0.140 C 
HETATM   39  H   UNK N   1      21.756  12.613   7.461  0.00  0.00     0.153 HD
ENDBRANCH  35  37
ENDBRANCH  32  35
ENDBRANCH  30  31
BRANCH  30  40
HETATM   40  C   UNK N   1      20.724  14.998   2.756  0.00  0.00     0.018 C 
HETATM   41  C   UNK N   1      19.449  14.172   2.978  0.00  0.00     0.007 C 
HETATM   42  C   UNK N   1      19.175  13.296   1.761  0.00  0.00     0.000 C 
HETATM   43  C   UNK N   1      18.935  14.135   0.499  0.00  0.00     0.000 C 
HETATM   44  C   UNK N   1      19.605  15.515   0.528  0.00  0.00     0.000 C 
HETATM   45  C   UNK N   1      20.913  15.511   1.321  0.00  0.00     0.007 C 
ENDBRANCH  30  40
ENDBRANCH   1  30
TORSDOF 9
ENDMDL
MODEL 6
REMARK VINA RESULT:      -7.1      3.102      8.142
REMARK  9 active torsions:
REMARK  status: ('A' for Active; 'I' for Inactive)
REMARK    1  A    between atoms: C_2  and  C_3 
REMARK    2  A    between atoms: C_2  and  N_41 
REMARK       I    between atoms: C_3  and  N_5 
REMARK    3  A    between atoms: C_6  and  N_5 
REMARK    4  A    between atoms: C_6  and  C_7 
REMARK    5  A    between atoms: C_6  and  C_13 
REMARK       I    between atoms: C_13  and  N_15 
REMARK    6  A    between atoms: C_19  and  C_20 
REMARK       I    between atoms: C_20  and  N_22 
REMARK    7  A    between atoms: N_22  and  C_23 
REMARK    8  A    between atoms: C_24  and  C_35 
REMARK    9  A    between atoms: C_27  and  C_29 
ROOT
HETATM    1  C   UNK N   1      22.555  13.311   4.976  0.00  0.00     0.243 C 
HETATM    2  O   UNK N   1      21.553  12.613   4.857  0.00  0.00    -0.271 OA
HETATM    3  N   UNK N   1      23.778  12.710   4.934  0.00  0.00    -0.337 N 
HETATM    4  C   UNK N   1      23.903  11.282   4.880  0.00  0.00     0.127 C 
HETATM    5  C   UNK N   1      25.361  10.989   5.175  0.00  0.00     0.022 C 
HETATM    6  C   UNK N   1      26.094  12.318   5.093  0.00  0.00     0.037 C 
HETATM    7  C   UNK N   1      25.035  13.401   5.031  0.00  0.00     0.179 C 
ENDROOT
BRANCH   7   8
HETATM    8  C   UNK N   1      25.362  14.323   3.882  0.00  0.00     0.245 C 
HETATM    9  O   UNK N   1      25.292  13.864   2.755  0.00  0.00    -0.271 OA
HETATM   10  N   UNK N   1      25.585  15.654   4.009  0.00  0.00    -0.318 N 
HETATM   11  H   UNK N   1      25.424  16.183   3.194  0.00  0.00     0.169 HD
BRANCH  10  12
HETATM   12  C   UNK N   1      26.013  16.402   5.133  0.00  0.00     0.106 A 
HETATM   13  C   UNK N   1      26.023  17.815   5.227  0.00  0.00     0.077 A 
HETATM   14  N   UNK N   1      26.993  18.319   6.081  0.00  0.00    -0.344 N 
HETATM   15  C   UNK N   1      27.743  17.334   6.644  0.00  0.00     0.128 A 
ATOM     16  HN  UNK N   1      27.127  19.313   6.265  1.00  0.00     0.167 HD
HETATM   17  S   UNK N   1      27.220  15.867   6.117  0.00  0.00    -0.048 SA
BRANCH  13  18
HETATM   18  C   UNK N   1      25.175  18.712   4.410  0.00  0.00    -0.007 A 
HETATM   19  C   UNK N   1      25.754  19.650   3.544  0.00  0.00     0.014 A 
HETATM   20  C   UNK N   1      24.956  20.480   2.754  0.00  0.00     0.001 A 
HETATM   21  C   UNK N   1      23.565  20.383   2.828  0.00  0.00     0.000 A 
HETATM   22  C   UNK N   1      22.975  19.452   3.687  0.00  0.00     0.001 A 
HETATM   23  C   UNK N   1      23.776  18.614   4.470  0.00  0.00     0.014 A 
ENDBRANCH  13  18
BRANCH  15  24
HETATM   24  C   UNK N   1      29.037  17.535   7.302  0.00  0.00     0.181 A 
HETATM   25  N   UNK N   1      30.175  16.916   6.943  0.00  0.00    -0.343 N 
HETATM   26  C   UNK N   1      31.059  17.246   7.905  0.00  0.00     0.115 A 
ATOM     27  HN  UNK N   1      30.332  16.328   6.126  1.00  0.00     0.167 HD
HETATM   28  C   UNK N   1      30.420  18.059   8.825  0.00  0.00     0.161 A 
HETATM   29  O   UNK N   1      29.180  18.201   8.422  0.00  0.00    -0.302 OA
ENDBRANCH  15  24
ENDBRANCH  10  12
ENDBRANCH   7   8
BRANCH   1  30
HETATM   30  C   UNK N   1      22.379  14.813   5.186  0.00  0.00     0.181 C 
BRANCH  30  31
HETATM   31  N   UNK N   1      21.345  15.362   4.318  0.00  0.00    -0.346 N 
HETATM   32  C   UNK N   1      21.563  15.889   3.079  0.00  0.00     0.240 C 
HETATM   33  O   UNK N   1      22.683  15.906   2.593  0.00  0.00    -0.271 OA
HETATM   34  H   UNK N   1      20.418  15.351   4.650  0.00  0.00     0.163 HD
BRANCH  32  35
HETATM   35  C   UNK N   1      20.427  16.484   2.302  0.00  0.00     0.165 C 
HETATM   36  C   UNK N   1      19.844  17.668   3.051  0.00  0.00     0.042 C 
BRANCH  35  37
HETATM   37  N   UNK N   1      19.389  15.493   2.063  0.00  0.00    -0.414 N 
HETATM   38  C   UNK N   1      19.832  14.660   0.959  0.00  0.00     0.140 C 
HETATM   39  H   UNK N   1      18.512  15.402   2.577  0.00  0.00     0.153 HD
ENDBRANCH  35  37
ENDBRANCH  32  35
ENDBRANCH  30  31
BRANCH  30  40
HETATM   40  C   UNK N   1      22.145  15.253   6.650  0.00  0.00     0.018 C 
HETATM   41  C   UNK N   1      20.855  16.045   6.906  0.00  0.00     0.007 C 
HETATM   42  C   UNK N   1      20.681  16.293   8.400  0.00  0.00     0.000 C 
HETATM   43  C   UNK N   1      20.545  14.980   9.182  0.00  0.00     0.000 C 
HETATM   44  C   UNK N   1      21.212  13.776   8.504  0.00  0.00     0.000 C 
HETATM   45  C   UNK N   1      22.451  14.173   7.699  0.00  0.00     0.007 C 
ENDBRANCH  30  40
ENDBRANCH   1  30
TORSDOF 9
ENDMDL
MODEL 7
REMARK VINA RESULT:      -7.0      3.904      8.099
REMARK  9 active torsions:
REMARK  status: ('A' for Active; 'I' for Inactive)
REMARK    1  A    between atoms: C_2  and  C_3 
REMARK    2  A    between atoms: C_2  and  N_41 
REMARK       I    between atoms: C_3  and  N_5 
REMARK    3  A    between atoms: C_6  and  N_5 
REMARK    4  A    between atoms: C_6  and  C_7 
REMARK    5  A    between atoms: C_6  and  C_13 
REMARK       I    between atoms: C_13  and  N_15 
REMARK    6  A    between atoms: C_19  and  C_20 
REMARK       I    between atoms: C_20  and  N_22 
REMARK    7  A    between atoms: N_22  and  C_23 
REMARK    8  A    between atoms: C_24  and  C_35 
REMARK    9  A    between atoms: C_27  and  C_29 
ROOT
HETATM    1  C   UNK N   1      19.846  16.458   4.645  0.00  0.00     0.243 C 
HETATM    2  O   UNK N   1      18.621  16.506   4.708  0.00  0.00    -0.271 OA
HETATM    3  N   UNK N   1      20.518  17.542   4.163  0.00  0.00    -0.337 N 
HETATM    4  C   UNK N   1      19.818  18.669   3.620  0.00  0.00     0.127 C 
HETATM    5  C   UNK N   1      20.868  19.496   2.904  0.00  0.00     0.022 C 
HETATM    6  C   UNK N   1      22.217  18.943   3.332  0.00  0.00     0.037 C 
HETATM    7  C   UNK N   1      21.948  17.640   4.059  0.00  0.00     0.179 C 
ENDROOT
BRANCH   7   8
HETATM    8  C   UNK N   1      22.698  17.661   5.368  0.00  0.00     0.245 C 
HETATM    9  O   UNK N   1      22.312  18.438   6.225  0.00  0.00    -0.271 OA
HETATM   10  N   UNK N   1      23.670  16.779   5.707  0.00  0.00    -0.318 N 
HETATM   11  H   UNK N   1      23.811  16.666   6.675  0.00  0.00     0.169 HD
BRANCH  10  12
HETATM   12  C   UNK N   1      24.514  15.994   4.883  0.00  0.00     0.106 A 
HETATM   13  C   UNK N   1      25.493  16.496   3.991  0.00  0.00     0.077 A 
HETATM   14  N   UNK N   1      25.741  15.673   2.903  0.00  0.00    -0.344 N 
HETATM   15  C   UNK N   1      24.973  14.550   2.922  0.00  0.00     0.128 A 
ATOM     16  HN  UNK N   1      26.421  15.885   2.173  1.00  0.00     0.167 HD
HETATM   17  S   UNK N   1      24.014  14.556   4.257  0.00  0.00    -0.048 SA
BRANCH  13  18
HETATM   18  C   UNK N   1      26.123  17.830   4.108  0.00  0.00    -0.007 A 
HETATM   19  C   UNK N   1      27.220  18.030   4.957  0.00  0.00     0.014 A 
HETATM   20  C   UNK N   1      27.832  19.282   5.050  0.00  0.00     0.001 A 
HETATM   21  C   UNK N   1      27.344  20.352   4.297  0.00  0.00     0.000 A 
HETATM   22  C   UNK N   1      26.251  20.167   3.448  0.00  0.00     0.001 A 
HETATM   23  C   UNK N   1      25.646  18.909   3.347  0.00  0.00     0.014 A 
ENDBRANCH  13  18
BRANCH  15  24
HETATM   24  C   UNK N   1      24.745  13.669   1.774  0.00  0.00     0.181 A 
HETATM   25  N   UNK N   1      23.863  13.918   0.791  0.00  0.00    -0.343 N 
HETATM   26  C   UNK N   1      23.847  12.789   0.055  0.00  0.00     0.115 A 
ATOM     27  HN  UNK N   1      23.326  14.771   0.637  1.00  0.00     0.167 HD
HETATM   28  C   UNK N   1      24.724  11.884   0.625  0.00  0.00     0.161 A 
HETATM   29  O   UNK N   1      25.245  12.461   1.681  0.00  0.00    -0.302 OA
ENDBRANCH  15  24
ENDBRANCH  10  12
ENDBRANCH   7   8
BRANCH   1  30
HETATM   30  C   UNK N   1      20.552  15.179   5.092  0.00  0.00     0.181 C 
BRANCH  30  31
HETATM   31  N   UNK N   1      20.187  14.809   6.453  0.00  0.00    -0.346 N 
HETATM   32  C   UNK N   1      21.069  14.632   7.479  0.00  0.00     0.240 C 
HETATM   33  O   UNK N   1      22.266  14.811   7.314  0.00  0.00    -0.271 OA
HETATM   34  H   UNK N   1      19.231  14.676   6.649  0.00  0.00     0.163 HD
BRANCH  32  35
HETATM   35  C   UNK N   1      20.581  14.188   8.824  0.00  0.00     0.165 C 
HETATM   36  C   UNK N   1      19.640  15.224   9.410  0.00  0.00     0.042 C 
BRANCH  35  37
HETATM   37  N   UNK N   1      21.696  13.967   9.732  0.00  0.00    -0.414 N 
HETATM   38  C   UNK N   1      21.413  12.754  10.480  0.00  0.00     0.140 C 
HETATM   39  H   UNK N   1      22.524  14.556   9.826  0.00  0.00     0.153 HD
ENDBRANCH  35  37
ENDBRANCH  32  35
ENDBRANCH  30  31
BRANCH  30  40
HETATM   40  C   UNK N   1      20.391  13.970   4.141  0.00  0.00     0.018 C 
HETATM   41  C   UNK N   1      19.235  13.015   4.472  0.00  0.00     0.007 C 
HETATM   42  C   UNK N   1      19.105  11.954   3.386  0.00  0.00     0.000 C 
HETATM   43  C   UNK N   1      18.777  12.575   2.022  0.00  0.00     0.000 C 
HETATM   44  C   UNK N   1      19.254  14.024   1.863  0.00  0.00     0.000 C 
HETATM   45  C   UNK N   1      20.535  14.306   2.649  0.00  0.00     0.007 C 
ENDBRANCH  30  40
ENDBRANCH   1  30
TORSDOF 9
ENDMDL
MODEL 8
REMARK VINA RESULT:      -6.8      2.216      5.286
REMARK  9 active torsions:
REMARK  status: ('A' for Active; 'I' for Inactive)
REMARK    1  A    between atoms: C_2  and  C_3 
REMARK    2  A    between atoms: C_2  and  N_41 
REMARK       I    between atoms: C_3  and  N_5 
REMARK    3  A    between atoms: C_6  and  N_5 
REMARK    4  A    between atoms: C_6  and  C_7 
REMARK    5  A    between atoms: C_6  and  C_13 
REMARK       I    between atoms: C_13  and  N_15 
REMARK    6  A    between atoms: C_19  and  C_20 
REMARK       I    between atoms: C_20  and  N_22 
REMARK    7  A    between atoms: N_22  and  C_23 
REMARK    8  A    between atoms: C_24  and  C_35 
REMARK    9  A    between atoms: C_27  and  C_29 
ROOT
HETATM    1  C   UNK N   1      26.664  15.685   6.319  0.00  0.00     0.243 C 
HETATM    2  O   UNK N   1      25.823  15.905   7.185  0.00  0.00    -0.271 OA
HETATM    3  N   UNK N   1      26.595  14.513   5.625  0.00  0.00    -0.337 N 
HETATM    4  C   UNK N   1      25.646  13.497   5.975  0.00  0.00     0.127 C 
HETATM    5  C   UNK N   1      26.083  12.254   5.223  0.00  0.00     0.022 C 
HETATM    6  C   UNK N   1      27.125  12.705   4.214  0.00  0.00     0.037 C 
HETATM    7  C   UNK N   1      27.491  14.133   4.566  0.00  0.00     0.179 C 
ENDROOT
BRANCH   7   8
HETATM    8  C   UNK N   1      27.411  14.969   3.313  0.00  0.00     0.245 C 
HETATM    9  O   UNK N   1      28.461  15.270   2.770  0.00  0.00    -0.271 OA
HETATM   10  N   UNK N   1      26.258  15.283   2.674  0.00  0.00    -0.318 N 
HETATM   11  H   UNK N   1      26.356  15.499   1.719  0.00  0.00     0.169 HD
BRANCH  10  12
HETATM   12  C   UNK N   1      24.932  15.346   3.169  0.00  0.00     0.106 A 
HETATM   13  C   UNK N   1      23.810  14.692   2.604  0.00  0.00     0.077 A 
HETATM   14  N   UNK N   1      22.604  15.339   2.832  0.00  0.00    -0.344 N 
HETATM   15  C   UNK N   1      22.763  16.484   3.550  0.00  0.00     0.128 A 
ATOM     16  HN  UNK N   1      21.703  14.996   2.499  1.00  0.00     0.167 HD
HETATM   17  S   UNK N   1      24.352  16.695   3.914  0.00  0.00    -0.048 SA
BRANCH  13  18
HETATM   18  C   UNK N   1      23.890  13.495   1.738  0.00  0.00    -0.007 A 
HETATM   19  C   UNK N   1      23.598  13.583   0.369  0.00  0.00     0.014 A 
HETATM   20  C   UNK N   1      23.698  12.459  -0.455  0.00  0.00     0.001 A 
HETATM   21  C   UNK N   1      24.084  11.231   0.087  0.00  0.00     0.000 A 
HETATM   22  C   UNK N   1      24.377  11.131   1.449  0.00  0.00     0.001 A 
HETATM   23  C   UNK N   1      24.288  12.259   2.271  0.00  0.00     0.014 A 
ENDBRANCH  13  18
BRANCH  15  24
HETATM   24  C   UNK N   1      21.766  17.551   3.660  0.00  0.00     0.181 A 
HETATM   25  N   UNK N   1      20.464  17.406   3.358  0.00  0.00    -0.343 N 
HETATM   26  C   UNK N   1      19.958  18.654   3.426  0.00  0.00     0.115 A 
ATOM     27  HN  UNK N   1      19.970  16.545   3.128  1.00  0.00     0.167 HD
HETATM   28  C   UNK N   1      20.982  19.521   3.767  0.00  0.00     0.161 A 
HETATM   29  O   UNK N   1      22.073  18.805   3.890  0.00  0.00    -0.302 OA
ENDBRANCH  15  24
ENDBRANCH  10  12
ENDBRANCH   7   8
BRANCH   1  30
HETATM   30  C   UNK N   1      27.754  16.726   6.076  0.00  0.00     0.181 C 
BRANCH  30  31
HETATM   31  N   UNK N   1      27.197  18.060   5.897  0.00  0.00    -0.346 N 
HETATM   32  C   UNK N   1      27.360  18.834   4.786  0.00  0.00     0.240 C 
HETATM   33  O   UNK N   1      27.987  18.422   3.822  0.00  0.00    -0.271 OA
HETATM   34  H   UNK N   1      26.660  18.433   6.635  0.00  0.00     0.163 HD
BRANCH  32  35
HETATM   35  C   UNK N   1      26.791  20.220   4.742  0.00  0.00     0.165 C 
HETATM   36  C   UNK N   1      27.057  20.938   6.052  0.00  0.00     0.042 C 
BRANCH  35  37
HETATM   37  N   UNK N   1      25.360  20.184   4.483  0.00  0.00    -0.414 N 
HETATM   38  C   UNK N   1      25.175  20.360   3.052  0.00  0.00     0.140 C 
HETATM   39  H   UNK N   1      24.624  20.059   5.177  0.00  0.00     0.153 HD
ENDBRANCH  35  37
ENDBRANCH  32  35
ENDBRANCH  30  31
BRANCH  30  40
HETATM   40  C   UNK N   1      28.889  16.751   7.128  0.00  0.00     0.018 C 
HETATM   41  C   UNK N   1      30.282  17.109   6.591  0.00  0.00     0.007 C 
HETATM   42  C   UNK N   1      31.271  17.233   7.744  0.00  0.00     0.000 C 
HETATM   43  C   UNK N   1      30.877  18.355   8.713  0.00  0.00     0.000 C 
HETATM   44  C   UNK N   1      29.376  18.670   8.729  0.00  0.00     0.000 C 
HETATM   45  C   UNK N   1      28.518  17.434   8.453  0.00  0.00     0.007 C 
ENDBRANCH  30  40
ENDBRANCH   1  30
TORSDOF 9
ENDMDL
MODEL 9
REMARK VINA RESULT:      -6.8     11.895     13.535
REMARK  9 active torsions:
REMARK  status: ('A' for Active; 'I' for Inactive)
REMARK    1  A    between atoms: C_2  and  C_3 
REMARK    2  A    between atoms: C_2  and  N_41 
REMARK       I    between atoms: C_3  and  N_5 
REMARK    3  A    between atoms: C_6  and  N_5 
REMARK    4  A    between atoms: C_6  and  C_7 
REMARK    5  A    between atoms: C_6  and  C_13 
REMARK       I    between atoms: C_13  and  N_15 
REMARK    6  A    between atoms: C_19  and  C_20 
REMARK       I    between atoms: C_20  and  N_22 
REMARK    7  A    between atoms: N_22  and  C_23 
REMARK    8  A    between atoms: C_24  and  C_35 
REMARK    9  A    between atoms: C_27  and  C_29 
ROOT
HETATM    1  C   UNK N   1      31.537  22.686  -3.301  0.00  0.00     0.243 C 
HETATM    2  O   UNK N   1      32.128  22.083  -2.411  0.00  0.00    -0.271 OA
HETATM    3  N   UNK N   1      30.281  23.155  -3.050  0.00  0.00    -0.337 N 
HETATM    4  C   UNK N   1      29.606  22.848  -1.822  0.00  0.00     0.127 C 
HETATM    5  C   UNK N   1      28.159  23.247  -2.042  0.00  0.00     0.022 C 
HETATM    6  C   UNK N   1      28.127  24.063  -3.324  0.00  0.00     0.037 C 
HETATM    7  C   UNK N   1      29.482  23.900  -3.984  0.00  0.00     0.179 C 
ENDROOT
BRANCH   7   8
HETATM    8  C   UNK N   1      30.005  25.269  -4.342  0.00  0.00     0.245 C 
HETATM    9  O   UNK N   1      30.787  25.794  -3.567  0.00  0.00    -0.271 OA
HETATM   10  N   UNK N   1      29.781  25.888  -5.527  0.00  0.00    -0.318 N 
HETATM   11  H   UNK N   1      30.447  26.570  -5.773  0.00  0.00     0.169 HD
BRANCH  10  12
HETATM   12  C   UNK N   1      28.737  25.704  -6.466  0.00  0.00     0.106 A 
HETATM   13  C   UNK N   1      27.425  26.227  -6.354  0.00  0.00     0.077 A 
HETATM   14  N   UNK N   1      26.457  25.468  -6.993  0.00  0.00    -0.344 N 
HETATM   15  C   UNK N   1      26.980  24.363  -7.589  0.00  0.00     0.128 A 
ATOM     16  HN  UNK N   1      25.466  25.711  -7.013  1.00  0.00     0.167 HD
HETATM   17  S   UNK N   1      28.606  24.322  -7.351  0.00  0.00    -0.048 SA
BRANCH  13  18
HETATM   18  C   UNK N   1      27.065  27.405  -5.533  0.00  0.00    -0.007 A 
HETATM   19  C   UNK N   1      26.255  27.264  -4.398  0.00  0.00     0.014 A 
HETATM   20  C   UNK N   1      25.935  28.371  -3.608  0.00  0.00     0.001 A 
HETATM   21  C   UNK N   1      26.416  29.635  -3.954  0.00  0.00     0.000 A 
HETATM   22  C   UNK N   1      27.223  29.790  -5.084  0.00  0.00     0.001 A 
HETATM   23  C   UNK N   1      27.553  28.678  -5.868  0.00  0.00     0.014 A 
ENDBRANCH  13  18
BRANCH  15  24
HETATM   24  C   UNK N   1      26.205  23.204  -8.037  0.00  0.00     0.181 A 
HETATM   25  N   UNK N   1      25.224  22.626  -7.322  0.00  0.00    -0.343 N 
HETATM   26  C   UNK N   1      24.912  21.511  -8.013  0.00  0.00     0.115 A 
ATOM     27  HN  UNK N   1      24.809  22.958  -6.452  1.00  0.00     0.167 HD
HETATM   28  C   UNK N   1      25.726  21.448  -9.130  0.00  0.00     0.161 A 
HETATM   29  O   UNK N   1      26.508  22.500  -9.100  0.00  0.00    -0.302 OA
ENDBRANCH  15  24
ENDBRANCH  10  12
ENDBRANCH   7   8
BRANCH   1  30
HETATM   30  C   UNK N   1      32.229  22.862  -4.651  0.00  0.00     0.181 C 
BRANCH  30  31
HETATM   31  N   UNK N   1      33.001  24.097  -4.704  0.00  0.00    -0.346 N 
HETATM   32  C   UNK N   1      33.102  24.909  -5.796  0.00  0.00     0.240 C 
HETATM   33  O   UNK N   1      32.502  24.651  -6.827  0.00  0.00    -0.271 OA
HETATM   34  H   UNK N   1      33.486  24.367  -3.891  0.00  0.00     0.163 HD
BRANCH  32  35
HETATM   35  C   UNK N   1      33.979  26.124  -5.752  0.00  0.00     0.165 C 
HETATM   36  C   UNK N   1      35.346  25.765  -5.199  0.00  0.00     0.042 C 
BRANCH  35  37
HETATM   37  N   UNK N   1      33.377  27.168  -4.937  0.00  0.00    -0.414 N 
HETATM   38  C   UNK N   1      32.667  28.063  -5.835  0.00  0.00     0.140 C 
HETATM   39  H   UNK N   1      33.442  27.255  -3.922  0.00  0.00     0.153 HD
ENDBRANCH  35  37
ENDBRANCH  32  35
ENDBRANCH  30  31
BRANCH  30  40
HETATM   40  C   UNK N   1      33.094  21.664  -5.111  0.00  0.00     0.018 C 
HETATM   41  C   UNK N   1      34.464  21.536  -4.430  0.00  0.00     0.007 C 
HETATM   42  C   UNK N   1      35.148  20.247  -4.870  0.00  0.00     0.000 C 
HETATM   43  C   UNK N   1      34.342  19.007  -4.460  0.00  0.00     0.000 C 
HETATM   44  C   UNK N   1      32.838  19.263  -4.303  0.00  0.00     0.000 C 
HETATM   45  C   UNK N   1      32.327  20.342  -5.259  0.00  0.00     0.007 C 
ENDBRANCH  30  40
ENDBRANCH   1  30
TORSDOF 9
ENDMDL
