MODEL 1
REMARK VINA RESULT:      -8.5      0.000      0.000
REMARK  7 active torsions:
REMARK  status: ('A' for Active; 'I' for Inactive)
REMARK    1  A    between atoms: N_5  and  C_8 
REMARK    2  A    between atoms: N_11  and  C_14 
REMARK    3  A    between atoms: C_17  and  N_22 
REMARK    4  A    between atoms: C_18  and  O_20 
REMARK       I    between atoms: N_22  and  C_23 
REMARK    5  A    between atoms: C_28  and  N_31 
REMARK    6  A    between atoms: N_31  and  C_32 
REMARK    7  A    between atoms: C_37  and  P_38 
ROOT
HETATM    1  N   UNK N   1      32.878  17.391   4.675  0.00  0.00    -0.189 N 
HETATM    2  C   UNK N   1      31.637  17.316   4.032  0.00  0.00     0.684 A 
HETATM    3  N   UNK N   1      31.527  16.716   2.812  0.00  0.00    -0.200 N 
ATOM      4  HN  UNK N   1      32.358  16.584   2.236  1.00  0.00     0.183 HD
HETATM    5  C   UNK N   1      30.314  16.293   2.360  0.00  0.00     0.133 A 
HETATM    6  C   UNK N   1      29.173  16.438   3.159  0.00  0.00     0.094 A 
HETATM    7  C   UNK N   1      29.317  17.076   4.394  0.00  0.00     0.144 A 
HETATM    8  N   UNK N   1      30.538  17.480   4.789  0.00  0.00    -0.175 N 
ATOM      9  HN  UNK N   1      30.634  17.927   5.700  1.00  0.00     0.186 HD
HETATM   10 Cl   UNK N   1      27.618  15.861   2.594  0.00  0.00    -0.079 Cl
HETATM   11  H   UNK N   1      33.547  18.062   4.407  0.00  0.00     0.184 HD
ENDROOT
BRANCH   1  12
HETATM   12  C   UNK N   1      33.149  16.466   5.730  0.00  0.00     0.082 A 
HETATM   13  C   UNK N   1      32.647  15.163   5.645  0.00  0.00     0.035 A 
HETATM   14  C   UNK N   1      32.803  14.277   6.716  0.00  0.00     0.032 A 
HETATM   15  C   UNK N   1      33.482  14.682   7.877  0.00  0.00     0.033 A 
HETATM   16  C   UNK N   1      34.033  15.957   7.929  0.00  0.00     0.068 A 
HETATM   17  C   UNK N   1      33.875  16.860   6.894  0.00  0.00     0.097 A 
BRANCH  15  18
HETATM   18  N   UNK N   1      33.389  13.932   9.090  0.00  0.00    -0.381 N 
HETATM   19  C   UNK N   1      33.354  14.667  10.330  0.00  0.00     0.125 C 
HETATM   20  C   UNK N   1      34.785  15.161  10.602  0.00  0.00     0.055 C 
HETATM   21  C   UNK N   1      35.838  14.031  10.468  0.00  0.00     0.226 C 
HETATM   22  C   UNK N   1      35.607  13.082   9.263  0.00  0.00     0.055 C 
HETATM   23  C   UNK N   1      34.129  12.693   9.152  0.00  0.00     0.125 C 
BRANCH  21  24
HETATM   24  N   UNK N   1      36.044  13.310  11.726  0.00  0.00     0.096 N 
HETATM   25  C   UNK N   1      37.372  12.694  11.761  0.00  0.00     0.303 C 
HETATM   26  C   UNK N   1      37.541  11.860  13.031  0.00  0.00     0.302 C 
HETATM   27  N   UNK N   1      36.818  12.404  14.189  0.00  0.00     0.087 N 
HETATM   28  C   UNK N   1      35.531  11.733  14.304  0.00  0.00     0.310 C 
HETATM   29  C   UNK N   1      36.621  13.855  14.104  0.00  0.00     0.302 C 
HETATM   30  C   UNK N   1      35.873  14.270  12.827  0.00  0.00     0.303 C 
ENDBRANCH  21  24
ENDBRANCH  15  18
BRANCH  17  31
HETATM   31  O   UNK N   1      34.348  18.122   7.042  0.00  0.00    -0.354 OA
HETATM   32  C   UNK N   1      34.713  18.674   8.251  0.00  0.00     0.210 C 
ENDBRANCH  17  31
ENDBRANCH   1  12
BRANCH   7  33
HETATM   33  N   UNK N   1      28.222  17.341   5.244  0.00  0.00    -0.340 N 
HETATM   34  H   UNK N   1      27.659  16.621   5.611  0.00  0.00     0.167 HD
BRANCH  33  35
HETATM   35  C   UNK N   1      27.979  18.705   5.540  0.00  0.00     0.047 A 
HETATM   36  C   UNK N   1      27.466  19.557   4.553  0.00  0.00     0.030 A 
HETATM   37  C   UNK N   1      27.084  20.861   4.885  0.00  0.00     0.002 A 
HETATM   38  C   UNK N   1      27.207  21.313   6.202  0.00  0.00     0.001 A 
HETATM   39  C   UNK N   1      27.719  20.465   7.189  0.00  0.00     0.017 A 
HETATM   40  C   UNK N   1      28.095  19.157   6.867  0.00  0.00     0.030 A 
BRANCH  40  41
HETATM   41  P   UNK N   1      28.706  18.034   8.202  0.00  0.00     0.103 P 
HETATM   42  O   UNK N   1      29.869  17.271   7.513  0.00  0.00    -0.318 OA
HETATM   43  C   UNK N   1      27.564  16.671   8.749  0.00  0.00     0.091 C 
HETATM   44  C   UNK N   1      29.564  18.885   9.609  0.00  0.00     0.091 C 
ENDBRANCH  40  41
ENDBRANCH  33  35
ENDBRANCH   7  33
TORSDOF 7
ENDMDL
MODEL 2
REMARK VINA RESULT:      -8.3      1.641      2.560
REMARK  7 active torsions:
REMARK  status: ('A' for Active; 'I' for Inactive)
REMARK    1  A    between atoms: N_5  and  C_8 
REMARK    2  A    between atoms: N_11  and  C_14 
REMARK    3  A    between atoms: C_17  and  N_22 
REMARK    4  A    between atoms: C_18  and  O_20 
REMARK       I    between atoms: N_22  and  C_23 
REMARK    5  A    between atoms: C_28  and  N_31 
REMARK    6  A    between atoms: N_31  and  C_32 
REMARK    7  A    between atoms: C_37  and  P_38 
ROOT
HETATM    1  N   UNK N   1      34.377  15.591   4.574  0.00  0.00    -0.189 N 
HETATM    2  C   UNK N   1      33.120  15.731   3.974  0.00  0.00     0.684 A 
HETATM    3  N   UNK N   1      32.646  14.769   3.131  0.00  0.00    -0.200 N 
ATOM      4  HN  UNK N   1      33.292  14.106   2.706  1.00  0.00     0.183 HD
HETATM    5  C   UNK N   1      31.314  14.691   2.856  0.00  0.00     0.133 A 
HETATM    6  C   UNK N   1      30.413  15.575   3.464  0.00  0.00     0.094 A 
HETATM    7  C   UNK N   1      30.935  16.562   4.305  0.00  0.00     0.144 A 
HETATM    8  N   UNK N   1      32.259  16.598   4.537  0.00  0.00    -0.175 N 
ATOM      9  HN  UNK N   1      32.626  17.310   5.168  1.00  0.00     0.186 HD
HETATM   10 Cl   UNK N   1      28.696  15.452   3.139  0.00  0.00    -0.079 Cl
HETATM   11  H   UNK N   1      35.201  15.781   4.070  0.00  0.00     0.184 HD
ENDROOT
BRANCH   1  12
HETATM   12  C   UNK N   1      34.431  15.163   5.935  0.00  0.00     0.082 A 
HETATM   13  C   UNK N   1      34.348  13.797   6.229  0.00  0.00     0.035 A 
HETATM   14  C   UNK N   1      34.286  13.365   7.557  0.00  0.00     0.032 A 
HETATM   15  C   UNK N   1      34.325  14.296   8.608  0.00  0.00     0.033 A 
HETATM   16  C   UNK N   1      34.472  15.646   8.310  0.00  0.00     0.068 A 
HETATM   17  C   UNK N   1      34.515  16.102   7.006  0.00  0.00     0.097 A 
BRANCH  15  18
HETATM   18  N   UNK N   1      33.953  13.930   9.938  0.00  0.00    -0.381 N 
HETATM   19  C   UNK N   1      34.041  14.943  10.960  0.00  0.00     0.125 C 
HETATM   20  C   UNK N   1      35.533  15.116  11.296  0.00  0.00     0.055 C 
HETATM   21  C   UNK N   1      36.241  13.763  11.563  0.00  0.00     0.226 C 
HETATM   22  C   UNK N   1      35.837  12.626  10.590  0.00  0.00     0.055 C 
HETATM   23  C   UNK N   1      34.319  12.604  10.379  0.00  0.00     0.125 C 
BRANCH  21  24
HETATM   24  N   UNK N   1      36.160  13.361  12.969  0.00  0.00     0.096 N 
HETATM   25  C   UNK N   1      37.132  12.306  13.266  0.00  0.00     0.303 C 
HETATM   26  C   UNK N   1      36.972  11.821  14.706  0.00  0.00     0.302 C 
HETATM   27  N   UNK N   1      36.544  12.877  15.635  0.00  0.00     0.087 N 
HETATM   28  C   UNK N   1      35.098  12.814  15.792  0.00  0.00     0.310 C 
HETATM   29  C   UNK N   1      36.942  14.218  15.192  0.00  0.00     0.302 C 
HETATM   30  C   UNK N   1      36.403  14.555  13.793  0.00  0.00     0.303 C 
ENDBRANCH  21  24
ENDBRANCH  15  18
BRANCH  17  31
HETATM   31  O   UNK N   1      34.558  17.438   6.776  0.00  0.00    -0.354 OA
HETATM   32  C   UNK N   1      34.268  18.396   7.724  0.00  0.00     0.210 C 
ENDBRANCH  17  31
ENDBRANCH   1  12
BRANCH   7  33
HETATM   33  N   UNK N   1      30.127  17.549   4.909  0.00  0.00    -0.340 N 
HETATM   34  H   UNK N   1      29.712  18.275   4.389  0.00  0.00     0.167 HD
BRANCH  33  35
HETATM   35  C   UNK N   1      29.947  17.435   6.309  0.00  0.00     0.047 A 
HETATM   36  C   UNK N   1      30.902  16.769   7.088  0.00  0.00     0.030 A 
HETATM   37  C   UNK N   1      30.803  16.787   8.483  0.00  0.00     0.002 A 
HETATM   38  C   UNK N   1      29.755  17.476   9.102  0.00  0.00     0.001 A 
HETATM   39  C   UNK N   1      28.800  18.141   8.327  0.00  0.00     0.017 A 
HETATM   40  C   UNK N   1      28.897  18.135   6.932  0.00  0.00     0.030 A 
BRANCH  40  41
HETATM   41  P   UNK N   1      27.660  19.077   5.932  0.00  0.00     0.103 P 
HETATM   42  O   UNK N   1      28.531  19.744   4.834  0.00  0.00    -0.318 OA
HETATM   43  C   UNK N   1      26.829  20.522   6.758  0.00  0.00     0.091 C 
HETATM   44  C   UNK N   1      26.497  18.028   4.937  0.00  0.00     0.091 C 
ENDBRANCH  40  41
ENDBRANCH  33  35
ENDBRANCH   7  33
TORSDOF 7
ENDMDL
MODEL 3
REMARK VINA RESULT:      -8.2      1.273      2.145
REMARK  7 active torsions:
REMARK  status: ('A' for Active; 'I' for Inactive)
REMARK    1  A    between atoms: N_5  and  C_8 
REMARK    2  A    between atoms: N_11  and  C_14 
REMARK    3  A    between atoms: C_17  and  N_22 
REMARK    4  A    between atoms: C_18  and  O_20 
REMARK       I    between atoms: N_22  and  C_23 
REMARK    5  A    between atoms: C_28  and  N_31 
REMARK    6  A    between atoms: N_31  and  C_32 
REMARK    7  A    between atoms: C_37  and  P_38 
ROOT
HETATM    1  N   UNK N   1      33.095  17.458   4.468  0.00  0.00    -0.189 N 
HETATM    2  C   UNK N   1      31.844  17.013   4.024  0.00  0.00     0.684 A 
HETATM    3  N   UNK N   1      31.754  16.080   3.034  0.00  0.00    -0.200 N 
ATOM      4  HN  UNK N   1      32.549  15.918   2.418  1.00  0.00     0.183 HD
HETATM    5  C   UNK N   1      30.608  15.365   2.863  0.00  0.00     0.133 A 
HETATM    6  C   UNK N   1      29.521  15.556   3.728  0.00  0.00     0.094 A 
HETATM    7  C   UNK N   1      29.639  16.534   4.719  0.00  0.00     0.144 A 
HETATM    8  N   UNK N   1      30.792  17.216   4.838  0.00  0.00    -0.175 N 
ATOM      9  HN  UNK N   1      30.874  17.914   5.577  1.00  0.00     0.186 HD
HETATM   10 Cl   UNK N   1      28.059  14.611   3.534  0.00  0.00    -0.079 Cl
HETATM   11  H   UNK N   1      33.609  18.119   3.949  0.00  0.00     0.184 HD
ENDROOT
BRANCH   1  12
HETATM   12  C   UNK N   1      33.607  16.926   5.690  0.00  0.00     0.082 A 
HETATM   13  C   UNK N   1      33.545  17.701   6.854  0.00  0.00     0.035 A 
HETATM   14  C   UNK N   1      34.141  17.248   8.035  0.00  0.00     0.032 A 
HETATM   15  C   UNK N   1      34.790  16.002   8.068  0.00  0.00     0.033 A 
HETATM   16  C   UNK N   1      34.791  15.210   6.926  0.00  0.00     0.068 A 
HETATM   17  C   UNK N   1      34.229  15.643   5.740  0.00  0.00     0.097 A 
BRANCH  15  18
HETATM   18  N   UNK N   1      35.666  15.650   9.140  0.00  0.00    -0.381 N 
HETATM   19  C   UNK N   1      36.457  14.454   8.993  0.00  0.00     0.125 C 
HETATM   20  C   UNK N   1      35.513  13.258   9.210  0.00  0.00     0.055 C 
HETATM   21  C   UNK N   1      34.663  13.401  10.499  0.00  0.00     0.226 C 
HETATM   22  C   UNK N   1      34.106  14.828  10.743  0.00  0.00     0.055 C 
HETATM   23  C   UNK N   1      35.185  15.886  10.483  0.00  0.00     0.125 C 
BRANCH  21  24
HETATM   24  N   UNK N   1      35.337  12.848  11.675  0.00  0.00     0.096 N 
HETATM   25  C   UNK N   1      35.105  13.687  12.852  0.00  0.00     0.303 C 
HETATM   26  C   UNK N   1      35.894  13.160  14.050  0.00  0.00     0.302 C 
HETATM   27  N   UNK N   1      36.039  11.697  14.057  0.00  0.00     0.087 N 
HETATM   28  C   UNK N   1      37.321  11.344  13.464  0.00  0.00     0.310 C 
HETATM   29  C   UNK N   1      34.953  11.016  13.344  0.00  0.00     0.302 C 
HETATM   30  C   UNK N   1      34.827  11.484  11.885  0.00  0.00     0.303 C 
ENDBRANCH  21  24
ENDBRANCH  15  18
BRANCH  17  31
HETATM   31  O   UNK N   1      34.349  14.870   4.632  0.00  0.00    -0.354 OA
HETATM   32  C   UNK N   1      33.897  13.571   4.543  0.00  0.00     0.210 C 
ENDBRANCH  17  31
ENDBRANCH   1  12
BRANCH   7  33
HETATM   33  N   UNK N   1      28.580  16.860   5.594  0.00  0.00    -0.340 N 
HETATM   34  H   UNK N   1      28.098  16.173   6.108  0.00  0.00     0.167 HD
BRANCH  33  35
HETATM   35  C   UNK N   1      28.253  18.235   5.690  0.00  0.00     0.047 A 
HETATM   36  C   UNK N   1      27.749  18.916   4.574  0.00  0.00     0.030 A 
HETATM   37  C   UNK N   1      27.284  20.228   4.708  0.00  0.00     0.002 A 
HETATM   38  C   UNK N   1      27.315  20.858   5.955  0.00  0.00     0.001 A 
HETATM   39  C   UNK N   1      27.818  20.181   7.070  0.00  0.00     0.017 A 
HETATM   40  C   UNK N   1      28.276  18.866   6.947  0.00  0.00     0.030 A 
BRANCH  40  41
HETATM   41  P   UNK N   1      28.876  17.969   8.448  0.00  0.00     0.103 P 
HETATM   42  O   UNK N   1      30.011  17.070   7.890  0.00  0.00    -0.318 OA
HETATM   43  C   UNK N   1      27.706  16.749   9.226  0.00  0.00     0.091 C 
HETATM   44  C   UNK N   1      29.771  19.023   9.684  0.00  0.00     0.091 C 
ENDBRANCH  40  41
ENDBRANCH  33  35
ENDBRANCH   7  33
TORSDOF 7
ENDMDL
MODEL 4
REMARK VINA RESULT:      -8.0      4.189      6.495
REMARK  7 active torsions:
REMARK  status: ('A' for Active; 'I' for Inactive)
REMARK    1  A    between atoms: N_5  and  C_8 
REMARK    2  A    between atoms: N_11  and  C_14 
REMARK    3  A    between atoms: C_17  and  N_22 
REMARK    4  A    between atoms: C_18  and  O_20 
REMARK       I    between atoms: N_22  and  C_23 
REMARK    5  A    between atoms: C_28  and  N_31 
REMARK    6  A    between atoms: N_31  and  C_32 
REMARK    7  A    between atoms: C_37  and  P_38 
ROOT
HETATM    1  N   UNK N   1      25.969  18.249   5.366  0.00  0.00    -0.189 N 
HETATM    2  C   UNK N   1      24.985  17.294   5.087  0.00  0.00     0.684 A 
HETATM    3  N   UNK N   1      24.604  17.052   3.800  0.00  0.00    -0.200 N 
ATOM      4  HN  UNK N   1      24.801  17.741   3.076  1.00  0.00     0.183 HD
HETATM    5  C   UNK N   1      23.962  15.895   3.478  0.00  0.00     0.133 A 
HETATM    6  C   UNK N   1      23.719  14.925   4.460  0.00  0.00     0.094 A 
HETATM    7  C   UNK N   1      24.103  15.214   5.772  0.00  0.00     0.144 A 
HETATM    8  N   UNK N   1      24.729  16.375   6.035  0.00  0.00    -0.175 N 
ATOM      9  HN  UNK N   1      25.022  16.567   6.993  1.00  0.00     0.186 HD
HETATM   10 Cl   UNK N   1      22.925  13.420   4.041  0.00  0.00    -0.079 Cl
HETATM   11  H   UNK N   1      25.754  19.210   5.366  0.00  0.00     0.184 HD
ENDROOT
BRANCH   1  12
HETATM   12  C   UNK N   1      27.292  17.794   5.652  0.00  0.00     0.082 A 
HETATM   13  C   UNK N   1      27.858  18.071   6.901  0.00  0.00     0.035 A 
HETATM   14  C   UNK N   1      29.190  17.734   7.161  0.00  0.00     0.032 A 
HETATM   15  C   UNK N   1      29.965  17.098   6.177  0.00  0.00     0.033 A 
HETATM   16  C   UNK N   1      29.377  16.769   4.961  0.00  0.00     0.068 A 
HETATM   17  C   UNK N   1      28.070  17.109   4.670  0.00  0.00     0.097 A 
BRANCH  15  18
HETATM   18  N   UNK N   1      31.388  17.025   6.286  0.00  0.00    -0.381 N 
HETATM   19  C   UNK N   1      32.057  15.943   5.608  0.00  0.00     0.125 C 
HETATM   20  C   UNK N   1      31.807  14.669   6.435  0.00  0.00     0.055 C 
HETATM   21  C   UNK N   1      32.114  14.871   7.942  0.00  0.00     0.226 C 
HETATM   22  C   UNK N   1      31.628  16.227   8.517  0.00  0.00     0.055 C 
HETATM   23  C   UNK N   1      31.966  17.377   7.563  0.00  0.00     0.125 C 
BRANCH  21  24
HETATM   24  N   UNK N   1      33.513  14.587   8.267  0.00  0.00     0.096 N 
HETATM   25  C   UNK N   1      33.858  15.113   9.589  0.00  0.00     0.303 C 
HETATM   26  C   UNK N   1      35.344  14.903   9.878  0.00  0.00     0.302 C 
HETATM   27  N   UNK N   1      35.890  13.679   9.275  0.00  0.00     0.087 N 
HETATM   28  C   UNK N   1      36.513  14.013   8.002  0.00  0.00     0.310 C 
HETATM   29  C   UNK N   1      34.872  12.641   9.077  0.00  0.00     0.302 C 
HETATM   30  C   UNK N   1      33.701  13.129   8.209  0.00  0.00     0.303 C 
ENDBRANCH  21  24
ENDBRANCH  15  18
BRANCH  17  31
HETATM   31  O   UNK N   1      27.581  16.851   3.432  0.00  0.00    -0.354 OA
HETATM   32  C   UNK N   1      27.836  15.696   2.725  0.00  0.00     0.210 C 
ENDBRANCH  17  31
ENDBRANCH   1  12
BRANCH   7  33
HETATM   33  N   UNK N   1      23.839  14.342   6.850  0.00  0.00    -0.340 N 
HETATM   34  H   UNK N   1      24.408  13.562   7.042  0.00  0.00     0.167 HD
BRANCH  33  35
HETATM   35  C   UNK N   1      22.705  14.654   7.640  0.00  0.00     0.047 A 
HETATM   36  C   UNK N   1      21.789  15.620   7.203  0.00  0.00     0.030 A 
HETATM   37  C   UNK N   1      20.595  15.818   7.903  0.00  0.00     0.002 A 
HETATM   38  C   UNK N   1      20.311  15.049   9.036  0.00  0.00     0.001 A 
HETATM   39  C   UNK N   1      21.224  14.086   9.475  0.00  0.00     0.017 A 
HETATM   40  C   UNK N   1      22.416  13.874   8.775  0.00  0.00     0.030 A 
BRANCH  40  41
HETATM   41  P   UNK N   1      23.575  12.549   9.336  0.00  0.00     0.103 P 
HETATM   42  O   UNK N   1      24.962  13.242   9.266  0.00  0.00    -0.318 OA
HETATM   43  C   UNK N   1      23.777  11.074   8.219  0.00  0.00     0.091 C 
HETATM   44  C   UNK N   1      23.442  12.101  11.131  0.00  0.00     0.091 C 
ENDBRANCH  40  41
ENDBRANCH  33  35
ENDBRANCH   7  33
TORSDOF 7
ENDMDL
MODEL 5
REMARK VINA RESULT:      -7.9      1.704      3.052
REMARK  7 active torsions:
REMARK  status: ('A' for Active; 'I' for Inactive)
REMARK    1  A    between atoms: N_5  and  C_8 
REMARK    2  A    between atoms: N_11  and  C_14 
REMARK    3  A    between atoms: C_17  and  N_22 
REMARK    4  A    between atoms: C_18  and  O_20 
REMARK       I    between atoms: N_22  and  C_23 
REMARK    5  A    between atoms: C_28  and  N_31 
REMARK    6  A    between atoms: N_31  and  C_32 
REMARK    7  A    between atoms: C_37  and  P_38 
ROOT
HETATM    1  N   UNK N   1      33.293  17.852   5.168  0.00  0.00    -0.189 N 
HETATM    2  C   UNK N   1      32.155  17.302   4.567  0.00  0.00     0.684 A 
HETATM    3  N   UNK N   1      32.267  16.551   3.435  0.00  0.00    -0.200 N 
ATOM      4  HN  UNK N   1      33.106  16.622   2.861  1.00  0.00     0.183 HD
HETATM    5  C   UNK N   1      31.263  15.707   3.067  0.00  0.00     0.133 A 
HETATM    6  C   UNK N   1      30.121  15.576   3.868  0.00  0.00     0.094 A 
HETATM    7  C   UNK N   1      30.028  16.376   5.010  0.00  0.00     0.144 A 
HETATM    8  N   UNK N   1      31.047  17.197   5.323  0.00  0.00    -0.175 N 
ATOM      9  HN  UNK N   1      30.977  17.762   6.169  1.00  0.00     0.186 HD
HETATM   10 Cl   UNK N   1      28.845  14.464   3.415  0.00  0.00    -0.079 Cl
HETATM   11  H   UNK N   1      33.715  18.663   4.804  0.00  0.00     0.184 HD
ENDROOT
BRANCH   1  12
HETATM   12  C   UNK N   1      33.827  17.204   6.324  0.00  0.00     0.082 A 
HETATM   13  C   UNK N   1      33.726  17.831   7.570  0.00  0.00     0.035 A 
HETATM   14  C   UNK N   1      34.340  17.269   8.694  0.00  0.00     0.032 A 
HETATM   15  C   UNK N   1      35.048  16.061   8.584  0.00  0.00     0.033 A 
HETATM   16  C   UNK N   1      35.090  15.411   7.356  0.00  0.00     0.068 A 
HETATM   17  C   UNK N   1      34.510  15.955   6.225  0.00  0.00     0.097 A 
BRANCH  15  18
HETATM   18  N   UNK N   1      35.938  15.626   9.614  0.00  0.00    -0.381 N 
HETATM   19  C   UNK N   1      36.592  14.354   9.440  0.00  0.00     0.125 C 
HETATM   20  C   UNK N   1      35.542  13.264   9.719  0.00  0.00     0.055 C 
HETATM   21  C   UNK N   1      34.779  13.503  11.048  0.00  0.00     0.226 C 
HETATM   22  C   UNK N   1      34.387  14.982  11.304  0.00  0.00     0.055 C 
HETATM   23  C   UNK N   1      35.555  15.919  10.977  0.00  0.00     0.125 C 
BRANCH  21  24
HETATM   24  N   UNK N   1      35.453  12.889  12.194  0.00  0.00     0.096 N 
HETATM   25  C   UNK N   1      34.938  13.431  13.453  0.00  0.00     0.303 C 
HETATM   26  C   UNK N   1      35.715  12.862  14.639  0.00  0.00     0.302 C 
HETATM   27  N   UNK N   1      36.179  11.483  14.427  0.00  0.00     0.087 N 
HETATM   28  C   UNK N   1      37.554  11.513  13.951  0.00  0.00     0.310 C 
HETATM   29  C   UNK N   1      35.338  10.741  13.482  0.00  0.00     0.302 C 
HETATM   30  C   UNK N   1      35.241  11.435  12.115  0.00  0.00     0.303 C 
ENDBRANCH  21  24
ENDBRANCH  15  18
BRANCH  17  31
HETATM   31  O   UNK N   1      34.670  15.325   5.035  0.00  0.00    -0.354 OA
HETATM   32  C   UNK N   1      34.343  14.006   4.808  0.00  0.00     0.210 C 
ENDBRANCH  17  31
ENDBRANCH   1  12
BRANCH   7  33
HETATM   33  N   UNK N   1      28.891  16.379   5.845  0.00  0.00    -0.340 N 
HETATM   34  H   UNK N   1      28.064  15.903   5.602  0.00  0.00     0.167 HD
BRANCH  33  35
HETATM   35  C   UNK N   1      29.008  17.107   7.054  0.00  0.00     0.047 A 
HETATM   36  C   UNK N   1      29.814  16.621   8.092  0.00  0.00     0.030 A 
HETATM   37  C   UNK N   1      30.051  17.411   9.221  0.00  0.00     0.002 A 
HETATM   38  C   UNK N   1      29.490  18.689   9.313  0.00  0.00     0.001 A 
HETATM   39  C   UNK N   1      28.685  19.176   8.279  0.00  0.00     0.017 A 
HETATM   40  C   UNK N   1      28.450  18.396   7.142  0.00  0.00     0.030 A 
BRANCH  40  41
HETATM   41  P   UNK N   1      27.437  19.088   5.760  0.00  0.00     0.103 P 
HETATM   42  O   UNK N   1      28.445  19.153   4.583  0.00  0.00    -0.318 OA
HETATM   43  C   UNK N   1      26.864  20.850   5.932  0.00  0.00     0.091 C 
HETATM   44  C   UNK N   1      26.128  17.949   5.103  0.00  0.00     0.091 C 
ENDBRANCH  40  41
ENDBRANCH  33  35
ENDBRANCH   7  33
TORSDOF 7
ENDMDL
MODEL 6
REMARK VINA RESULT:      -7.9      6.714     10.304
REMARK  7 active torsions:
REMARK  status: ('A' for Active; 'I' for Inactive)
REMARK    1  A    between atoms: N_5  and  C_8 
REMARK    2  A    between atoms: N_11  and  C_14 
REMARK    3  A    between atoms: C_17  and  N_22 
REMARK    4  A    between atoms: C_18  and  O_20 
REMARK       I    between atoms: N_22  and  C_23 
REMARK    5  A    between atoms: C_28  and  N_31 
REMARK    6  A    between atoms: N_31  and  C_32 
REMARK    7  A    between atoms: C_37  and  P_38 
ROOT
HETATM    1  N   UNK N   1      21.924  18.376   5.147  0.00  0.00    -0.189 N 
HETATM    2  C   UNK N   1      21.082  18.066   4.072  0.00  0.00     0.684 A 
HETATM    3  N   UNK N   1      20.812  18.999   3.115  0.00  0.00    -0.200 N 
ATOM      4  HN  UNK N   1      20.966  19.987   3.313  1.00  0.00     0.183 HD
HETATM    5  C   UNK N   1      20.336  18.619   1.897  0.00  0.00     0.133 A 
HETATM    6  C   UNK N   1      20.154  17.261   1.602  0.00  0.00     0.094 A 
HETATM    7  C   UNK N   1      20.421  16.332   2.611  0.00  0.00     0.144 A 
HETATM    8  N   UNK N   1      20.883  16.764   3.799  0.00  0.00    -0.175 N 
ATOM      9  HN  UNK N   1      21.092  16.076   4.522  1.00  0.00     0.186 HD
HETATM   10 Cl   UNK N   1      19.577  16.768   0.023  0.00  0.00    -0.079 Cl
HETATM   11  H   UNK N   1      21.594  18.903   5.910  0.00  0.00     0.184 HD
ENDROOT
BRANCH   1  12
HETATM   12  C   UNK N   1      23.273  17.910   5.106  0.00  0.00     0.082 A 
HETATM   13  C   UNK N   1      24.238  18.662   4.428  0.00  0.00     0.035 A 
HETATM   14  C   UNK N   1      25.539  18.170   4.278  0.00  0.00     0.032 A 
HETATM   15  C   UNK N   1      25.891  16.924   4.824  0.00  0.00     0.033 A 
HETATM   16  C   UNK N   1      24.944  16.212   5.551  0.00  0.00     0.068 A 
HETATM   17  C   UNK N   1      23.647  16.665   5.696  0.00  0.00     0.097 A 
BRANCH  15  18
HETATM   18  N   UNK N   1      27.090  16.255   4.430  0.00  0.00    -0.381 N 
HETATM   19  C   UNK N   1      27.738  15.414   5.406  0.00  0.00     0.125 C 
HETATM   20  C   UNK N   1      28.442  16.346   6.408  0.00  0.00     0.055 C 
HETATM   21  C   UNK N   1      29.305  17.427   5.708  0.00  0.00     0.226 C 
HETATM   22  C   UNK N   1      28.642  18.062   4.457  0.00  0.00     0.055 C 
HETATM   23  C   UNK N   1      27.998  16.986   3.576  0.00  0.00     0.125 C 
BRANCH  21  24
HETATM   24  N   UNK N   1      30.673  16.969   5.453  0.00  0.00     0.096 N 
HETATM   25  C   UNK N   1      31.293  17.752   4.383  0.00  0.00     0.303 C 
HETATM   26  C   UNK N   1      32.681  17.203   4.053  0.00  0.00     0.302 C 
HETATM   27  N   UNK N   1      33.379  16.641   5.218  0.00  0.00     0.087 N 
HETATM   28  C   UNK N   1      33.168  15.201   5.250  0.00  0.00     0.310 C 
HETATM   29  C   UNK N   1      32.942  17.239   6.485  0.00  0.00     0.302 C 
HETATM   30  C   UNK N   1      31.429  17.092   6.709  0.00  0.00     0.303 C 
ENDBRANCH  21  24
ENDBRANCH  15  18
BRANCH  17  31
HETATM   31  O   UNK N   1      22.741  15.880   6.329  0.00  0.00    -0.354 OA
HETATM   32  C   UNK N   1      22.571  14.536   6.076  0.00  0.00     0.210 C 
ENDBRANCH  17  31
ENDBRANCH   1  12
BRANCH   7  33
HETATM   33  N   UNK N   1      20.201  14.948   2.447  0.00  0.00    -0.340 N 
HETATM   34  H   UNK N   1      19.463  14.479   2.899  0.00  0.00     0.167 HD
BRANCH  33  35
HETATM   35  C   UNK N   1      21.105  14.271   1.592  0.00  0.00     0.047 A 
HETATM   36  C   UNK N   1      22.427  14.720   1.471  0.00  0.00     0.030 A 
HETATM   37  C   UNK N   1      23.358  13.966   0.749  0.00  0.00     0.002 A 
HETATM   38  C   UNK N   1      22.972  12.762   0.153  0.00  0.00     0.001 A 
HETATM   39  C   UNK N   1      21.654  12.312   0.271  0.00  0.00     0.017 A 
HETATM   40  C   UNK N   1      20.719  13.055   0.999  0.00  0.00     0.030 A 
BRANCH  40  41
HETATM   41  P   UNK N   1      19.000  12.406   1.197  0.00  0.00     0.103 P 
HETATM   42  O   UNK N   1      18.122  13.667   0.979  0.00  0.00    -0.318 OA
HETATM   43  C   UNK N   1      18.505  11.828   2.895  0.00  0.00     0.091 C 
HETATM   44  C   UNK N   1      18.427  11.280  -0.161  0.00  0.00     0.091 C 
ENDBRANCH  40  41
ENDBRANCH  33  35
ENDBRANCH   7  33
TORSDOF 7
ENDMDL
MODEL 7
REMARK VINA RESULT:      -7.8      5.099      8.516
REMARK  7 active torsions:
REMARK  status: ('A' for Active; 'I' for Inactive)
REMARK    1  A    between atoms: N_5  and  C_8 
REMARK    2  A    between atoms: N_11  and  C_14 
REMARK    3  A    between atoms: C_17  and  N_22 
REMARK    4  A    between atoms: C_18  and  O_20 
REMARK       I    between atoms: N_22  and  C_23 
REMARK    5  A    between atoms: C_28  and  N_31 
REMARK    6  A    between atoms: N_31  and  C_32 
REMARK    7  A    between atoms: C_37  and  P_38 
ROOT
HETATM    1  N   UNK N   1      23.309  14.237   2.928  0.00  0.00    -0.189 N 
HETATM    2  C   UNK N   1      22.432  14.747   3.892  0.00  0.00     0.684 A 
HETATM    3  N   UNK N   1      21.945  13.941   4.878  0.00  0.00    -0.200 N 
ATOM      4  HN  UNK N   1      21.970  12.928   4.762  1.00  0.00     0.183 HD
HETATM    5  C   UNK N   1      21.426  14.480   6.016  0.00  0.00     0.133 A 
HETATM    6  C   UNK N   1      21.421  15.870   6.200  0.00  0.00     0.094 A 
HETATM    7  C   UNK N   1      21.908  16.668   5.162  0.00  0.00     0.144 A 
HETATM    8  N   UNK N   1      22.403  16.082   4.057  0.00  0.00    -0.175 N 
ATOM      9  HN  UNK N   1      22.774  16.673   3.313  1.00  0.00     0.186 HD
HETATM   10 Cl   UNK N   1      20.787  16.564   7.678  0.00  0.00    -0.079 Cl
HETATM   11  H   UNK N   1      22.973  13.702   2.173  0.00  0.00     0.184 HD
ENDROOT
BRANCH   1  12
HETATM   12  C   UNK N   1      24.703  14.511   3.069  0.00  0.00     0.082 A 
HETATM   13  C   UNK N   1      25.295  15.489   2.262  0.00  0.00     0.035 A 
HETATM   14  C   UNK N   1      26.678  15.695   2.303  0.00  0.00     0.032 A 
HETATM   15  C   UNK N   1      27.481  14.935   3.169  0.00  0.00     0.033 A 
HETATM   16  C   UNK N   1      26.879  14.011   4.014  0.00  0.00     0.068 A 
HETATM   17  C   UNK N   1      25.518  13.772   3.979  0.00  0.00     0.097 A 
BRANCH  15  18
HETATM   18  N   UNK N   1      28.901  14.892   3.017  0.00  0.00    -0.381 N 
HETATM   19  C   UNK N   1      29.623  13.886   3.754  0.00  0.00     0.125 C 
HETATM   20  C   UNK N   1      29.673  14.349   5.221  0.00  0.00     0.055 C 
HETATM   21  C   UNK N   1      30.145  15.819   5.363  0.00  0.00     0.226 C 
HETATM   22  C   UNK N   1      29.549  16.787   4.308  0.00  0.00     0.055 C 
HETATM   23  C   UNK N   1      29.587  16.160   2.910  0.00  0.00     0.125 C 
BRANCH  21  24
HETATM   24  N   UNK N   1      31.602  15.927   5.471  0.00  0.00     0.096 N 
HETATM   25  C   UNK N   1      32.022  17.329   5.465  0.00  0.00     0.303 C 
HETATM   26  C   UNK N   1      33.546  17.432   5.476  0.00  0.00     0.302 C 
HETATM   27  N   UNK N   1      34.200  16.346   6.219  0.00  0.00     0.087 N 
HETATM   28  C   UNK N   1      34.597  15.301   5.285  0.00  0.00     0.310 C 
HETATM   29  C   UNK N   1      33.345  15.780   7.268  0.00  0.00     0.302 C 
HETATM   30  C   UNK N   1      32.011  15.254   6.714  0.00  0.00     0.303 C 
ENDBRANCH  21  24
ENDBRANCH  15  18
BRANCH  17  31
HETATM   31  O   UNK N   1      25.000  12.788   4.755  0.00  0.00    -0.354 OA
HETATM   32  C   UNK N   1      25.174  12.707   6.119  0.00  0.00     0.210 C 
ENDBRANCH  17  31
ENDBRANCH   1  12
BRANCH   7  33
HETATM   33  N   UNK N   1      21.880  18.078   5.211  0.00  0.00    -0.340 N 
HETATM   34  H   UNK N   1      21.153  18.571   5.655  0.00  0.00     0.167 HD
BRANCH  33  35
HETATM   35  C   UNK N   1      22.961  18.744   4.582  0.00  0.00     0.047 A 
HETATM   36  C   UNK N   1      24.276  18.490   4.991  0.00  0.00     0.030 A 
HETATM   37  C   UNK N   1      25.348  19.029   4.272  0.00  0.00     0.002 A 
HETATM   38  C   UNK N   1      25.108  19.816   3.141  0.00  0.00     0.001 A 
HETATM   39  C   UNK N   1      23.796  20.071   2.732  0.00  0.00     0.017 A 
HETATM   40  C   UNK N   1      22.719  19.529   3.439  0.00  0.00     0.030 A 
BRANCH  40  41
HETATM   41  P   UNK N   1      20.997  19.826   2.839  0.00  0.00     0.103 P 
HETATM   42  O   UNK N   1      20.323  20.539   4.042  0.00  0.00    -0.318 OA
HETATM   43  C   UNK N   1      19.924  18.329   2.573  0.00  0.00     0.091 C 
HETATM   44  C   UNK N   1      20.845  21.090   1.490  0.00  0.00     0.091 C 
ENDBRANCH  40  41
ENDBRANCH  33  35
ENDBRANCH   7  33
TORSDOF 7
ENDMDL
MODEL 8
REMARK VINA RESULT:      -7.7      3.480     10.169
REMARK  7 active torsions:
REMARK  status: ('A' for Active; 'I' for Inactive)
REMARK    1  A    between atoms: N_5  and  C_8 
REMARK    2  A    between atoms: N_11  and  C_14 
REMARK    3  A    between atoms: C_17  and  N_22 
REMARK    4  A    between atoms: C_18  and  O_20 
REMARK       I    between atoms: N_22  and  C_23 
REMARK    5  A    between atoms: C_28  and  N_31 
REMARK    6  A    between atoms: N_31  and  C_32 
REMARK    7  A    between atoms: C_37  and  P_38 
ROOT
HETATM    1  N   UNK N   1      34.470  17.669   8.019  0.00  0.00    -0.189 N 
HETATM    2  C   UNK N   1      34.937  16.768   8.983  0.00  0.00     0.684 A 
HETATM    3  N   UNK N   1      35.183  17.188  10.257  0.00  0.00    -0.200 N 
ATOM      4  HN  UNK N   1      35.312  18.180  10.447  1.00  0.00     0.183 HD
HETATM    5  C   UNK N   1      35.256  16.287  11.276  0.00  0.00     0.133 A 
HETATM    6  C   UNK N   1      35.043  14.924  11.031  0.00  0.00     0.094 A 
HETATM    7  C   UNK N   1      34.816  14.526   9.711  0.00  0.00     0.144 A 
HETATM    8  N   UNK N   1      34.760  15.457   8.742  0.00  0.00    -0.175 N 
ATOM      9  HN  UNK N   1      34.574  15.157   7.785  1.00  0.00     0.186 HD
HETATM   10 Cl   UNK N   1      35.101  13.768  12.346  0.00  0.00    -0.079 Cl
HETATM   11  H   UNK N   1      35.083  18.299   7.576  0.00  0.00     0.184 HD
ENDROOT
BRANCH   1  12
HETATM   12  C   UNK N   1      33.079  17.650   7.695  0.00  0.00     0.082 A 
HETATM   13  C   UNK N   1      32.140  17.949   8.688  0.00  0.00     0.035 A 
HETATM   14  C   UNK N   1      30.771  17.827   8.423  0.00  0.00     0.032 A 
HETATM   15  C   UNK N   1      30.329  17.420   7.154  0.00  0.00     0.033 A 
HETATM   16  C   UNK N   1      31.266  17.187   6.154  0.00  0.00     0.068 A 
HETATM   17  C   UNK N   1      32.624  17.280   6.394  0.00  0.00     0.097 A 
BRANCH  15  18
HETATM   18  N   UNK N   1      28.985  16.985   6.941  0.00  0.00    -0.381 N 
HETATM   19  C   UNK N   1      28.634  16.517   5.623  0.00  0.00     0.125 C 
HETATM   20  C   UNK N   1      28.504  17.758   4.723  0.00  0.00     0.055 C 
HETATM   21  C   UNK N   1      27.611  18.858   5.355  0.00  0.00     0.226 C 
HETATM   22  C   UNK N   1      27.842  19.075   6.873  0.00  0.00     0.055 C 
HETATM   23  C   UNK N   1      27.942  17.732   7.606  0.00  0.00     0.125 C 
BRANCH  21  24
HETATM   24  N   UNK N   1      26.197  18.690   5.015  0.00  0.00     0.096 N 
HETATM   25  C   UNK N   1      25.758  19.729   4.082  0.00  0.00     0.303 C 
HETATM   26  C   UNK N   1      24.259  19.608   3.812  0.00  0.00     0.302 C 
HETATM   27  N   UNK N   1      23.769  18.223   3.842  0.00  0.00     0.087 N 
HETATM   28  C   UNK N   1      23.229  17.938   5.164  0.00  0.00     0.310 C 
HETATM   29  C   UNK N   1      24.810  17.246   3.506  0.00  0.00     0.302 C 
HETATM   30  C   UNK N   1      26.031  17.349   4.434  0.00  0.00     0.303 C 
ENDBRANCH  21  24
ENDBRANCH  15  18
BRANCH  17  31
HETATM   31  O   UNK N   1      33.492  16.943   5.408  0.00  0.00    -0.354 OA
HETATM   32  C   UNK N   1      33.124  16.698   4.103  0.00  0.00     0.210 C 
ENDBRANCH  17  31
ENDBRANCH   1  12
BRANCH   7  33
HETATM   33  N   UNK N   1      34.665  13.172   9.341  0.00  0.00    -0.340 N 
HETATM   34  H   UNK N   1      33.906  12.627   9.653  0.00  0.00     0.167 HD
BRANCH  33  35
HETATM   35  C   UNK N   1      35.670  12.642   8.495  0.00  0.00     0.047 A 
HETATM   36  C   UNK N   1      37.006  12.626   8.915  0.00  0.00     0.030 A 
HETATM   37  C   UNK N   1      37.972  11.968   8.149  0.00  0.00     0.002 A 
HETATM   38  C   UNK N   1      37.605  11.319   6.966  0.00  0.00     0.001 A 
HETATM   39  C   UNK N   1      36.273  11.333   6.544  0.00  0.00     0.017 A 
HETATM   40  C   UNK N   1      35.298  11.981   7.309  0.00  0.00     0.030 A 
BRANCH  40  41
HETATM   41  P   UNK N   1      33.533  11.930   6.764  0.00  0.00     0.103 P 
HETATM   42  O   UNK N   1      32.776  11.540   8.061  0.00  0.00    -0.318 OA
HETATM   43  C   UNK N   1      33.056  10.586   5.569  0.00  0.00     0.091 C 
HETATM   44  C   UNK N   1      32.794  13.580   6.351  0.00  0.00     0.091 C 
ENDBRANCH  40  41
ENDBRANCH  33  35
ENDBRANCH   7  33
TORSDOF 7
ENDMDL
MODEL 9
REMARK VINA RESULT:      -7.7      4.039     10.294
REMARK  7 active torsions:
REMARK  status: ('A' for Active; 'I' for Inactive)
REMARK    1  A    between atoms: N_5  and  C_8 
REMARK    2  A    between atoms: N_11  and  C_14 
REMARK    3  A    between atoms: C_17  and  N_22 
REMARK    4  A    between atoms: C_18  and  O_20 
REMARK       I    between atoms: N_22  and  C_23 
REMARK    5  A    between atoms: C_28  and  N_31 
REMARK    6  A    between atoms: N_31  and  C_32 
REMARK    7  A    between atoms: C_37  and  P_38 
ROOT
HETATM    1  N   UNK N   1      37.518  13.964  10.914  0.00  0.00    -0.189 N 
HETATM    2  C   UNK N   1      36.916  13.380  12.034  0.00  0.00     0.684 A 
HETATM    3  N   UNK N   1      36.901  14.035  13.230  0.00  0.00    -0.200 N 
ATOM      4  HN  UNK N   1      37.560  14.794  13.400  1.00  0.00     0.183 HD
HETATM    5  C   UNK N   1      36.011  13.681  14.198  0.00  0.00     0.133 A 
HETATM    6  C   UNK N   1      35.077  12.664  13.961  0.00  0.00     0.094 A 
HETATM    7  C   UNK N   1      35.134  11.998  12.734  0.00  0.00     0.144 A 
HETATM    8  N   UNK N   1      36.037  12.385  11.816  0.00  0.00    -0.175 N 
ATOM      9  HN  UNK N   1      36.057  11.905  10.916  1.00  0.00     0.186 HD
HETATM   10 Cl   UNK N   1      33.907  12.232  15.192  0.00  0.00    -0.079 Cl
HETATM   11  H   UNK N   1      38.497  13.957  10.805  0.00  0.00     0.184 HD
ENDROOT
BRANCH   1  12
HETATM   12  C   UNK N   1      36.676  14.572   9.934  0.00  0.00     0.082 A 
HETATM   13  C   UNK N   1      35.925  15.700  10.280  0.00  0.00     0.035 A 
HETATM   14  C   UNK N   1      35.009  16.243   9.372  0.00  0.00     0.032 A 
HETATM   15  C   UNK N   1      34.851  15.671   8.099  0.00  0.00     0.033 A 
HETATM   16  C   UNK N   1      35.647  14.590   7.739  0.00  0.00     0.068 A 
HETATM   17  C   UNK N   1      36.544  14.021   8.624  0.00  0.00     0.097 A 
BRANCH  15  18
HETATM   18  N   UNK N   1      33.727  15.991   7.277  0.00  0.00    -0.381 N 
HETATM   19  C   UNK N   1      33.510  17.378   6.950  0.00  0.00     0.125 C 
HETATM   20  C   UNK N   1      32.937  18.054   8.208  0.00  0.00     0.055 C 
HETATM   21  C   UNK N   1      31.747  17.266   8.815  0.00  0.00     0.226 C 
HETATM   22  C   UNK N   1      31.943  15.728   8.834  0.00  0.00     0.055 C 
HETATM   23  C   UNK N   1      32.516  15.235   7.501  0.00  0.00     0.125 C 
BRANCH  21  24
HETATM   24  N   UNK N   1      30.462  17.667   8.237  0.00  0.00     0.096 N 
HETATM   25  C   UNK N   1      30.028  16.709   7.218  0.00  0.00     0.303 C 
HETATM   26  C   UNK N   1      28.740  17.186   6.549  0.00  0.00     0.302 C 
HETATM   27  N   UNK N   1      27.854  17.935   7.453  0.00  0.00     0.087 N 
HETATM   28  C   UNK N   1      28.094  19.360   7.279  0.00  0.00     0.310 C 
HETATM   29  C   UNK N   1      28.036  17.565   8.860  0.00  0.00     0.302 C 
HETATM   30  C   UNK N   1      29.485  17.756   9.334  0.00  0.00     0.303 C 
ENDBRANCH  21  24
ENDBRANCH  15  18
BRANCH  17  31
HETATM   31  O   UNK N   1      37.220  12.906   8.252  0.00  0.00    -0.354 OA
HETATM   32  C   UNK N   1      38.367  12.916   7.488  0.00  0.00     0.210 C 
ENDBRANCH  17  31
ENDBRANCH   1  12
BRANCH   7  33
HETATM   33  N   UNK N   1      34.291  10.910  12.420  0.00  0.00    -0.340 N 
HETATM   34  H   UNK N   1      33.355  11.038  12.144  0.00  0.00     0.167 HD
BRANCH  33  35
HETATM   35  C   UNK N   1      34.872   9.623  12.527  0.00  0.00     0.047 A 
HETATM   36  C   UNK N   1      35.301   9.146  13.772  0.00  0.00     0.030 A 
HETATM   37  C   UNK N   1      35.732   7.822  13.903  0.00  0.00     0.002 A 
HETATM   38  C   UNK N   1      35.730   6.972  12.794  0.00  0.00     0.001 A 
HETATM   39  C   UNK N   1      35.304   7.445  11.549  0.00  0.00     0.017 A 
HETATM   40  C   UNK N   1      34.862   8.764  11.411  0.00  0.00     0.030 A 
BRANCH  40  41
HETATM   41  P   UNK N   1      34.241   9.348   9.771  0.00  0.00     0.103 P 
HETATM   42  O   UNK N   1      34.978  10.699   9.577  0.00  0.00    -0.318 OA
HETATM   43  C   UNK N   1      32.444   9.820   9.667  0.00  0.00     0.091 C 
HETATM   44  C   UNK N   1      34.829   8.359   8.316  0.00  0.00     0.091 C 
ENDBRANCH  40  41
ENDBRANCH  33  35
ENDBRANCH   7  33
TORSDOF 7
ENDMDL
