MODEL 1
REMARK VINA RESULT:      -8.2      0.000      0.000
REMARK  18 active torsions:
REMARK  status: ('A' for Active; 'I' for Inactive)
REMARK    1  A    between atoms: C_2  and  C_3 
REMARK    2  A    between atoms: C_3  and  O_5 
REMARK    3  A    between atoms: C_6  and  O_5 
REMARK    4  A    between atoms: C_9  and  O_58 
REMARK    5  A    between atoms: C_16  and  O_56 
REMARK    6  A    between atoms: C_19  and  O_36 
REMARK    7  A    between atoms: C_22  and  O_23 
REMARK    8  A    between atoms: O_23  and  C_24 
REMARK    9  A    between atoms: C_24  and  C_26 
REMARK   10  A    between atoms: O_36  and  C_37 
REMARK   11  A    between atoms: C_37  and  C_39 
REMARK   12  A    between atoms: C_39  and  C_40 
REMARK   13  A    between atoms: C_39  and  O_54 
REMARK   14  A    between atoms: C_40  and  C_41 
REMARK   15  A    between atoms: C_40  and  N_46 
REMARK       I    between atoms: N_46  and  C_47 
REMARK   16  A    between atoms: C_47  and  O_49 
REMARK   17  A    between atoms: O_49  and  C_50 
REMARK   18  A    between atoms: O_58  and  C_59 
ROOT
HETATM    1  C   UNK N   1      20.215  15.407   2.678  0.00  0.00     0.150 C 
HETATM    2  C   UNK N   1      19.368  16.229   3.646  0.00  0.00     0.069 C 
HETATM    3  C   UNK N   1      19.200  15.559   5.013  0.00  0.00     0.161 A 
HETATM    4  C   UNK N   1      20.406  14.758   5.493  0.00  0.00     0.125 A 
HETATM    5  C   UNK N   1      19.481  13.589   5.260  0.00  0.00     0.210 A 
HETATM    6  O   UNK N   1      18.396  14.413   4.912  0.00  0.00    -0.380 OA
HETATM    7  C   UNK N   1      21.706  14.609   4.601  0.00  0.00     0.076 C 
HETATM    8  C   UNK N   1      21.723  15.369   3.117  0.00  0.00     0.056 C 
HETATM    9  C   UNK N   1      22.472  14.894   1.758  0.00  0.00     0.171 C 
HETATM   10  O   UNK N   1      21.783  14.812   0.756  0.00  0.00    -0.294 OA
HETATM   11  C   UNK N   1      23.974  14.629   1.460  0.00  0.00     0.218 C 
HETATM   12  C   UNK N   1      24.749  13.708   2.370  0.00  0.00    -0.029 C 
HETATM   13  C   UNK N   1      26.060  14.017   2.598  0.00  0.00    -0.048 C 
HETATM   14  C   UNK N   1      26.654  13.855   4.029  0.00  0.00     0.164 C 
HETATM   15  C   UNK N   1      25.566  13.635   5.160  0.00  0.00     0.078 C 
HETATM   16  C   UNK N   1      24.175  13.990   4.601  0.00  0.00     0.098 C 
HETATM   17  C   UNK N   1      22.932  13.989   5.436  0.00  0.00     0.176 C 
HETATM   18  C   UNK N   1      24.011  12.968   3.419  0.00  0.00     0.013 C 
HETATM   19  C   UNK N   1      22.615  12.493   2.994  0.00  0.00     0.023 C 
HETATM   20  C   UNK N   1      24.644  11.586   3.668  0.00  0.00     0.023 C 
HETATM   21  O   UNK N   1      24.301  15.347   4.236  0.00  0.00    -0.386 OA
HETATM   22  C   UNK N   1      26.808  14.886   1.623  0.00  0.00     0.046 C 
HETATM   23  C   UNK N   1      22.184  16.808   3.345  0.00  0.00     0.027 C 
HETATM   24  H   UNK N   1      24.404  16.295   4.052  0.00  0.00     0.210 HD
ENDROOT
BRANCH  17  25
HETATM   25  O   UNK N   1      23.167  14.680   6.613  0.00  0.00    -0.308 OA
BRANCH  25  26
HETATM   26  C   UNK N   1      23.907  14.129   7.615  0.00  0.00     0.293 C 
HETATM   27  O   UNK N   1      25.121  14.281   7.634  0.00  0.00    -0.259 OA
BRANCH  26  28
HETATM   28  C   UNK N   1      23.265  13.272   8.635  0.00  0.00     0.039 A 
HETATM   29  C   UNK N   1      22.273  13.807   9.473  0.00  0.00     0.017 A 
HETATM   30  C   UNK N   1      21.701  13.025  10.479  0.00  0.00     0.001 A 
HETATM   31  C   UNK N   1      22.109  11.702  10.653  0.00  0.00     0.000 A 
HETATM   32  C   UNK N   1      23.092  11.158   9.820  0.00  0.00     0.001 A 
HETATM   33  C   UNK N   1      23.675  11.943   8.818  0.00  0.00     0.017 A 
ENDBRANCH  26  28
ENDBRANCH  25  26
ENDBRANCH  17  25
BRANCH  14  34
HETATM   34  O   UNK N   1      27.184  15.089   4.315  0.00  0.00    -0.309 OA
BRANCH  34  35
HETATM   35  C   UNK N   1      27.980  15.402   5.357  0.00  0.00     0.291 C 
HETATM   36  O   UNK N   1      29.001  14.756   5.522  0.00  0.00    -0.262 OA
BRANCH  35  37
HETATM   37  C   UNK N   1      27.627  16.438   6.375  0.00  0.00     0.246 C 
BRANCH  37  38
HETATM   38  C   UNK N   1      28.452  17.724   6.533  0.00  0.00     0.182 C 
BRANCH  38  39
HETATM   39  C   UNK N   1      27.885  18.984   5.913  0.00  0.00     0.078 A 
HETATM   40  C   UNK N   1      28.067  19.356   4.597  0.00  0.00     0.037 A 
HETATM   41  C   UNK N   1      27.280  20.477   4.419  0.00  0.00     0.027 A 
HETATM   42  C   UNK N   1      26.666  20.719   5.635  0.00  0.00     0.142 A 
HETATM   43  O   UNK N   1      27.049  19.807   6.497  0.00  0.00    -0.325 OA
ENDBRANCH  38  39
BRANCH  38  44
HETATM   44  N   UNK N   1      29.727  17.455   5.893  0.00  0.00    -0.323 N 
HETATM   45  C   UNK N   1      30.889  17.425   6.604  0.00  0.00     0.362 C 
HETATM   46  O   UNK N   1      30.868  17.613   7.820  0.00  0.00    -0.238 OA
HETATM   47  H   UNK N   1      29.753  17.290   4.923  0.00  0.00     0.165 HD
BRANCH  45  48
HETATM   48  O   UNK N   1      32.062  17.161   5.983  0.00  0.00    -0.294 OA
BRANCH  48  49
HETATM   49  C   UNK N   1      32.634  15.899   5.893  0.00  0.00     0.061 C 
HETATM   50  C   UNK N   1      32.127  14.940   6.964  0.00  0.00     0.046 C 
HETATM   51  C   UNK N   1      34.130  16.030   6.062  0.00  0.00     0.046 C 
HETATM   52  C   UNK N   1      32.354  15.315   4.519  0.00  0.00     0.046 C 
ENDBRANCH  48  49
ENDBRANCH  45  48
ENDBRANCH  38  44
ENDBRANCH  37  38
BRANCH  37  53
HETATM   53  O   UNK N   1      26.256  16.703   6.395  0.00  0.00    -0.383 OA
HETATM   54  H   UNK N   1      25.586  16.198   5.908  0.00  0.00     0.210 HD
ENDBRANCH  37  53
ENDBRANCH  35  37
ENDBRANCH  34  35
ENDBRANCH  14  34
BRANCH   4  55
HETATM   55  O   UNK N   1      20.571  14.803   6.869  0.00  0.00    -0.305 OA
BRANCH  55  56
HETATM   56  C   UNK N   1      20.085  15.761   7.700  0.00  0.00     0.255 C 
HETATM   57  O   UNK N   1      19.238  15.497   8.538  0.00  0.00    -0.266 OA
HETATM   58  C   UNK N   1      20.612  17.152   7.597  0.00  0.00     0.126 C 
ENDBRANCH  55  56
ENDBRANCH   4  55
BRANCH  11  59
HETATM   59  O   UNK N   1      24.181  14.262   0.125  0.00  0.00    -0.384 OA
HETATM   60  H   UNK N   1      24.946  14.609  -0.361  0.00  0.00     0.211 HD
ENDBRANCH  11  59
BRANCH   1  61
HETATM   61  O   UNK N   1      19.688  14.122   2.623  0.00  0.00    -0.315 OA
BRANCH  61  62
HETATM   62  C   UNK N   1      18.980  13.503   1.642  0.00  0.00     0.258 C 
HETATM   63  O   UNK N   1      18.251  14.180   0.935  0.00  0.00    -0.265 OA
BRANCH  62  64
HETATM   64  C   UNK N   1      18.997  12.020   1.447  0.00  0.00     0.106 C 
HETATM   65  C   UNK N   1      20.099  11.578   0.514  0.00  0.00     0.015 C 
ENDBRANCH  62  64
ENDBRANCH  61  62
ENDBRANCH   1  61
TORSDOF 18
ENDMDL
MODEL 2
REMARK VINA RESULT:      -7.8      1.476      3.190
REMARK  18 active torsions:
REMARK  status: ('A' for Active; 'I' for Inactive)
REMARK    1  A    between atoms: C_2  and  C_3 
REMARK    2  A    between atoms: C_3  and  O_5 
REMARK    3  A    between atoms: C_6  and  O_5 
REMARK    4  A    between atoms: C_9  and  O_58 
REMARK    5  A    between atoms: C_16  and  O_56 
REMARK    6  A    between atoms: C_19  and  O_36 
REMARK    7  A    between atoms: C_22  and  O_23 
REMARK    8  A    between atoms: O_23  and  C_24 
REMARK    9  A    between atoms: C_24  and  C_26 
REMARK   10  A    between atoms: O_36  and  C_37 
REMARK   11  A    between atoms: C_37  and  C_39 
REMARK   12  A    between atoms: C_39  and  C_40 
REMARK   13  A    between atoms: C_39  and  O_54 
REMARK   14  A    between atoms: C_40  and  C_41 
REMARK   15  A    between atoms: C_40  and  N_46 
REMARK       I    between atoms: N_46  and  C_47 
REMARK   16  A    between atoms: C_47  and  O_49 
REMARK   17  A    between atoms: O_49  and  C_50 
REMARK   18  A    between atoms: O_58  and  C_59 
ROOT
HETATM    1  C   UNK N   1      20.543  15.333   2.974  0.00  0.00     0.150 C 
HETATM    2  C   UNK N   1      19.686  16.125   3.959  0.00  0.00     0.069 C 
HETATM    3  C   UNK N   1      19.588  15.462   5.336  0.00  0.00     0.161 A 
HETATM    4  C   UNK N   1      20.841  14.721   5.789  0.00  0.00     0.125 A 
HETATM    5  C   UNK N   1      19.965  13.509   5.592  0.00  0.00     0.210 A 
HETATM    6  O   UNK N   1      18.834  14.280   5.268  0.00  0.00    -0.380 OA
HETATM    7  C   UNK N   1      22.122  14.623   4.862  0.00  0.00     0.076 C 
HETATM    8  C   UNK N   1      22.062  15.368   3.372  0.00  0.00     0.056 C 
HETATM    9  C   UNK N   1      22.795  14.915   1.996  0.00  0.00     0.171 C 
HETATM   10  O   UNK N   1      22.083  14.792   1.015  0.00  0.00    -0.294 OA
HETATM   11  C   UNK N   1      24.298  14.716   1.658  0.00  0.00     0.218 C 
HETATM   12  C   UNK N   1      25.140  13.839   2.554  0.00  0.00    -0.029 C 
HETATM   13  C   UNK N   1      26.441  14.210   2.743  0.00  0.00    -0.048 C 
HETATM   14  C   UNK N   1      27.081  14.089   4.157  0.00  0.00     0.164 C 
HETATM   15  C   UNK N   1      26.036  13.831   5.321  0.00  0.00     0.078 C 
HETATM   16  C   UNK N   1      24.615  14.116   4.798  0.00  0.00     0.098 C 
HETATM   17  C   UNK N   1      23.398  14.068   5.667  0.00  0.00     0.176 C 
HETATM   18  C   UNK N   1      24.466  13.077   3.630  0.00  0.00     0.013 C 
HETATM   19  C   UNK N   1      23.082  12.535   3.248  0.00  0.00     0.023 C 
HETATM   20  C   UNK N   1      25.168  11.728   3.873  0.00  0.00     0.023 C 
HETATM   21  O   UNK N   1      24.669  15.475   4.418  0.00  0.00    -0.386 OA
HETATM   22  C   UNK N   1      27.121  15.103   1.739  0.00  0.00     0.046 C 
HETATM   23  C   UNK N   1      22.464  16.829   3.574  0.00  0.00     0.027 C 
HETATM   24  H   UNK N   1      24.723  16.424   4.223  0.00  0.00     0.210 HD
ENDROOT
BRANCH  17  25
HETATM   25  O   UNK N   1      23.634  14.780   6.831  0.00  0.00    -0.308 OA
BRANCH  25  26
HETATM   26  C   UNK N   1      24.472  14.300   7.790  0.00  0.00     0.293 C 
HETATM   27  O   UNK N   1      25.665  14.575   7.754  0.00  0.00    -0.259 OA
BRANCH  26  28
HETATM   28  C   UNK N   1      23.971  13.376   8.830  0.00  0.00     0.039 A 
HETATM   29  C   UNK N   1      24.793  13.035   9.917  0.00  0.00     0.017 A 
HETATM   30  C   UNK N   1      24.354  12.118  10.875  0.00  0.00     0.001 A 
HETATM   31  C   UNK N   1      23.089  11.540  10.760  0.00  0.00     0.000 A 
HETATM   32  C   UNK N   1      22.261  11.878   9.685  0.00  0.00     0.001 A 
HETATM   33  C   UNK N   1      22.702  12.788   8.718  0.00  0.00     0.017 A 
ENDBRANCH  26  28
ENDBRANCH  25  26
ENDBRANCH  17  25
BRANCH  14  34
HETATM   34  O   UNK N   1      27.562  15.349   4.418  0.00  0.00    -0.309 OA
BRANCH  34  35
HETATM   35  C   UNK N   1      28.747  15.659   4.980  0.00  0.00     0.291 C 
HETATM   36  O   UNK N   1      29.355  14.785   5.575  0.00  0.00    -0.262 OA
BRANCH  35  37
HETATM   37  C   UNK N   1      29.311  17.043   4.992  0.00  0.00     0.246 C 
BRANCH  37  38
HETATM   38  C   UNK N   1      28.790  18.116   5.961  0.00  0.00     0.182 C 
BRANCH  38  39
HETATM   39  C   UNK N   1      28.744  17.749   7.430  0.00  0.00     0.078 A 
HETATM   40  C   UNK N   1      29.744  18.035   8.337  0.00  0.00     0.037 A 
HETATM   41  C   UNK N   1      29.245  17.656   9.567  0.00  0.00     0.027 A 
HETATM   42  C   UNK N   1      27.972  17.164   9.336  0.00  0.00     0.142 A 
HETATM   43  O   UNK N   1      27.711  17.240   8.053  0.00  0.00    -0.325 OA
ENDBRANCH  38  39
BRANCH  38  44
HETATM   44  N   UNK N   1      27.431  18.402   5.537  0.00  0.00    -0.323 N 
HETATM   45  C   UNK N   1      27.009  19.677   5.312  0.00  0.00     0.362 C 
HETATM   46  O   UNK N   1      27.792  20.616   5.452  0.00  0.00    -0.238 OA
HETATM   47  H   UNK N   1      26.800  17.657   5.409  0.00  0.00     0.165 HD
BRANCH  45  48
HETATM   48  O   UNK N   1      25.739  19.914   4.907  0.00  0.00    -0.294 OA
BRANCH  48  49
HETATM   49  C   UNK N   1      25.309  19.829   3.590  0.00  0.00     0.061 C 
HETATM   50  C   UNK N   1      25.981  20.850   2.678  0.00  0.00     0.046 C 
HETATM   51  C   UNK N   1      23.820  20.083   3.547  0.00  0.00     0.046 C 
HETATM   52  C   UNK N   1      25.573  18.429   3.061  0.00  0.00     0.046 C 
ENDBRANCH  48  49
ENDBRANCH  45  48
ENDBRANCH  38  44
ENDBRANCH  37  38
BRANCH  37  53
HETATM   53  O   UNK N   1      30.706  17.038   4.936  0.00  0.00    -0.383 OA
HETATM   54  H   UNK N   1      31.245  17.684   4.452  0.00  0.00     0.210 HD
ENDBRANCH  37  53
ENDBRANCH  35  37
ENDBRANCH  34  35
ENDBRANCH  14  34
BRANCH   4  55
HETATM   55  O   UNK N   1      21.043  14.787   7.159  0.00  0.00    -0.305 OA
BRANCH  55  56
HETATM   56  C   UNK N   1      20.667  15.809   7.972  0.00  0.00     0.255 C 
HETATM   57  O   UNK N   1      21.095  16.939   7.802  0.00  0.00    -0.266 OA
HETATM   58  C   UNK N   1      19.701  15.544   9.077  0.00  0.00     0.126 C 
ENDBRANCH  55  56
ENDBRANCH   4  55
BRANCH  11  59
HETATM   59  O   UNK N   1      24.485  14.345   0.321  0.00  0.00    -0.384 OA
HETATM   60  H   UNK N   1      25.086  14.855  -0.244  0.00  0.00     0.211 HD
ENDBRANCH  11  59
BRANCH   1  61
HETATM   61  O   UNK N   1      20.074  14.025   2.946  0.00  0.00    -0.315 OA
BRANCH  61  62
HETATM   62  C   UNK N   1      19.321  13.382   2.015  0.00  0.00     0.258 C 
HETATM   63  O   UNK N   1      18.516  14.031   1.369  0.00  0.00    -0.265 OA
BRANCH  62  64
HETATM   64  C   UNK N   1      19.383  11.901   1.810  0.00  0.00     0.106 C 
HETATM   65  C   UNK N   1      20.248  11.522   0.633  0.00  0.00     0.015 C 
ENDBRANCH  62  64
ENDBRANCH  61  62
ENDBRANCH   1  61
TORSDOF 18
ENDMDL
MODEL 3
REMARK VINA RESULT:      -7.8     13.597     17.443
REMARK  18 active torsions:
REMARK  status: ('A' for Active; 'I' for Inactive)
REMARK    1  A    between atoms: C_2  and  C_3 
REMARK    2  A    between atoms: C_3  and  O_5 
REMARK    3  A    between atoms: C_6  and  O_5 
REMARK    4  A    between atoms: C_9  and  O_58 
REMARK    5  A    between atoms: C_16  and  O_56 
REMARK    6  A    between atoms: C_19  and  O_36 
REMARK    7  A    between atoms: C_22  and  O_23 
REMARK    8  A    between atoms: O_23  and  C_24 
REMARK    9  A    between atoms: C_24  and  C_26 
REMARK   10  A    between atoms: O_36  and  C_37 
REMARK   11  A    between atoms: C_37  and  C_39 
REMARK   12  A    between atoms: C_39  and  C_40 
REMARK   13  A    between atoms: C_39  and  O_54 
REMARK   14  A    between atoms: C_40  and  C_41 
REMARK   15  A    between atoms: C_40  and  N_46 
REMARK       I    between atoms: N_46  and  C_47 
REMARK   16  A    between atoms: C_47  and  O_49 
REMARK   17  A    between atoms: O_49  and  C_50 
REMARK   18  A    between atoms: O_58  and  C_59 
ROOT
HETATM    1  C   UNK N   1      27.401  25.348  -4.144  0.00  0.00     0.150 C 
HETATM    2  C   UNK N   1      26.264  24.336  -4.253  0.00  0.00     0.069 C 
HETATM    3  C   UNK N   1      25.543  24.386  -5.603  0.00  0.00     0.161 A 
HETATM    4  C   UNK N   1      26.431  24.717  -6.798  0.00  0.00     0.125 A 
HETATM    5  C   UNK N   1      25.640  26.001  -6.787  0.00  0.00     0.210 A 
HETATM    6  O   UNK N   1      24.811  25.576  -5.734  0.00  0.00    -0.380 OA
HETATM    7  C   UNK N   1      27.974  25.026  -6.619  0.00  0.00     0.076 C 
HETATM    8  C   UNK N   1      28.605  24.968  -5.078  0.00  0.00     0.056 C 
HETATM    9  C   UNK N   1      29.820  25.849  -4.459  0.00  0.00     0.171 C 
HETATM   10  O   UNK N   1      29.587  26.449  -3.424  0.00  0.00    -0.294 OA
HETATM   11  C   UNK N   1      31.307  25.982  -4.891  0.00  0.00     0.218 C 
HETATM   12  C   UNK N   1      31.625  26.306  -6.331  0.00  0.00    -0.029 C 
HETATM   13  C   UNK N   1      32.745  25.734  -6.865  0.00  0.00    -0.048 C 
HETATM   14  C   UNK N   1      32.712  25.187  -8.322  0.00  0.00     0.164 C 
HETATM   15  C   UNK N   1      31.257  25.074  -8.939  0.00  0.00     0.078 C 
HETATM   16  C   UNK N   1      30.216  25.204  -7.810  0.00  0.00     0.098 C 
HETATM   17  C   UNK N   1      28.745  25.043  -8.030  0.00  0.00     0.176 C 
HETATM   18  C   UNK N   1      30.507  26.639  -7.242  0.00  0.00     0.013 C 
HETATM   19  C   UNK N   1      29.382  27.456  -6.590  0.00  0.00     0.023 C 
HETATM   20  C   UNK N   1      30.943  27.674  -8.296  0.00  0.00     0.023 C 
HETATM   21  O   UNK N   1      30.520  24.123  -6.954  0.00  0.00    -0.386 OA
HETATM   22  C   UNK N   1      33.847  25.252  -5.959  0.00  0.00     0.046 C 
HETATM   23  C   UNK N   1      28.982  23.514  -4.793  0.00  0.00     0.027 C 
HETATM   24  H   UNK N   1      30.718  23.338  -6.420  0.00  0.00     0.210 HD
ENDROOT
BRANCH  17  25
HETATM   25  O   UNK N   1      28.512  23.895  -8.768  0.00  0.00    -0.308 OA
BRANCH  25  26
HETATM   26  C   UNK N   1      28.424  23.938 -10.126  0.00  0.00     0.293 C 
HETATM   27  O   UNK N   1      28.872  23.018 -10.799  0.00  0.00    -0.259 OA
BRANCH  26  28
HETATM   28  C   UNK N   1      27.871  25.130 -10.804  0.00  0.00     0.039 A 
HETATM   29  C   UNK N   1      28.733  26.145 -11.249  0.00  0.00     0.017 A 
HETATM   30  C   UNK N   1      28.219  27.303 -11.838  0.00  0.00     0.001 A 
HETATM   31  C   UNK N   1      26.840  27.454 -11.993  0.00  0.00     0.000 A 
HETATM   32  C   UNK N   1      25.973  26.447 -11.558  0.00  0.00     0.001 A 
HETATM   33  C   UNK N   1      26.485  25.290 -10.958  0.00  0.00     0.017 A 
ENDBRANCH  26  28
ENDBRANCH  25  26
ENDBRANCH  17  25
BRANCH  14  34
HETATM   34  O   UNK N   1      33.123  23.881  -8.202  0.00  0.00    -0.309 OA
BRANCH  34  35
HETATM   35  C   UNK N   1      33.333  23.008  -9.206  0.00  0.00     0.291 C 
HETATM   36  O   UNK N   1      34.116  23.314 -10.089  0.00  0.00    -0.262 OA
BRANCH  35  37
HETATM   37  C   UNK N   1      32.584  21.721  -9.342  0.00  0.00     0.246 C 
BRANCH  37  38
HETATM   38  C   UNK N   1      32.496  20.714  -8.185  0.00  0.00     0.182 C 
BRANCH  38  39
HETATM   39  C   UNK N   1      31.380  19.692  -8.247  0.00  0.00     0.078 A 
HETATM   40  C   UNK N   1      30.291  19.674  -7.402  0.00  0.00     0.037 A 
HETATM   41  C   UNK N   1      29.465  18.679  -7.886  0.00  0.00     0.027 A 
HETATM   42  C   UNK N   1      30.100  18.152  -8.997  0.00  0.00     0.142 A 
HETATM   43  O   UNK N   1      31.235  18.784  -9.180  0.00  0.00    -0.325 OA
ENDBRANCH  38  39
BRANCH  38  44
HETATM   44  N   UNK N   1      32.297  21.510  -6.986  0.00  0.00    -0.323 N 
HETATM   45  C   UNK N   1      33.050  21.313  -5.868  0.00  0.00     0.362 C 
HETATM   46  O   UNK N   1      33.933  20.456  -5.866  0.00  0.00    -0.238 OA
HETATM   47  H   UNK N   1      31.602  22.207  -6.982  0.00  0.00     0.165 HD
BRANCH  45  48
HETATM   48  O   UNK N   1      32.849  22.076  -4.768  0.00  0.00    -0.294 OA
BRANCH  48  49
HETATM   49  C   UNK N   1      32.210  21.637  -3.616  0.00  0.00     0.061 C 
HETATM   50  C   UNK N   1      31.128  20.600  -3.896  0.00  0.00     0.046 C 
HETATM   51  C   UNK N   1      31.553  22.819  -2.944  0.00  0.00     0.046 C 
HETATM   52  C   UNK N   1      33.237  21.050  -2.662  0.00  0.00     0.046 C 
ENDBRANCH  48  49
ENDBRANCH  45  48
ENDBRANCH  38  44
ENDBRANCH  37  38
BRANCH  37  53
HETATM   53  O   UNK N   1      31.343  21.904  -9.957  0.00  0.00    -0.383 OA
HETATM   54  H   UNK N   1      31.211  22.300 -10.832  0.00  0.00     0.210 HD
ENDBRANCH  37  53
ENDBRANCH  35  37
ENDBRANCH  34  35
ENDBRANCH  14  34
BRANCH   4  55
HETATM   55  O   UNK N   1      26.035  24.073  -7.960  0.00  0.00    -0.305 OA
BRANCH  55  56
HETATM   56  C   UNK N   1      25.442  22.853  -8.034  0.00  0.00     0.255 C 
HETATM   57  O   UNK N   1      24.255  22.745  -8.298  0.00  0.00    -0.266 OA
HETATM   58  C   UNK N   1      26.262  21.629  -7.808  0.00  0.00     0.126 C 
ENDBRANCH  55  56
ENDBRANCH   4  55
BRANCH  11  59
HETATM   59  O   UNK N   1      32.019  26.840  -4.044  0.00  0.00    -0.384 OA
HETATM   60  H   UNK N   1      31.546  27.377  -3.389  0.00  0.00     0.211 HD
ENDBRANCH  11  59
BRANCH   1  61
HETATM   61  O   UNK N   1      26.899  26.601  -4.477  0.00  0.00    -0.315 OA
BRANCH  61  62
HETATM   62  C   UNK N   1      26.405  27.589  -3.686  0.00  0.00     0.258 C 
HETATM   63  O   UNK N   1      26.127  27.322  -2.528  0.00  0.00    -0.265 OA
BRANCH  62  64
HETATM   64  C   UNK N   1      26.112  28.963  -4.198  0.00  0.00     0.106 C 
HETATM   65  C   UNK N   1      26.738  30.038  -3.343  0.00  0.00     0.015 C 
ENDBRANCH  62  64
ENDBRANCH  61  62
ENDBRANCH   1  61
TORSDOF 18
ENDMDL
MODEL 4
REMARK VINA RESULT:      -7.6      8.775     11.648
REMARK  18 active torsions:
REMARK  status: ('A' for Active; 'I' for Inactive)
REMARK    1  A    between atoms: C_2  and  C_3 
REMARK    2  A    between atoms: C_3  and  O_5 
REMARK    3  A    between atoms: C_6  and  O_5 
REMARK    4  A    between atoms: C_9  and  O_58 
REMARK    5  A    between atoms: C_16  and  O_56 
REMARK    6  A    between atoms: C_19  and  O_36 
REMARK    7  A    between atoms: C_22  and  O_23 
REMARK    8  A    between atoms: O_23  and  C_24 
REMARK    9  A    between atoms: C_24  and  C_26 
REMARK   10  A    between atoms: O_36  and  C_37 
REMARK   11  A    between atoms: C_37  and  C_39 
REMARK   12  A    between atoms: C_39  and  C_40 
REMARK   13  A    between atoms: C_39  and  O_54 
REMARK   14  A    between atoms: C_40  and  C_41 
REMARK   15  A    between atoms: C_40  and  N_46 
REMARK       I    between atoms: N_46  and  C_47 
REMARK   16  A    between atoms: C_47  and  O_49 
REMARK   17  A    between atoms: O_49  and  C_50 
REMARK   18  A    between atoms: O_58  and  C_59 
ROOT
HETATM    1  C   UNK N   1      31.765  12.441   2.729  0.00  0.00     0.150 C 
HETATM    2  C   UNK N   1      30.969  11.164   2.985  0.00  0.00     0.069 C 
HETATM    3  C   UNK N   1      31.832  10.016   3.517  0.00  0.00     0.161 A 
HETATM    4  C   UNK N   1      32.977  10.437   4.432  0.00  0.00     0.125 A 
HETATM    5  C   UNK N   1      33.821   9.993   3.265  0.00  0.00     0.210 A 
HETATM    6  O   UNK N   1      32.709   9.551   2.525  0.00  0.00    -0.380 OA
HETATM    7  C   UNK N   1      33.256  11.963   4.756  0.00  0.00     0.076 C 
HETATM    8  C   UNK N   1      32.248  13.100   4.071  0.00  0.00     0.056 C 
HETATM    9  C   UNK N   1      32.615  14.612   3.607  0.00  0.00     0.171 C 
HETATM   10  O   UNK N   1      32.332  14.914   2.460  0.00  0.00    -0.294 OA
HETATM   11  C   UNK N   1      33.168  15.820   4.411  0.00  0.00     0.218 C 
HETATM   12  C   UNK N   1      34.408  15.633   5.252  0.00  0.00    -0.029 C 
HETATM   13  C   UNK N   1      34.473  16.326   6.428  0.00  0.00    -0.048 C 
HETATM   14  C   UNK N   1      35.048  15.637   7.700  0.00  0.00     0.164 C 
HETATM   15  C   UNK N   1      35.217  14.067   7.565  0.00  0.00     0.078 C 
HETATM   16  C   UNK N   1      34.437  13.578   6.329  0.00  0.00     0.098 C 
HETATM   17  C   UNK N   1      34.302  12.132   5.964  0.00  0.00     0.176 C 
HETATM   18  C   UNK N   1      35.139  14.350   5.155  0.00  0.00     0.013 C 
HETATM   19  C   UNK N   1      35.173  13.747   3.744  0.00  0.00     0.023 C 
HETATM   20  C   UNK N   1      36.653  14.562   5.337  0.00  0.00     0.023 C 
HETATM   21  O   UNK N   1      33.105  13.951   6.609  0.00  0.00    -0.386 OA
HETATM   22  C   UNK N   1      33.635  17.563   6.618  0.00  0.00     0.046 C 
HETATM   23  C   UNK N   1      31.034  13.248   4.988  0.00  0.00     0.027 C 
HETATM   24  H   UNK N   1      32.193  14.168   6.860  0.00  0.00     0.210 HD
ENDROOT
BRANCH  17  25
HETATM   25  O   UNK N   1      33.931  11.407   7.085  0.00  0.00    -0.308 OA
BRANCH  25  26
HETATM   26  C   UNK N   1      34.856  10.743   7.830  0.00  0.00     0.293 C 
HETATM   27  O   UNK N   1      35.977  10.542   7.378  0.00  0.00    -0.259 OA
BRANCH  26  28
HETATM   28  C   UNK N   1      34.494  10.183   9.150  0.00  0.00     0.039 A 
HETATM   29  C   UNK N   1      34.380  11.033  10.262  0.00  0.00     0.017 A 
HETATM   30  C   UNK N   1      34.097  10.510  11.526  0.00  0.00     0.001 A 
HETATM   31  C   UNK N   1      33.917   9.135  11.689  0.00  0.00     0.000 A 
HETATM   32  C   UNK N   1      34.023   8.282  10.586  0.00  0.00     0.001 A 
HETATM   33  C   UNK N   1      34.318   8.802   9.321  0.00  0.00     0.017 A 
ENDBRANCH  26  28
ENDBRANCH  25  26
ENDBRANCH  17  25
BRANCH  14  34
HETATM   34  O   UNK N   1      34.057  15.783   8.640  0.00  0.00    -0.309 OA
BRANCH  34  35
HETATM   35  C   UNK N   1      34.115  15.417   9.935  0.00  0.00     0.291 C 
HETATM   36  O   UNK N   1      33.283  14.632  10.356  0.00  0.00    -0.262 OA
BRANCH  35  37
HETATM   37  C   UNK N   1      35.092  15.998  10.906  0.00  0.00     0.246 C 
BRANCH  37  38
HETATM   38  C   UNK N   1      36.108  15.118  11.651  0.00  0.00     0.182 C 
BRANCH  38  39
HETATM   39  C   UNK N   1      37.095  14.343  10.803  0.00  0.00     0.078 A 
HETATM   40  C   UNK N   1      37.282  12.979  10.874  0.00  0.00     0.037 A 
HETATM   41  C   UNK N   1      38.158  12.672   9.852  0.00  0.00     0.027 A 
HETATM   42  C   UNK N   1      38.451  13.868   9.220  0.00  0.00     0.142 A 
HETATM   43  O   UNK N   1      37.797  14.837   9.814  0.00  0.00    -0.325 OA
ENDBRANCH  38  39
BRANCH  38  44
HETATM   44  N   UNK N   1      35.319  14.155  12.398  0.00  0.00    -0.323 N 
HETATM   45  C   UNK N   1      35.549  13.920  13.720  0.00  0.00     0.362 C 
HETATM   46  O   UNK N   1      36.431  14.543  14.310  0.00  0.00    -0.238 OA
HETATM   47  H   UNK N   1      34.602  13.660  11.939  0.00  0.00     0.165 HD
BRANCH  45  48
HETATM   48  O   UNK N   1      34.792  13.023  14.395  0.00  0.00    -0.294 OA
BRANCH  48  49
HETATM   49  C   UNK N   1      35.292  11.889  15.022  0.00  0.00     0.061 C 
HETATM   50  C   UNK N   1      36.492  11.290  14.295  0.00  0.00     0.046 C 
HETATM   51  C   UNK N   1      34.208  10.838  15.065  0.00  0.00     0.046 C 
HETATM   52  C   UNK N   1      35.687  12.234  16.448  0.00  0.00     0.046 C 
ENDBRANCH  48  49
ENDBRANCH  45  48
ENDBRANCH  38  44
ENDBRANCH  37  38
BRANCH  37  53
HETATM   53  O   UNK N   1      35.686  17.162  10.414  0.00  0.00    -0.383 OA
HETATM   54  H   UNK N   1      36.417  17.636  10.842  0.00  0.00     0.210 HD
ENDBRANCH  37  53
ENDBRANCH  35  37
ENDBRANCH  34  35
ENDBRANCH  14  34
BRANCH   4  55
HETATM   55  O   UNK N   1      33.241   9.510   5.428  0.00  0.00    -0.305 OA
BRANCH  55  56
HETATM   56  C   UNK N   1      32.381   8.563   5.886  0.00  0.00     0.255 C 
HETATM   57  O   UNK N   1      32.439   7.413   5.484  0.00  0.00    -0.266 OA
HETATM   58  C   UNK N   1      31.364   8.937   6.911  0.00  0.00     0.126 C 
ENDBRANCH  55  56
ENDBRANCH   4  55
BRANCH  11  59
HETATM   59  O   UNK N   1      33.307  16.959   3.608  0.00  0.00    -0.384 OA
HETATM   60  H   UNK N   1      33.221  17.842   3.999  0.00  0.00     0.211 HD
ENDBRANCH  11  59
BRANCH   1  61
HETATM   61  O   UNK N   1      32.850  12.122   1.921  0.00  0.00    -0.315 OA
BRANCH  61  62
HETATM   62  C   UNK N   1      33.079  12.392   0.610  0.00  0.00     0.258 C 
HETATM   63  O   UNK N   1      34.028  13.102   0.319  0.00  0.00    -0.265 OA
BRANCH  62  64
HETATM   64  C   UNK N   1      32.170  11.923  -0.482  0.00  0.00     0.106 C 
HETATM   65  C   UNK N   1      32.684  12.293  -1.853  0.00  0.00     0.015 C 
ENDBRANCH  62  64
ENDBRANCH  61  62
ENDBRANCH   1  61
TORSDOF 18
ENDMDL
MODEL 5
REMARK VINA RESULT:      -7.6      1.638      3.010
REMARK  18 active torsions:
REMARK  status: ('A' for Active; 'I' for Inactive)
REMARK    1  A    between atoms: C_2  and  C_3 
REMARK    2  A    between atoms: C_3  and  O_5 
REMARK    3  A    between atoms: C_6  and  O_5 
REMARK    4  A    between atoms: C_9  and  O_58 
REMARK    5  A    between atoms: C_16  and  O_56 
REMARK    6  A    between atoms: C_19  and  O_36 
REMARK    7  A    between atoms: C_22  and  O_23 
REMARK    8  A    between atoms: O_23  and  C_24 
REMARK    9  A    between atoms: C_24  and  C_26 
REMARK   10  A    between atoms: O_36  and  C_37 
REMARK   11  A    between atoms: C_37  and  C_39 
REMARK   12  A    between atoms: C_39  and  C_40 
REMARK   13  A    between atoms: C_39  and  O_54 
REMARK   14  A    between atoms: C_40  and  C_41 
REMARK   15  A    between atoms: C_40  and  N_46 
REMARK       I    between atoms: N_46  and  C_47 
REMARK   16  A    between atoms: C_47  and  O_49 
REMARK   17  A    between atoms: O_49  and  C_50 
REMARK   18  A    between atoms: O_58  and  C_59 
ROOT
HETATM    1  C   UNK N   1      20.834  14.637   2.302  0.00  0.00     0.150 C 
HETATM    2  C   UNK N   1      20.249  15.912   2.903  0.00  0.00     0.069 C 
HETATM    3  C   UNK N   1      20.016  15.812   4.413  0.00  0.00     0.161 A 
HETATM    4  C   UNK N   1      21.039  14.973   5.171  0.00  0.00     0.125 A 
HETATM    5  C   UNK N   1      19.866  14.039   5.339  0.00  0.00     0.210 A 
HETATM    6  O   UNK N   1      18.973  14.917   4.699  0.00  0.00    -0.380 OA
HETATM    7  C   UNK N   1      22.220  14.233   4.418  0.00  0.00     0.076 C 
HETATM    8  C   UNK N   1      22.319  14.409   2.763  0.00  0.00     0.056 C 
HETATM    9  C   UNK N   1      22.864  13.337   1.674  0.00  0.00     0.171 C 
HETATM   10  O   UNK N   1      22.117  13.074   0.747  0.00  0.00    -0.294 OA
HETATM   11  C   UNK N   1      24.249  12.650   1.523  0.00  0.00     0.218 C 
HETATM   12  C   UNK N   1      24.852  11.948   2.715  0.00  0.00    -0.029 C 
HETATM   13  C   UNK N   1      26.210  12.009   2.853  0.00  0.00    -0.048 C 
HETATM   14  C   UNK N   1      26.835  12.219   4.263  0.00  0.00     0.164 C 
HETATM   15  C   UNK N   1      25.793  12.657   5.374  0.00  0.00     0.078 C 
HETATM   16  C   UNK N   1      24.485  13.105   4.693  0.00  0.00     0.098 C 
HETATM   17  C   UNK N   1      23.324  13.676   5.446  0.00  0.00     0.176 C 
HETATM   18  C   UNK N   1      24.031  11.805   3.939  0.00  0.00     0.013 C 
HETATM   19  C   UNK N   1      22.541  11.545   3.673  0.00  0.00     0.023 C 
HETATM   20  C   UNK N   1      24.353  10.488   4.669  0.00  0.00     0.023 C 
HETATM   21  O   UNK N   1      24.888  14.187   3.881  0.00  0.00    -0.386 OA
HETATM   22  C   UNK N   1      27.075  12.293   1.653  0.00  0.00     0.046 C 
HETATM   23  C   UNK N   1      23.101  15.693   2.486  0.00  0.00     0.027 C 
HETATM   24  H   UNK N   1      25.188  14.962   3.380  0.00  0.00     0.210 HD
ENDROOT
BRANCH  17  25
HETATM   25  O   UNK N   1      23.774  14.657   6.313  0.00  0.00    -0.308 OA
BRANCH  25  26
HETATM   26  C   UNK N   1      24.303  14.334   7.525  0.00  0.00     0.293 C 
HETATM   27  O   UNK N   1      25.432  14.706   7.820  0.00  0.00    -0.259 OA
BRANCH  26  28
HETATM   28  C   UNK N   1      23.559  13.461   8.459  0.00  0.00     0.039 A 
HETATM   29  C   UNK N   1      22.441  13.962   9.143  0.00  0.00     0.017 A 
HETATM   30  C   UNK N   1      21.764  13.168  10.071  0.00  0.00     0.001 A 
HETATM   31  C   UNK N   1      22.195  11.863  10.319  0.00  0.00     0.000 A 
HETATM   32  C   UNK N   1      23.304  11.352   9.637  0.00  0.00     0.001 A 
HETATM   33  C   UNK N   1      23.990  12.150   8.715  0.00  0.00     0.017 A 
ENDBRANCH  26  28
ENDBRANCH  25  26
ENDBRANCH  17  25
BRANCH  14  34
HETATM   34  O   UNK N   1      27.642  13.321   4.114  0.00  0.00    -0.309 OA
BRANCH  34  35
HETATM   35  C   UNK N   1      28.986  13.352   4.203  0.00  0.00     0.291 C 
HETATM   36  O   UNK N   1      29.534  12.611   5.002  0.00  0.00    -0.262 OA
BRANCH  35  37
HETATM   37  C   UNK N   1      29.834  14.318   3.440  0.00  0.00     0.246 C 
BRANCH  37  38
HETATM   38  C   UNK N   1      30.060  15.756   3.934  0.00  0.00     0.182 C 
BRANCH  38  39
HETATM   39  C   UNK N   1      31.495  16.191   4.148  0.00  0.00     0.078 A 
HETATM   40  C   UNK N   1      31.949  17.484   3.994  0.00  0.00     0.037 A 
HETATM   41  C   UNK N   1      33.264  17.465   4.414  0.00  0.00     0.027 A 
HETATM   42  C   UNK N   1      33.531  16.163   4.799  0.00  0.00     0.142 A 
HETATM   43  O   UNK N   1      32.452  15.437   4.629  0.00  0.00    -0.325 OA
ENDBRANCH  38  39
BRANCH  38  44
HETATM   44  N   UNK N   1      29.378  15.843   5.213  0.00  0.00    -0.323 N 
HETATM   45  C   UNK N   1      28.625  16.928   5.546  0.00  0.00     0.362 C 
HETATM   46  O   UNK N   1      28.498  17.855   4.747  0.00  0.00    -0.238 OA
HETATM   47  H   UNK N   1      29.463  15.101   5.855  0.00  0.00     0.165 HD
BRANCH  45  48
HETATM   48  O   UNK N   1      27.993  16.978   6.742  0.00  0.00    -0.294 OA
BRANCH  48  49
HETATM   49  C   UNK N   1      28.447  17.698   7.839  0.00  0.00     0.061 C 
HETATM   50  C   UNK N   1      27.897  17.175   9.162  0.00  0.00     0.046 C 
HETATM   51  C   UNK N   1      28.007  19.136   7.694  0.00  0.00     0.046 C 
HETATM   52  C   UNK N   1      29.966  17.660   7.874  0.00  0.00     0.046 C 
ENDBRANCH  48  49
ENDBRANCH  45  48
ENDBRANCH  38  44
ENDBRANCH  37  38
BRANCH  37  53
HETATM   53  O   UNK N   1      31.025  13.734   3.005  0.00  0.00    -0.383 OA
HETATM   54  H   UNK N   1      31.854  13.721   3.508  0.00  0.00     0.210 HD
ENDBRANCH  37  53
ENDBRANCH  35  37
ENDBRANCH  34  35
ENDBRANCH  14  34
BRANCH   4  55
HETATM   55  O   UNK N   1      21.290  15.450   6.448  0.00  0.00    -0.305 OA
BRANCH  55  56
HETATM   56  C   UNK N   1      21.316  16.757   6.820  0.00  0.00     0.255 C 
HETATM   57  O   UNK N   1      20.715  17.141   7.810  0.00  0.00    -0.266 OA
HETATM   58  C   UNK N   1      22.110  17.729   6.015  0.00  0.00     0.126 C 
ENDBRANCH  55  56
ENDBRANCH   4  55
BRANCH  11  59
HETATM   59  O   UNK N   1      24.292  11.808   0.405  0.00  0.00    -0.384 OA
HETATM   60  H   UNK N   1      24.326  12.187  -0.487  0.00  0.00     0.211 HD
ENDBRANCH  11  59
BRANCH   1  61
HETATM   61  O   UNK N   1      20.033  13.568   2.687  0.00  0.00    -0.315 OA
BRANCH  61  62
HETATM   62  C   UNK N   1      18.972  12.994   2.060  0.00  0.00     0.258 C 
HETATM   63  O   UNK N   1      18.133  12.425   2.738  0.00  0.00    -0.265 OA
BRANCH  62  64
HETATM   64  C   UNK N   1      18.836  12.962   0.570  0.00  0.00     0.106 C 
HETATM   65  C   UNK N   1      17.978  14.091   0.050  0.00  0.00     0.015 C 
ENDBRANCH  62  64
ENDBRANCH  61  62
ENDBRANCH   1  61
TORSDOF 18
ENDMDL
MODEL 6
REMARK VINA RESULT:      -7.6      3.915      8.544
REMARK  18 active torsions:
REMARK  status: ('A' for Active; 'I' for Inactive)
REMARK    1  A    between atoms: C_2  and  C_3 
REMARK    2  A    between atoms: C_3  and  O_5 
REMARK    3  A    between atoms: C_6  and  O_5 
REMARK    4  A    between atoms: C_9  and  O_58 
REMARK    5  A    between atoms: C_16  and  O_56 
REMARK    6  A    between atoms: C_19  and  O_36 
REMARK    7  A    between atoms: C_22  and  O_23 
REMARK    8  A    between atoms: O_23  and  C_24 
REMARK    9  A    between atoms: C_24  and  C_26 
REMARK   10  A    between atoms: O_36  and  C_37 
REMARK   11  A    between atoms: C_37  and  C_39 
REMARK   12  A    between atoms: C_39  and  C_40 
REMARK   13  A    between atoms: C_39  and  O_54 
REMARK   14  A    between atoms: C_40  and  C_41 
REMARK   15  A    between atoms: C_40  and  N_46 
REMARK       I    between atoms: N_46  and  C_47 
REMARK   16  A    between atoms: C_47  and  O_49 
REMARK   17  A    between atoms: O_49  and  C_50 
REMARK   18  A    between atoms: O_58  and  C_59 
ROOT
HETATM    1  C   UNK N   1      19.869  15.411   6.131  0.00  0.00     0.150 C 
HETATM    2  C   UNK N   1      18.990  15.787   4.941  0.00  0.00     0.069 C 
HETATM    3  C   UNK N   1      19.777  16.421   3.791  0.00  0.00     0.161 A 
HETATM    4  C   UNK N   1      21.188  15.879   3.596  0.00  0.00     0.125 A 
HETATM    5  C   UNK N   1      21.578  17.252   4.082  0.00  0.00     0.210 A 
HETATM    6  O   UNK N   1      20.245  17.695   4.149  0.00  0.00    -0.380 OA
HETATM    7  C   UNK N   1      21.787  14.771   4.558  0.00  0.00     0.076 C 
HETATM    8  C   UNK N   1      20.817  14.205   5.791  0.00  0.00     0.056 C 
HETATM    9  C   UNK N   1      21.268  13.688   7.261  0.00  0.00     0.171 C 
HETATM   10  O   UNK N   1      20.718  14.210   8.215  0.00  0.00    -0.294 OA
HETATM   11  C   UNK N   1      22.214  12.533   7.691  0.00  0.00     0.218 C 
HETATM   12  C   UNK N   1      23.598  12.460   7.093  0.00  0.00    -0.029 C 
HETATM   13  C   UNK N   1      24.109  11.215   6.856  0.00  0.00    -0.048 C 
HETATM   14  C   UNK N   1      24.910  10.945   5.548  0.00  0.00     0.164 C 
HETATM   15  C   UNK N   1      24.783  12.092   4.462  0.00  0.00     0.078 C 
HETATM   16  C   UNK N   1      23.612  13.020   4.840  0.00  0.00     0.098 C 
HETATM   17  C   UNK N   1      23.151  14.151   3.976  0.00  0.00     0.176 C 
HETATM   18  C   UNK N   1      24.057  13.579   6.239  0.00  0.00     0.013 C 
HETATM   19  C   UNK N   1      23.587  14.963   6.705  0.00  0.00     0.023 C 
HETATM   20  C   UNK N   1      25.574  13.803   6.391  0.00  0.00     0.023 C 
HETATM   21  O   UNK N   1      22.494  12.158   4.843  0.00  0.00    -0.386 OA
HETATM   22  C   UNK N   1      23.569  10.026   7.605  0.00  0.00     0.046 C 
HETATM   23  C   UNK N   1      19.960  13.078   5.217  0.00  0.00     0.027 C 
HETATM   24  H   UNK N   1      21.739  11.551   4.778  0.00  0.00     0.210 HD
ENDROOT
BRANCH  17  25
HETATM   25  O   UNK N   1      23.009  13.706   2.672  0.00  0.00    -0.308 OA
BRANCH  25  26
HETATM   26  C   UNK N   1      23.919  14.036   1.714  0.00  0.00     0.293 C 
HETATM   27  O   UNK N   1      23.717  13.731   0.546  0.00  0.00    -0.259 OA
BRANCH  26  28
HETATM   28  C   UNK N   1      25.195  14.685   2.085  0.00  0.00     0.039 A 
HETATM   29  C   UNK N   1      26.408  14.004   1.891  0.00  0.00     0.017 A 
HETATM   30  C   UNK N   1      27.616  14.581   2.290  0.00  0.00     0.001 A 
HETATM   31  C   UNK N   1      27.623  15.846   2.882  0.00  0.00     0.000 A 
HETATM   32  C   UNK N   1      26.422  16.534   3.074  0.00  0.00     0.001 A 
HETATM   33  C   UNK N   1      25.209  15.954   2.684  0.00  0.00     0.017 A 
ENDBRANCH  26  28
ENDBRANCH  25  26
ENDBRANCH  17  25
BRANCH  14  34
HETATM   34  O   UNK N   1      24.269   9.874   4.975  0.00  0.00    -0.309 OA
BRANCH  34  35
HETATM   35  C   UNK N   1      24.380   9.459   3.698  0.00  0.00     0.291 C 
HETATM   36  O   UNK N   1      25.495   9.279   3.239  0.00  0.00    -0.262 OA
BRANCH  35  37
HETATM   37  C   UNK N   1      23.207   9.298   2.785  0.00  0.00     0.246 C 
BRANCH  37  38
HETATM   38  C   UNK N   1      22.083   8.294   3.087  0.00  0.00     0.182 C 
BRANCH  38  39
HETATM   39  C   UNK N   1      20.662   8.809   3.002  0.00  0.00     0.078 A 
HETATM   40  C   UNK N   1      19.648   8.190   2.301  0.00  0.00     0.037 A 
HETATM   41  C   UNK N   1      18.504   8.904   2.597  0.00  0.00     0.027 A 
HETATM   42  C   UNK N   1      18.890   9.915   3.461  0.00  0.00     0.142 A 
HETATM   43  O   UNK N   1      20.180   9.822   3.679  0.00  0.00    -0.325 OA
ENDBRANCH  38  39
BRANCH  38  44
HETATM   44  N   UNK N   1      22.310   7.851   4.451  0.00  0.00    -0.323 N 
HETATM   45  C   UNK N   1      22.330   6.528   4.775  0.00  0.00     0.362 C 
HETATM   46  O   UNK N   1      22.170   5.679   3.899  0.00  0.00    -0.238 OA
HETATM   47  H   UNK N   1      22.451   8.521   5.158  0.00  0.00     0.165 HD
BRANCH  45  48
HETATM   48  O   UNK N   1      22.553   6.142   6.054  0.00  0.00    -0.294 OA
BRANCH  48  49
HETATM   49  C   UNK N   1      23.804   5.833   6.571  0.00  0.00     0.061 C 
HETATM   50  C   UNK N   1      24.946   6.456   5.775  0.00  0.00     0.046 C 
HETATM   51  C   UNK N   1      23.986   4.334   6.541  0.00  0.00     0.046 C 
HETATM   52  C   UNK N   1      23.882   6.299   8.015  0.00  0.00     0.046 C 
ENDBRANCH  48  49
ENDBRANCH  45  48
ENDBRANCH  38  44
ENDBRANCH  37  38
BRANCH  37  53
HETATM   53  O   UNK N   1      22.695  10.530   2.372  0.00  0.00    -0.383 OA
HETATM   54  H   UNK N   1      22.853  11.375   2.822  0.00  0.00     0.210 HD
ENDBRANCH  37  53
ENDBRANCH  35  37
ENDBRANCH  34  35
ENDBRANCH  14  34
BRANCH   4  55
HETATM   55  O   UNK N   1      21.579  15.854   2.266  0.00  0.00    -0.305 OA
BRANCH  55  56
HETATM   56  C   UNK N   1      20.755  15.726   1.194  0.00  0.00     0.255 C 
HETATM   57  O   UNK N   1      20.548  16.667   0.444  0.00  0.00    -0.266 OA
HETATM   58  C   UNK N   1      20.110  14.410   0.923  0.00  0.00     0.126 C 
ENDBRANCH  55  56
ENDBRANCH   4  55
BRANCH  11  59
HETATM   59  O   UNK N   1      22.293  12.418   9.084  0.00  0.00    -0.384 OA
HETATM   60  H   UNK N   1      21.482  12.354   9.613  0.00  0.00     0.211 HD
ENDBRANCH  11  59
BRANCH   1  61
HETATM   61  O   UNK N   1      20.610  16.530   6.494  0.00  0.00    -0.315 OA
BRANCH  61  62
HETATM   62  C   UNK N   1      20.410  17.430   7.492  0.00  0.00     0.258 C 
HETATM   63  O   UNK N   1      20.761  18.584   7.312  0.00  0.00    -0.265 OA
BRANCH  62  64
HETATM   64  C   UNK N   1      19.854  17.046   8.827  0.00  0.00     0.106 C 
HETATM   65  C   UNK N   1      18.399  17.422   8.969  0.00  0.00     0.015 C 
ENDBRANCH  62  64
ENDBRANCH  61  62
ENDBRANCH   1  61
TORSDOF 18
ENDMDL
MODEL 7
REMARK VINA RESULT:      -7.6      2.744      8.627
REMARK  18 active torsions:
REMARK  status: ('A' for Active; 'I' for Inactive)
REMARK    1  A    between atoms: C_2  and  C_3 
REMARK    2  A    between atoms: C_3  and  O_5 
REMARK    3  A    between atoms: C_6  and  O_5 
REMARK    4  A    between atoms: C_9  and  O_58 
REMARK    5  A    between atoms: C_16  and  O_56 
REMARK    6  A    between atoms: C_19  and  O_36 
REMARK    7  A    between atoms: C_22  and  O_23 
REMARK    8  A    between atoms: O_23  and  C_24 
REMARK    9  A    between atoms: C_24  and  C_26 
REMARK   10  A    between atoms: O_36  and  C_37 
REMARK   11  A    between atoms: C_37  and  C_39 
REMARK   12  A    between atoms: C_39  and  C_40 
REMARK   13  A    between atoms: C_39  and  O_54 
REMARK   14  A    between atoms: C_40  and  C_41 
REMARK   15  A    between atoms: C_40  and  N_46 
REMARK       I    between atoms: N_46  and  C_47 
REMARK   16  A    between atoms: C_47  and  O_49 
REMARK   17  A    between atoms: O_49  and  C_50 
REMARK   18  A    between atoms: O_58  and  C_59 
ROOT
HETATM    1  C   UNK N   1      28.301  14.885   3.031  0.00  0.00     0.150 C 
HETATM    2  C   UNK N   1      28.555  14.010   1.806  0.00  0.00     0.069 C 
HETATM    3  C   UNK N   1      28.201  12.538   2.036  0.00  0.00     0.161 A 
HETATM    4  C   UNK N   1      27.007  12.296   2.953  0.00  0.00     0.125 A 
HETATM    5  C   UNK N   1      28.070  11.765   3.882  0.00  0.00     0.210 A 
HETATM    6  O   UNK N   1      29.098  11.945   2.938  0.00  0.00    -0.380 OA
HETATM    7  C   UNK N   1      26.236  13.498   3.638  0.00  0.00     0.076 C 
HETATM    8  C   UNK N   1      26.765  15.045   3.318  0.00  0.00     0.056 C 
HETATM    9  C   UNK N   1      26.725  16.340   4.297  0.00  0.00     0.171 C 
HETATM   10  O   UNK N   1      27.778  16.928   4.466  0.00  0.00    -0.294 OA
HETATM   11  C   UNK N   1      25.534  17.061   4.986  0.00  0.00     0.218 C 
HETATM   12  C   UNK N   1      24.557  16.247   5.799  0.00  0.00    -0.029 C 
HETATM   13  C   UNK N   1      23.247  16.636   5.769  0.00  0.00    -0.048 C 
HETATM   14  C   UNK N   1      22.124  15.559   5.693  0.00  0.00     0.164 C 
HETATM   15  C   UNK N   1      22.645  14.104   5.341  0.00  0.00     0.078 C 
HETATM   16  C   UNK N   1      24.091  14.197   4.817  0.00  0.00     0.098 C 
HETATM   17  C   UNK N   1      24.851  13.016   4.299  0.00  0.00     0.176 C 
HETATM   18  C   UNK N   1      24.857  14.818   6.038  0.00  0.00     0.013 C 
HETATM   19  C   UNK N   1      26.346  14.513   6.254  0.00  0.00     0.023 C 
HETATM   20  C   UNK N   1      24.343  14.370   7.419  0.00  0.00     0.023 C 
HETATM   21  O   UNK N   1      23.977  15.016   3.673  0.00  0.00    -0.386 OA
HETATM   22  C   UNK N   1      22.890  18.049   5.391  0.00  0.00     0.046 C 
HETATM   23  C   UNK N   1      26.088  15.501   2.025  0.00  0.00     0.027 C 
HETATM   24  H   UNK N   1      23.854  15.532   2.860  0.00  0.00     0.210 HD
ENDROOT
BRANCH  17  25
HETATM   25  O   UNK N   1      24.060  12.314   3.404  0.00  0.00    -0.308 OA
BRANCH  25  26
HETATM   26  C   UNK N   1      23.185  11.365   3.836  0.00  0.00     0.293 C 
HETATM   27  O   UNK N   1      22.035  11.355   3.414  0.00  0.00    -0.259 OA
BRANCH  26  28
HETATM   28  C   UNK N   1      23.584  10.396   4.879  0.00  0.00     0.039 A 
HETATM   29  C   UNK N   1      23.191  10.602   6.211  0.00  0.00     0.017 A 
HETATM   30  C   UNK N   1      23.610   9.726   7.216  0.00  0.00     0.001 A 
HETATM   31  C   UNK N   1      24.419   8.634   6.897  0.00  0.00     0.000 A 
HETATM   32  C   UNK N   1      24.810   8.417   5.573  0.00  0.00     0.001 A 
HETATM   33  C   UNK N   1      24.401   9.299   4.566  0.00  0.00     0.017 A 
ENDBRANCH  26  28
ENDBRANCH  25  26
ENDBRANCH  17  25
BRANCH  14  34
HETATM   34  O   UNK N   1      21.384  15.921   4.593  0.00  0.00    -0.309 OA
BRANCH  34  35
HETATM   35  C   UNK N   1      20.109  15.575   4.331  0.00  0.00     0.291 C 
HETATM   36  O   UNK N   1      19.249  15.864   5.146  0.00  0.00    -0.262 OA
BRANCH  35  37
HETATM   37  C   UNK N   1      19.707  14.771   3.137  0.00  0.00     0.246 C 
BRANCH  37  38
HETATM   38  C   UNK N   1      20.229  15.104   1.730  0.00  0.00     0.182 C 
BRANCH  38  39
HETATM   39  C   UNK N   1      21.347  14.236   1.191  0.00  0.00     0.078 A 
HETATM   40  C   UNK N   1      21.158  13.022   0.564  0.00  0.00     0.037 A 
HETATM   41  C   UNK N   1      22.407  12.641   0.114  0.00  0.00     0.027 A 
HETATM   42  C   UNK N   1      23.280  13.646   0.494  0.00  0.00     0.142 A 
HETATM   43  O   UNK N   1      22.610  14.578   1.128  0.00  0.00    -0.325 OA
ENDBRANCH  38  39
BRANCH  38  44
HETATM   44  N   UNK N   1      20.728  16.465   1.808  0.00  0.00    -0.323 N 
HETATM   45  C   UNK N   1      20.482  17.371   0.821  0.00  0.00     0.362 C 
HETATM   46  O   UNK N   1      19.809  17.046  -0.157  0.00  0.00    -0.238 OA
HETATM   47  H   UNK N   1      21.256  16.740   2.592  0.00  0.00     0.165 HD
BRANCH  45  48
HETATM   48  O   UNK N   1      20.951  18.637   0.925  0.00  0.00    -0.294 OA
BRANCH  48  49
HETATM   49  C   UNK N   1      20.548  19.544   1.895  0.00  0.00     0.061 C 
HETATM   50  C   UNK N   1      19.240  19.147   2.573  0.00  0.00     0.046 C 
HETATM   51  C   UNK N   1      20.338  20.892   1.245  0.00  0.00     0.046 C 
HETATM   52  C   UNK N   1      21.639  19.680   2.944  0.00  0.00     0.046 C 
ENDBRANCH  48  49
ENDBRANCH  45  48
ENDBRANCH  38  44
ENDBRANCH  37  38
BRANCH  37  53
HETATM   53  O   UNK N   1      19.758  13.399   3.391  0.00  0.00    -0.383 OA
HETATM   54  H   UNK N   1      20.501  12.941   3.813  0.00  0.00     0.210 HD
ENDBRANCH  37  53
ENDBRANCH  35  37
ENDBRANCH  34  35
ENDBRANCH  14  34
BRANCH   4  55
HETATM   55  O   UNK N   1      26.268  11.179   2.593  0.00  0.00    -0.305 OA
BRANCH  55  56
HETATM   56  C   UNK N   1      26.248  10.596   1.366  0.00  0.00     0.255 C 
HETATM   57  O   UNK N   1      25.536  11.031   0.475  0.00  0.00    -0.266 OA
HETATM   58  C   UNK N   1      27.126   9.420   1.104  0.00  0.00     0.126 C 
ENDBRANCH  55  56
ENDBRANCH   4  55
BRANCH  11  59
HETATM   59  O   UNK N   1      25.958  18.172   5.726  0.00  0.00    -0.384 OA
HETATM   60  H   UNK N   1      26.751  18.660   5.456  0.00  0.00     0.211 HD
ENDBRANCH  11  59
BRANCH   1  61
HETATM   61  O   UNK N   1      28.945  14.306   4.118  0.00  0.00    -0.315 OA
BRANCH  61  62
HETATM   62  C   UNK N   1      30.133  14.614   4.702  0.00  0.00     0.258 C 
HETATM   63  O   UNK N   1      30.439  14.042   5.735  0.00  0.00    -0.265 OA
BRANCH  62  64
HETATM   64  C   UNK N   1      31.039  15.681   4.174  0.00  0.00     0.106 C 
HETATM   65  C   UNK N   1      31.325  16.749   5.203  0.00  0.00     0.015 C 
ENDBRANCH  62  64
ENDBRANCH  61  62
ENDBRANCH   1  61
TORSDOF 18
ENDMDL
MODEL 8
REMARK VINA RESULT:      -7.5      2.593      5.174
REMARK  18 active torsions:
REMARK  status: ('A' for Active; 'I' for Inactive)
REMARK    1  A    between atoms: C_2  and  C_3 
REMARK    2  A    between atoms: C_3  and  O_5 
REMARK    3  A    between atoms: C_6  and  O_5 
REMARK    4  A    between atoms: C_9  and  O_58 
REMARK    5  A    between atoms: C_16  and  O_56 
REMARK    6  A    between atoms: C_19  and  O_36 
REMARK    7  A    between atoms: C_22  and  O_23 
REMARK    8  A    between atoms: O_23  and  C_24 
REMARK    9  A    between atoms: C_24  and  C_26 
REMARK   10  A    between atoms: O_36  and  C_37 
REMARK   11  A    between atoms: C_37  and  C_39 
REMARK   12  A    between atoms: C_39  and  C_40 
REMARK   13  A    between atoms: C_39  and  O_54 
REMARK   14  A    between atoms: C_40  and  C_41 
REMARK   15  A    between atoms: C_40  and  N_46 
REMARK       I    between atoms: N_46  and  C_47 
REMARK   16  A    between atoms: C_47  and  O_49 
REMARK   17  A    between atoms: O_49  and  C_50 
REMARK   18  A    between atoms: O_58  and  C_59 
ROOT
HETATM    1  C   UNK N   1      21.715  12.883   1.639  0.00  0.00     0.150 C 
HETATM    2  C   UNK N   1      20.830  13.836   0.839  0.00  0.00     0.069 C 
HETATM    3  C   UNK N   1      20.260  14.978   1.684  0.00  0.00     0.161 A 
HETATM    4  C   UNK N   1      21.179  15.486   2.790  0.00  0.00     0.125 A 
HETATM    5  C   UNK N   1      20.143  14.850   3.682  0.00  0.00     0.210 A 
HETATM    6  O   UNK N   1      19.314  14.495   2.602  0.00  0.00    -0.380 OA
HETATM    7  C   UNK N   1      22.598  14.830   3.050  0.00  0.00     0.076 C 
HETATM    8  C   UNK N   1      23.063  13.568   2.066  0.00  0.00     0.056 C 
HETATM    9  C   UNK N   1      23.997  12.295   2.445  0.00  0.00     0.171 C 
HETATM   10  O   UNK N   1      23.538  11.192   2.207  0.00  0.00    -0.294 OA
HETATM   11  C   UNK N   1      25.461  12.222   2.961  0.00  0.00     0.218 C 
HETATM   12  C   UNK N   1      25.853  13.041   4.167  0.00  0.00    -0.029 C 
HETATM   13  C   UNK N   1      27.117  13.560   4.182  0.00  0.00    -0.048 C 
HETATM   14  C   UNK N   1      27.351  15.006   4.709  0.00  0.00     0.164 C 
HETATM   15  C   UNK N   1      26.023  15.853   4.889  0.00  0.00     0.078 C 
HETATM   16  C   UNK N   1      24.866  15.141   4.161  0.00  0.00     0.098 C 
HETATM   17  C   UNK N   1      23.491  15.721   4.047  0.00  0.00     0.176 C 
HETATM   18  C   UNK N   1      24.792  13.761   4.906  0.00  0.00     0.013 C 
HETATM   19  C   UNK N   1      23.461  13.002   4.999  0.00  0.00     0.023 C 
HETATM   20  C   UNK N   1      25.111  13.822   6.412  0.00  0.00     0.023 C 
HETATM   21  O   UNK N   1      25.296  15.100   2.817  0.00  0.00    -0.386 OA
HETATM   22  C   UNK N   1      28.194  12.940   3.333  0.00  0.00     0.046 C 
HETATM   23  C   UNK N   1      23.701  14.173   0.816  0.00  0.00     0.027 C 
HETATM   24  H   UNK N   1      25.596  15.141   1.895  0.00  0.00     0.210 HD
ENDROOT
BRANCH  17  25
HETATM   25  O   UNK N   1      23.580  17.040   3.634  0.00  0.00    -0.308 OA
BRANCH  25  26
HETATM   26  C   UNK N   1      23.692  18.052   4.537  0.00  0.00     0.293 C 
HETATM   27  O   UNK N   1      22.898  18.135   5.466  0.00  0.00    -0.259 OA
BRANCH  26  28
HETATM   28  C   UNK N   1      24.713  19.107   4.358  0.00  0.00     0.039 A 
HETATM   29  C   UNK N   1      24.975  19.616   3.076  0.00  0.00     0.017 A 
HETATM   30  C   UNK N   1      25.977  20.569   2.884  0.00  0.00     0.001 A 
HETATM   31  C   UNK N   1      26.722  21.028   3.972  0.00  0.00     0.000 A 
HETATM   32  C   UNK N   1      26.464  20.532   5.254  0.00  0.00     0.001 A 
HETATM   33  C   UNK N   1      25.467  19.569   5.447  0.00  0.00     0.017 A 
ENDBRANCH  26  28
ENDBRANCH  25  26
ENDBRANCH  17  25
BRANCH  14  34
HETATM   34  O   UNK N   1      28.008  15.637   3.680  0.00  0.00    -0.309 OA
BRANCH  34  35
HETATM   35  C   UNK N   1      28.706  16.787   3.756  0.00  0.00     0.291 C 
HETATM   36  O   UNK N   1      28.091  17.839   3.811  0.00  0.00    -0.262 OA
BRANCH  35  37
HETATM   37  C   UNK N   1      30.198  16.846   3.681  0.00  0.00     0.246 C 
BRANCH  37  38
HETATM   38  C   UNK N   1      31.084  16.106   4.695  0.00  0.00     0.182 C 
BRANCH  38  39
HETATM   39  C   UNK N   1      31.444  14.670   4.372  0.00  0.00     0.078 A 
HETATM   40  C   UNK N   1      31.378  13.629   5.274  0.00  0.00     0.037 A 
HETATM   41  C   UNK N   1      31.655  12.490   4.543  0.00  0.00     0.027 A 
HETATM   42  C   UNK N   1      31.871  12.907   3.241  0.00  0.00     0.142 A 
HETATM   43  O   UNK N   1      31.733  14.210   3.181  0.00  0.00    -0.325 OA
ENDBRANCH  38  39
BRANCH  38  44
HETATM   44  N   UNK N   1      30.339  16.103   5.940  0.00  0.00    -0.323 N 
HETATM   45  C   UNK N   1      30.765  16.805   7.027  0.00  0.00     0.362 C 
HETATM   46  O   UNK N   1      31.796  17.475   6.959  0.00  0.00    -0.238 OA
HETATM   47  H   UNK N   1      29.506  15.582   6.001  0.00  0.00     0.165 HD
BRANCH  45  48
HETATM   48  O   UNK N   1      30.044  16.793   8.173  0.00  0.00    -0.294 OA
BRANCH  48  49
HETATM   49  C   UNK N   1      29.179  17.806   8.565  0.00  0.00     0.061 C 
HETATM   50  C   UNK N   1      28.597  18.579   7.386  0.00  0.00     0.046 C 
HETATM   51  C   UNK N   1      29.938  18.786   9.429  0.00  0.00     0.046 C 
HETATM   52  C   UNK N   1      28.048  17.214   9.388  0.00  0.00     0.046 C 
ENDBRANCH  48  49
ENDBRANCH  45  48
ENDBRANCH  38  44
ENDBRANCH  37  38
BRANCH  37  53
HETATM   53  O   UNK N   1      30.661  16.675   2.375  0.00  0.00    -0.383 OA
HETATM   54  H   UNK N   1      31.385  16.084   2.116  0.00  0.00     0.210 HD
ENDBRANCH  37  53
ENDBRANCH  35  37
ENDBRANCH  34  35
ENDBRANCH  14  34
BRANCH   4  55
HETATM   55  O   UNK N   1      21.049  16.847   3.018  0.00  0.00    -0.305 OA
BRANCH  55  56
HETATM   56  C   UNK N   1      20.373  17.727   2.234  0.00  0.00     0.255 C 
HETATM   57  O   UNK N   1      20.654  17.862   1.053  0.00  0.00    -0.266 OA
HETATM   58  C   UNK N   1      19.259  18.523   2.823  0.00  0.00     0.126 C 
ENDBRANCH  55  56
ENDBRANCH   4  55
BRANCH  11  59
HETATM   59  O   UNK N   1      25.887  10.898   3.128  0.00  0.00    -0.384 OA
HETATM   60  H   UNK N   1      26.124  10.572   4.010  0.00  0.00     0.211 HD
ENDBRANCH  11  59
BRANCH   1  61
HETATM   61  O   UNK N   1      21.002  12.465   2.757  0.00  0.00    -0.315 OA
BRANCH  61  62
HETATM   62  C   UNK N   1      20.384  11.283   3.014  0.00  0.00     0.258 C 
HETATM   63  O   UNK N   1      19.705  10.779   2.135  0.00  0.00    -0.265 OA
BRANCH  62  64
HETATM   64  C   UNK N   1      20.437  10.618   4.353  0.00  0.00     0.106 C 
HETATM   65  C   UNK N   1      20.121  11.573   5.479  0.00  0.00     0.015 C 
ENDBRANCH  62  64
ENDBRANCH  61  62
ENDBRANCH   1  61
TORSDOF 18
ENDMDL
MODEL 9
REMARK VINA RESULT:      -7.5      2.465      4.431
REMARK  18 active torsions:
REMARK  status: ('A' for Active; 'I' for Inactive)
REMARK    1  A    between atoms: C_2  and  C_3 
REMARK    2  A    between atoms: C_3  and  O_5 
REMARK    3  A    between atoms: C_6  and  O_5 
REMARK    4  A    between atoms: C_9  and  O_58 
REMARK    5  A    between atoms: C_16  and  O_56 
REMARK    6  A    between atoms: C_19  and  O_36 
REMARK    7  A    between atoms: C_22  and  O_23 
REMARK    8  A    between atoms: O_23  and  C_24 
REMARK    9  A    between atoms: C_24  and  C_26 
REMARK   10  A    between atoms: O_36  and  C_37 
REMARK   11  A    between atoms: C_37  and  C_39 
REMARK   12  A    between atoms: C_39  and  C_40 
REMARK   13  A    between atoms: C_39  and  O_54 
REMARK   14  A    between atoms: C_40  and  C_41 
REMARK   15  A    between atoms: C_40  and  N_46 
REMARK       I    between atoms: N_46  and  C_47 
REMARK   16  A    between atoms: C_47  and  O_49 
REMARK   17  A    between atoms: O_49  and  C_50 
REMARK   18  A    between atoms: O_58  and  C_59 
ROOT
HETATM    1  C   UNK N   1      21.260  12.724   1.737  0.00  0.00     0.150 C 
HETATM    2  C   UNK N   1      20.333  13.694   1.010  0.00  0.00     0.069 C 
HETATM    3  C   UNK N   1      19.821  14.823   1.909  0.00  0.00     0.161 A 
HETATM    4  C   UNK N   1      20.808  15.307   2.966  0.00  0.00     0.125 A 
HETATM    5  C   UNK N   1      19.825  14.658   3.908  0.00  0.00     0.210 A 
HETATM    6  O   UNK N   1      18.930  14.327   2.874  0.00  0.00    -0.380 OA
HETATM    7  C   UNK N   1      22.236  14.641   3.127  0.00  0.00     0.076 C 
HETATM    8  C   UNK N   1      22.635  13.396   2.094  0.00  0.00     0.056 C 
HETATM    9  C   UNK N   1      23.584  12.113   2.392  0.00  0.00     0.171 C 
HETATM   10  O   UNK N   1      23.106  11.016   2.162  0.00  0.00    -0.294 OA
HETATM   11  C   UNK N   1      25.076  12.025   2.817  0.00  0.00     0.218 C 
HETATM   12  C   UNK N   1      25.545  12.820   4.011  0.00  0.00    -0.029 C 
HETATM   13  C   UNK N   1      26.810  13.334   3.959  0.00  0.00    -0.048 C 
HETATM   14  C   UNK N   1      27.082  14.770   4.496  0.00  0.00     0.164 C 
HETATM   15  C   UNK N   1      25.772  15.617   4.773  0.00  0.00     0.078 C 
HETATM   16  C   UNK N   1      24.569  14.924   4.104  0.00  0.00     0.098 C 
HETATM   17  C   UNK N   1      23.192  15.510   4.084  0.00  0.00     0.176 C 
HETATM   18  C   UNK N   1      24.534  13.530   4.826  0.00  0.00     0.013 C 
HETATM   19  C   UNK N   1      23.207  12.775   4.986  0.00  0.00     0.023 C 
HETATM   20  C   UNK N   1      24.945  13.562   6.310  0.00  0.00     0.023 C 
HETATM   21  O   UNK N   1      24.917  14.905   2.735  0.00  0.00    -0.386 OA
HETATM   22  C   UNK N   1      27.831  12.726   3.034  0.00  0.00     0.046 C 
HETATM   23  C   UNK N   1      23.199  14.022   0.819  0.00  0.00     0.027 C 
HETATM   24  H   UNK N   1      25.160  14.963   1.798  0.00  0.00     0.210 HD
ENDROOT
BRANCH  17  25
HETATM   25  O   UNK N   1      23.262  16.836   3.690  0.00  0.00    -0.308 OA
BRANCH  25  26
HETATM   26  C   UNK N   1      23.490  17.827   4.596  0.00  0.00     0.293 C 
HETATM   27  O   UNK N   1      22.758  17.945   5.571  0.00  0.00    -0.259 OA
BRANCH  26  28
HETATM   28  C   UNK N   1      24.563  18.818   4.369  0.00  0.00     0.039 A 
HETATM   29  C   UNK N   1      24.615  19.526   3.158  0.00  0.00     0.017 A 
HETATM   30  C   UNK N   1      25.656  20.423   2.906  0.00  0.00     0.001 A 
HETATM   31  C   UNK N   1      26.651  20.625   3.865  0.00  0.00     0.000 A 
HETATM   32  C   UNK N   1      26.604  19.930   5.077  0.00  0.00     0.001 A 
HETATM   33  C   UNK N   1      25.568  19.022   5.327  0.00  0.00     0.017 A 
ENDBRANCH  26  28
ENDBRANCH  25  26
ENDBRANCH  17  25
BRANCH  14  34
HETATM   34  O   UNK N   1      27.679  15.417   3.441  0.00  0.00    -0.309 OA
BRANCH  34  35
HETATM   35  C   UNK N   1      28.726  16.262   3.503  0.00  0.00     0.291 C 
HETATM   36  O   UNK N   1      29.522  16.271   2.580  0.00  0.00    -0.262 OA
BRANCH  35  37
HETATM   37  C   UNK N   1      29.015  17.122   4.692  0.00  0.00     0.246 C 
BRANCH  37  38
HETATM   38  C   UNK N   1      29.549  16.528   6.004  0.00  0.00     0.182 C 
BRANCH  38  39
HETATM   39  C   UNK N   1      29.244  17.291   7.277  0.00  0.00     0.078 A 
HETATM   40  C   UNK N   1      30.202  17.783   8.139  0.00  0.00     0.037 A 
HETATM   41  C   UNK N   1      29.507  18.518   9.080  0.00  0.00     0.027 A 
HETATM   42  C   UNK N   1      28.170  18.429   8.734  0.00  0.00     0.142 A 
HETATM   43  O   UNK N   1      28.056  17.693   7.654  0.00  0.00    -0.325 OA
ENDBRANCH  38  39
BRANCH  38  44
HETATM   44  N   UNK N   1      30.992  16.480   5.855  0.00  0.00    -0.323 N 
HETATM   45  C   UNK N   1      31.681  15.310   5.963  0.00  0.00     0.362 C 
HETATM   46  O   UNK N   1      31.076  14.260   6.176  0.00  0.00    -0.238 OA
HETATM   47  H   UNK N   1      31.485  17.313   5.672  0.00  0.00     0.165 HD
BRANCH  45  48
HETATM   48  O   UNK N   1      33.026  15.294   5.810  0.00  0.00    -0.294 OA
BRANCH  48  49
HETATM   49  C   UNK N   1      33.930  15.731   6.769  0.00  0.00     0.061 C 
HETATM   50  C   UNK N   1      35.298  15.070   6.642  0.00  0.00     0.046 C 
HETATM   51  C   UNK N   1      33.384  15.400   8.138  0.00  0.00     0.046 C 
HETATM   52  C   UNK N   1      34.086  17.239   6.666  0.00  0.00     0.046 C 
ENDBRANCH  48  49
ENDBRANCH  45  48
ENDBRANCH  38  44
ENDBRANCH  37  38
BRANCH  37  53
HETATM   53  O   UNK N   1      29.703  18.285   4.338  0.00  0.00    -0.383 OA
HETATM   54  H   UNK N   1      29.388  19.187   4.502  0.00  0.00     0.210 HD
ENDBRANCH  37  53
ENDBRANCH  35  37
ENDBRANCH  34  35
ENDBRANCH  14  34
BRANCH   4  55
HETATM   55  O   UNK N   1      20.698  16.664   3.227  0.00  0.00    -0.305 OA
BRANCH  55  56
HETATM   56  C   UNK N   1      20.047  17.575   2.456  0.00  0.00     0.255 C 
HETATM   57  O   UNK N   1      19.173  18.286   2.926  0.00  0.00    -0.266 OA
HETATM   58  C   UNK N   1      20.422  17.716   1.021  0.00  0.00     0.126 C 
ENDBRANCH  55  56
ENDBRANCH   4  55
BRANCH  11  59
HETATM   59  O   UNK N   1      25.505  10.697   2.932  0.00  0.00    -0.384 OA
HETATM   60  H   UNK N   1      26.286  10.484   3.466  0.00  0.00     0.211 HD
ENDBRANCH  11  59
BRANCH   1  61
HETATM   61  O   UNK N   1      20.615  12.288   2.889  0.00  0.00    -0.315 OA
BRANCH  61  62
HETATM   62  C   UNK N   1      19.975  11.117   3.148  0.00  0.00     0.258 C 
HETATM   63  O   UNK N   1      19.808  10.330   2.231  0.00  0.00    -0.265 OA
BRANCH  62  64
HETATM   64  C   UNK N   1      19.399  10.793   4.490  0.00  0.00     0.106 C 
HETATM   65  C   UNK N   1      20.421  10.185   5.420  0.00  0.00     0.015 C 
ENDBRANCH  62  64
ENDBRANCH  61  62
ENDBRANCH   1  61
TORSDOF 18
ENDMDL
