MODEL 1
REMARK VINA RESULT:      -8.1      0.000      0.000
REMARK  0 active torsions:
REMARK  status: ('A' for Active; 'I' for Inactive)
ROOT
HETATM    1  O   UNK N   1      26.820  13.609   3.699  0.00  0.00    -0.309 OA
HETATM    2  O   UNK N   1      26.206  12.842   1.696  0.00  0.00    -0.265 OA
HETATM    3  O   UNK N   1      34.851  18.532   7.810  0.00  0.00    -0.293 OA
HETATM    4  C   UNK N   1      28.253  15.297   4.708  0.00  0.00    -0.008 C 
HETATM    5  C   UNK N   1      28.210  15.852   6.162  0.00  0.00     0.005 C 
HETATM    6  C   UNK N   1      26.817  14.774   4.430  0.00  0.00     0.079 C 
HETATM    7  C   UNK N   1      28.812  17.273   6.319  0.00  0.00     0.018 C 
HETATM    8  C   UNK N   1      30.144  17.471   5.524  0.00  0.00     0.006 C 
HETATM    9  C   UNK N   1      28.705  16.358   3.689  0.00  0.00     0.013 C 
HETATM   10  C   UNK N   1      26.745  15.783   6.577  0.00  0.00     0.009 C 
HETATM   11  C   UNK N   1      26.210  14.586   5.807  0.00  0.00     0.040 C 
HETATM   12  C   UNK N   1      30.063  16.947   4.072  0.00  0.00     0.007 C 
HETATM   13  C   UNK N   1      31.391  16.929   6.268  0.00  0.00    -0.012 C 
HETATM   14  C   UNK N   1      25.933  15.761   3.619  0.00  0.00     0.049 C 
HETATM   15  C   UNK N   1      29.253  14.132   4.653  0.00  0.00     0.019 C 
HETATM   16  C   UNK N   1      28.968  17.621   7.791  0.00  0.00    -0.021 C 
HETATM   17  C   UNK N   1      31.431  17.615   7.633  0.00  0.00    -0.046 C 
HETATM   18  C   UNK N   1      32.657  17.241   5.436  0.00  0.00     0.022 C 
HETATM   19  C   UNK N   1      25.670  15.084   2.268  0.00  0.00     0.114 C 
HETATM   20  C   UNK N   1      31.325  15.422   6.487  0.00  0.00     0.021 C 
HETATM   21  C   UNK N   1      30.165  17.814   8.376  0.00  0.00     0.004 C 
HETATM   22  C   UNK N   1      26.233  13.746   2.516  0.00  0.00     0.259 C 
HETATM   23  C   UNK N   1      33.926  17.034   6.247  0.00  0.00     0.084 C 
HETATM   24  C   UNK N   1      32.574  18.105   8.147  0.00  0.00     0.058 C 
HETATM   25  C   UNK N   1      33.858  17.933   7.438  0.00  0.00     0.149 C 
ENDROOT
TORSDOF 0
ENDMDL
MODEL 2
REMARK VINA RESULT:      -8.1     11.508     13.187
REMARK  0 active torsions:
REMARK  status: ('A' for Active; 'I' for Inactive)
ROOT
HETATM    1  O   UNK N   1      28.351  26.554  -4.628  0.00  0.00    -0.309 OA
HETATM    2  O   UNK N   1      27.515  28.105  -3.258  0.00  0.00    -0.265 OA
HETATM    3  O   UNK N   1      34.922  18.671  -4.067  0.00  0.00    -0.293 OA
HETATM    4  C   UNK N   1      29.313  24.320  -4.576  0.00  0.00    -0.008 C 
HETATM    5  C   UNK N   1      29.485  23.318  -5.756  0.00  0.00     0.005 C 
HETATM    6  C   UNK N   1      28.139  25.247  -4.998  0.00  0.00     0.079 C 
HETATM    7  C   UNK N   1      29.563  21.832  -5.322  0.00  0.00     0.018 C 
HETATM    8  C   UNK N   1      30.458  21.602  -4.060  0.00  0.00     0.006 C 
HETATM    9  C   UNK N   1      29.056  23.609  -3.236  0.00  0.00     0.013 C 
HETATM   10  C   UNK N   1      28.319  23.599  -6.696  0.00  0.00     0.009 C 
HETATM   11  C   UNK N   1      28.050  25.083  -6.502  0.00  0.00     0.040 C 
HETATM   12  C   UNK N   1      30.166  22.606  -2.922  0.00  0.00     0.007 C 
HETATM   13  C   UNK N   1      31.972  21.520  -4.387  0.00  0.00    -0.012 C 
HETATM   14  C   UNK N   1      26.774  24.861  -4.366  0.00  0.00     0.049 C 
HETATM   15  C   UNK N   1      30.604  25.142  -4.434  0.00  0.00     0.019 C 
HETATM   16  C   UNK N   1      29.990  20.961  -6.492  0.00  0.00    -0.021 C 
HETATM   17  C   UNK N   1      32.145  20.411  -5.423  0.00  0.00    -0.046 C 
HETATM   18  C   UNK N   1      32.758  21.216  -3.089  0.00  0.00     0.022 C 
HETATM   19  C   UNK N   1      26.402  26.012  -3.423  0.00  0.00     0.114 C 
HETATM   20  C   UNK N   1      32.508  22.819  -4.975  0.00  0.00     0.021 C 
HETATM   21  C   UNK N   1      31.153  20.284  -6.516  0.00  0.00     0.004 C 
HETATM   22  C   UNK N   1      27.447  26.993  -3.759  0.00  0.00     0.259 C 
HETATM   23  C   UNK N   1      34.190  20.803  -3.386  0.00  0.00     0.084 C 
HETATM   24  C   UNK N   1      33.136  19.504  -5.331  0.00  0.00     0.058 C 
HETATM   25  C   UNK N   1      34.144  19.590  -4.256  0.00  0.00     0.149 C 
ENDROOT
TORSDOF 0
ENDMDL
MODEL 3
REMARK VINA RESULT:      -8.0      9.959     12.641
REMARK  0 active torsions:
REMARK  status: ('A' for Active; 'I' for Inactive)
ROOT
HETATM    1  O   UNK N   1      35.953  12.125  10.165  0.00  0.00    -0.309 OA
HETATM    2  O   UNK N   1      36.671  11.142   8.294  0.00  0.00    -0.265 OA
HETATM    3  O   UNK N   1      34.817   9.669  20.080  0.00  0.00    -0.293 OA
HETATM    4  C   UNK N   1      36.219  11.994  12.579  0.00  0.00    -0.008 C 
HETATM    5  C   UNK N   1      35.856  13.067  13.648  0.00  0.00     0.005 C 
HETATM    6  C   UNK N   1      36.444  12.789  11.264  0.00  0.00     0.079 C 
HETATM    7  C   UNK N   1      36.660  12.948  14.968  0.00  0.00     0.018 C 
HETATM    8  C   UNK N   1      36.812  11.474  15.468  0.00  0.00     0.006 C 
HETATM    9  C   UNK N   1      37.445  11.156  12.983  0.00  0.00     0.013 C 
HETATM   10  C   UNK N   1      36.056  14.409  12.954  0.00  0.00     0.009 C 
HETATM   11  C   UNK N   1      35.739  14.112  11.497  0.00  0.00     0.040 C 
HETATM   12  C   UNK N   1      37.238  10.498  14.347  0.00  0.00     0.007 C 
HETATM   13  C   UNK N   1      35.576  10.958  16.248  0.00  0.00    -0.012 C 
HETATM   14  C   UNK N   1      37.937  13.063  10.940  0.00  0.00     0.049 C 
HETATM   15  C   UNK N   1      35.027  11.038  12.416  0.00  0.00     0.019 C 
HETATM   16  C   UNK N   1      36.064  13.854  16.034  0.00  0.00    -0.021 C 
HETATM   17  C   UNK N   1      35.336  11.932  17.400  0.00  0.00    -0.046 C 
HETATM   18  C   UNK N   1      35.858   9.526  16.761  0.00  0.00     0.022 C 
HETATM   19  C   UNK N   1      38.250  12.264   9.670  0.00  0.00     0.114 C 
HETATM   20  C   UNK N   1      34.322  10.915  15.383  0.00  0.00     0.021 C 
HETATM   21  C   UNK N   1      35.496  13.385  17.160  0.00  0.00     0.004 C 
HETATM   22  C   UNK N   1      36.903  11.802   9.295  0.00  0.00     0.259 C 
HETATM   23  C   UNK N   1      34.835   9.090  17.797  0.00  0.00     0.084 C 
HETATM   24  C   UNK N   1      35.052  11.503  18.644  0.00  0.00     0.058 C 
HETATM   25  C   UNK N   1      34.889  10.063  18.930  0.00  0.00     0.149 C 
ENDROOT
TORSDOF 0
ENDMDL
MODEL 4
REMARK VINA RESULT:      -7.7     10.556     12.721
REMARK  0 active torsions:
REMARK  status: ('A' for Active; 'I' for Inactive)
ROOT
HETATM    1  O   UNK N   1      36.367   9.846  10.346  0.00  0.00    -0.309 OA
HETATM    2  O   UNK N   1      35.659  10.355   8.291  0.00  0.00    -0.265 OA
HETATM    3  O   UNK N   1      34.977  13.295  19.928  0.00  0.00    -0.293 OA
HETATM    4  C   UNK N   1      35.689  10.055  12.673  0.00  0.00    -0.008 C 
HETATM    5  C   UNK N   1      36.228   9.271  13.906  0.00  0.00     0.005 C 
HETATM    6  C   UNK N   1      35.969   9.134  11.453  0.00  0.00     0.079 C 
HETATM    7  C   UNK N   1      35.233   9.191  15.093  0.00  0.00     0.018 C 
HETATM    8  C   UNK N   1      34.499  10.542  15.377  0.00  0.00     0.006 C 
HETATM    9  C   UNK N   1      34.201  10.418  12.814  0.00  0.00     0.013 C 
HETATM   10  C   UNK N   1      36.622   7.900  13.371  0.00  0.00     0.009 C 
HETATM   11  C   UNK N   1      37.043   8.180  11.938  0.00  0.00     0.040 C 
HETATM   12  C   UNK N   1      33.944  11.209  14.097  0.00  0.00     0.007 C 
HETATM   13  C   UNK N   1      35.337  11.530  16.229  0.00  0.00    -0.012 C 
HETATM   14  C   UNK N   1      34.736   8.313  10.988  0.00  0.00     0.049 C 
HETATM   15  C   UNK N   1      36.483  11.363  12.534  0.00  0.00     0.019 C 
HETATM   16  C   UNK N   1      35.929   8.647  16.331  0.00  0.00    -0.021 C 
HETATM   17  C   UNK N   1      35.713  10.800  17.517  0.00  0.00    -0.046 C 
HETATM   18  C   UNK N   1      34.495  12.796  16.516  0.00  0.00     0.022 C 
HETATM   19  C   UNK N   1      34.371   8.844   9.597  0.00  0.00     0.114 C 
HETATM   20  C   UNK N   1      36.618  11.959  15.525  0.00  0.00     0.021 C 
HETATM   21  C   UNK N   1      36.111   9.375  17.448  0.00  0.00     0.004 C 
HETATM   22  C   UNK N   1      35.514   9.734   9.333  0.00  0.00     0.259 C 
HETATM   23  C   UNK N   1      35.123  13.651  17.604  0.00  0.00     0.084 C 
HETATM   24  C   UNK N   1      35.628  11.397  18.721  0.00  0.00     0.058 C 
HETATM   25  C   UNK N   1      35.231  12.815  18.837  0.00  0.00     0.149 C 
ENDROOT
TORSDOF 0
ENDMDL
MODEL 5
REMARK VINA RESULT:      -7.7      2.450      7.441
REMARK  0 active torsions:
REMARK  status: ('A' for Active; 'I' for Inactive)
ROOT
HETATM    1  O   UNK N   1      34.422  14.523   9.699  0.00  0.00    -0.309 OA
HETATM    2  O   UNK N   1      34.662  14.386  11.914  0.00  0.00    -0.265 OA
HETATM    3  O   UNK N   1      26.951  16.729   2.993  0.00  0.00    -0.293 OA
HETATM    4  C   UNK N   1      33.044  15.622   8.021  0.00  0.00    -0.008 C 
HETATM    5  C   UNK N   1      33.342  15.810   6.505  0.00  0.00     0.005 C 
HETATM    6  C   UNK N   1      34.437  15.459   8.691  0.00  0.00     0.079 C 
HETATM    7  C   UNK N   1      32.609  17.014   5.857  0.00  0.00     0.018 C 
HETATM    8  C   UNK N   1      31.117  17.144   6.309  0.00  0.00     0.006 C 
HETATM    9  C   UNK N   1      32.237  16.792   8.610  0.00  0.00     0.013 C 
HETATM   10  C   UNK N   1      34.859  15.918   6.402  0.00  0.00     0.009 C 
HETATM   11  C   UNK N   1      35.359  15.062   7.554  0.00  0.00     0.040 C 
HETATM   12  C   UNK N   1      30.935  17.008   7.838  0.00  0.00     0.007 C 
HETATM   13  C   UNK N   1      30.153  16.216   5.525  0.00  0.00    -0.012 C 
HETATM   14  C   UNK N   1      34.976  16.758   9.350  0.00  0.00     0.049 C 
HETATM   15  C   UNK N   1      32.220  14.339   8.208  0.00  0.00     0.019 C 
HETATM   16  C   UNK N   1      32.745  16.964   4.344  0.00  0.00    -0.021 C 
HETATM   17  C   UNK N   1      30.334  16.536   4.042  0.00  0.00    -0.046 C 
HETATM   18  C   UNK N   1      28.702  16.478   5.992  0.00  0.00     0.022 C 
HETATM   19  C   UNK N   1      35.013  16.486  10.858  0.00  0.00     0.114 C 
HETATM   20  C   UNK N   1      30.466  14.741   5.743  0.00  0.00     0.021 C 
HETATM   21  C   UNK N   1      31.697  16.784   3.519  0.00  0.00     0.004 C 
HETATM   22  C   UNK N   1      34.703  15.047  10.887  0.00  0.00     0.259 C 
HETATM   23  C   UNK N   1      27.688  15.849   5.049  0.00  0.00     0.084 C 
HETATM   24  C   UNK N   1      29.282  16.666   3.212  0.00  0.00     0.058 C 
HETATM   25  C   UNK N   1      27.905  16.432   3.692  0.00  0.00     0.149 C 
ENDROOT
TORSDOF 0
ENDMDL
MODEL 6
REMARK VINA RESULT:      -7.6      4.888      8.476
REMARK  0 active torsions:
REMARK  status: ('A' for Active; 'I' for Inactive)
ROOT
HETATM    1  O   UNK N   1      36.879  13.312  11.084  0.00  0.00    -0.309 OA
HETATM    2  O   UNK N   1      37.292  11.354  12.072  0.00  0.00    -0.265 OA
HETATM    3  O   UNK N   1      32.341  16.677   2.497  0.00  0.00    -0.293 OA
HETATM    4  C   UNK N   1      35.327  14.336   9.514  0.00  0.00    -0.008 C 
HETATM    5  C   UNK N   1      35.059  15.851   9.275  0.00  0.00     0.005 C 
HETATM    6  C   UNK N   1      35.874  14.244  10.965  0.00  0.00     0.079 C 
HETATM    7  C   UNK N   1      33.660  16.165   8.684  0.00  0.00     0.018 C 
HETATM    8  C   UNK N   1      33.236  15.181   7.544  0.00  0.00     0.006 C 
HETATM    9  C   UNK N   1      34.068  13.477   9.299  0.00  0.00     0.013 C 
HETATM   10  C   UNK N   1      35.294  16.519  10.624  0.00  0.00     0.009 C 
HETATM   11  C   UNK N   1      36.355  15.648  11.277  0.00  0.00     0.040 C 
HETATM   12  C   UNK N   1      33.481  13.698   7.905  0.00  0.00     0.007 C 
HETATM   13  C   UNK N   1      33.832  15.549   6.161  0.00  0.00    -0.012 C 
HETATM   14  C   UNK N   1      34.808  13.829  12.015  0.00  0.00     0.049 C 
HETATM   15  C   UNK N   1      36.398  13.861   8.520  0.00  0.00     0.019 C 
HETATM   16  C   UNK N   1      33.586  17.618   8.243  0.00  0.00    -0.021 C 
HETATM   17  C   UNK N   1      33.414  16.988   5.863  0.00  0.00    -0.046 C 
HETATM   18  C   UNK N   1      33.292  14.566   5.096  0.00  0.00     0.022 C 
HETATM   19  C   UNK N   1      35.233  12.449  12.530  0.00  0.00     0.114 C 
HETATM   20  C   UNK N   1      35.354  15.476   6.149  0.00  0.00     0.021 C 
HETATM   21  C   UNK N   1      33.434  17.986   6.957  0.00  0.00     0.004 C 
HETATM   22  C   UNK N   1      36.557  12.314  11.900  0.00  0.00     0.259 C 
HETATM   23  C   UNK N   1      33.571  15.059   3.686  0.00  0.00     0.084 C 
HETATM   24  C   UNK N   1      32.961  17.357   4.650  0.00  0.00     0.058 C 
HETATM   25  C   UNK N   1      32.918  16.394   3.532  0.00  0.00     0.149 C 
ENDROOT
TORSDOF 0
ENDMDL
MODEL 7
REMARK VINA RESULT:      -7.5      2.416      3.430
REMARK  0 active torsions:
REMARK  status: ('A' for Active; 'I' for Inactive)
ROOT
HETATM    1  O   UNK N   1      27.400  16.905   4.969  0.00  0.00    -0.309 OA
HETATM    2  O   UNK N   1      26.079  17.299   3.214  0.00  0.00    -0.265 OA
HETATM    3  O   UNK N   1      37.154  14.140   6.662  0.00  0.00    -0.293 OA
HETATM    4  C   UNK N   1      29.752  16.915   5.592  0.00  0.00    -0.008 C 
HETATM    5  C   UNK N   1      30.369  16.941   7.021  0.00  0.00     0.005 C 
HETATM    6  C   UNK N   1      28.338  17.540   5.748  0.00  0.00     0.079 C 
HETATM    7  C   UNK N   1      31.803  17.527   7.085  0.00  0.00     0.018 C 
HETATM    8  C   UNK N   1      32.725  17.032   5.924  0.00  0.00     0.006 C 
HETATM    9  C   UNK N   1      30.620  17.663   4.565  0.00  0.00     0.013 C 
HETATM   10  C   UNK N   1      29.374  17.718   7.875  0.00  0.00     0.009 C 
HETATM   11  C   UNK N   1      28.032  17.417   7.229  0.00  0.00     0.040 C 
HETATM   12  C   UNK N   1      32.044  17.107   4.538  0.00  0.00     0.007 C 
HETATM   13  C   UNK N   1      33.352  15.638   6.188  0.00  0.00    -0.012 C 
HETATM   14  C   UNK N   1      28.261  19.036   5.339  0.00  0.00     0.049 C 
HETATM   15  C   UNK N   1      29.630  15.454   5.133  0.00  0.00     0.019 C 
HETATM   16  C   UNK N   1      32.418  17.273   8.452  0.00  0.00    -0.021 C 
HETATM   17  C   UNK N   1      34.101  15.730   7.516  0.00  0.00    -0.046 C 
HETATM   18  C   UNK N   1      34.302  15.277   5.021  0.00  0.00     0.022 C 
HETATM   19  C   UNK N   1      27.366  19.091   4.096  0.00  0.00     0.114 C 
HETATM   20  C   UNK N   1      32.299  14.543   6.301  0.00  0.00     0.021 C 
HETATM   21  C   UNK N   1      33.491  16.481   8.637  0.00  0.00     0.004 C 
HETATM   22  C   UNK N   1      26.873  17.704   4.048  0.00  0.00     0.259 C 
HETATM   23  C   UNK N   1      35.187  14.092   5.366  0.00  0.00     0.084 C 
HETATM   24  C   UNK N   1      35.330  15.205   7.674  0.00  0.00     0.058 C 
HETATM   25  C   UNK N   1      35.978  14.452   6.581  0.00  0.00     0.149 C 
ENDROOT
TORSDOF 0
ENDMDL
MODEL 8
REMARK VINA RESULT:      -7.4     11.114     13.348
REMARK  0 active torsions:
REMARK  status: ('A' for Active; 'I' for Inactive)
ROOT
HETATM    1  O   UNK N   1      35.227  20.165  -5.900  0.00  0.00    -0.309 OA
HETATM    2  O   UNK N   1      36.287  18.747  -7.260  0.00  0.00    -0.265 OA
HETATM    3  O   UNK N   1      26.087  24.844  -5.439  0.00  0.00    -0.293 OA
HETATM    4  C   UNK N   1      32.975  20.824  -5.257  0.00  0.00    -0.008 C 
HETATM    5  C   UNK N   1      32.528  21.613  -3.992  0.00  0.00     0.005 C 
HETATM    6  C   UNK N   1      34.322  20.157  -4.865  0.00  0.00     0.079 C 
HETATM    7  C   UNK N   1      31.056  21.363  -3.573  0.00  0.00     0.018 C 
HETATM    8  C   UNK N   1      30.064  21.342  -4.782  0.00  0.00     0.006 C 
HETATM    9  C   UNK N   1      31.919  19.803  -5.715  0.00  0.00     0.013 C 
HETATM   10  C   UNK N   1      33.524  21.230  -2.904  0.00  0.00     0.009 C 
HETATM   11  C   UNK N   1      34.808  20.958  -3.673  0.00  0.00     0.040 C 
HETATM   12  C   UNK N   1      30.569  20.479  -5.961  0.00  0.00     0.007 C 
HETATM   13  C   UNK N   1      29.626  22.755  -5.243  0.00  0.00    -0.012 C 
HETATM   14  C   UNK N   1      34.190  18.666  -4.451  0.00  0.00     0.049 C 
HETATM   15  C   UNK N   1      33.199  21.820  -6.406  0.00  0.00     0.019 C 
HETATM   16  C   UNK N   1      30.633  22.359  -2.505  0.00  0.00    -0.021 C 
HETATM   17  C   UNK N   1      29.029  23.458  -4.025  0.00  0.00    -0.046 C 
HETATM   18  C   UNK N   1      28.592  22.621  -6.387  0.00  0.00     0.022 C 
HETATM   19  C   UNK N   1      34.925  17.859  -5.528  0.00  0.00     0.114 C 
HETATM   20  C   UNK N   1      30.797  23.586  -5.755  0.00  0.00     0.021 C 
HETATM   21  C   UNK N   1      29.680  23.288  -2.705  0.00  0.00     0.004 C 
HETATM   22  C   UNK N   1      35.555  18.942  -6.302  0.00  0.00     0.259 C 
HETATM   23  C   UNK N   1      27.885  23.938  -6.660  0.00  0.00     0.084 C 
HETATM   24  C   UNK N   1      27.890  24.170  -4.105  0.00  0.00     0.058 C 
HETATM   25  C   UNK N   1      27.205  24.361  -5.399  0.00  0.00     0.149 C 
ENDROOT
TORSDOF 0
ENDMDL
MODEL 9
REMARK VINA RESULT:      -7.4     10.804     13.644
REMARK  0 active torsions:
REMARK  status: ('A' for Active; 'I' for Inactive)
ROOT
HETATM    1  O   UNK N   1      34.189   9.119  17.885  0.00  0.00    -0.309 OA
HETATM    2  O   UNK N   1      33.239   9.291  19.897  0.00  0.00    -0.265 OA
HETATM    3  O   UNK N   1      36.750  15.369  10.138  0.00  0.00    -0.293 OA
HETATM    4  C   UNK N   1      35.443  10.448  16.278  0.00  0.00    -0.008 C 
HETATM    5  C   UNK N   1      36.305   9.949  15.081  0.00  0.00     0.005 C 
HETATM    6  C   UNK N   1      35.417   9.262  17.281  0.00  0.00     0.079 C 
HETATM    7  C   UNK N   1      37.411  10.941  14.636  0.00  0.00     0.018 C 
HETATM    8  C   UNK N   1      36.926  12.427  14.591  0.00  0.00     0.006 C 
HETATM    9  C   UNK N   1      35.999  11.740  16.902  0.00  0.00     0.013 C 
HETATM   10  C   UNK N   1      36.862   8.600  15.520  0.00  0.00     0.009 C 
HETATM   11  C   UNK N   1      35.789   8.052  16.446  0.00  0.00     0.040 C 
HETATM   12  C   UNK N   1      36.137  12.844  15.853  0.00  0.00     0.007 C 
HETATM   13  C   UNK N   1      36.168  12.787  13.287  0.00  0.00    -0.012 C 
HETATM   14  C   UNK N   1      36.431   9.402  18.449  0.00  0.00     0.049 C 
HETATM   15  C   UNK N   1      34.021  10.740  15.775  0.00  0.00     0.019 C 
HETATM   16  C   UNK N   1      38.019  10.497  13.315  0.00  0.00    -0.021 C 
HETATM   17  C   UNK N   1      37.098  12.451  12.122  0.00  0.00    -0.046 C 
HETATM   18  C   UNK N   1      35.802  14.290  13.309  0.00  0.00     0.022 C 
HETATM   19  C   UNK N   1      35.593   9.565  19.723  0.00  0.00     0.114 C 
HETATM   20  C   UNK N   1      34.882  11.986  13.126  0.00  0.00     0.021 C 
HETATM   21  C   UNK N   1      37.905  11.211  12.180  0.00  0.00     0.004 C 
HETATM   22  C   UNK N   1      34.242   9.302  19.200  0.00  0.00     0.259 C 
HETATM   23  C   UNK N   1      35.355  14.778  11.941  0.00  0.00     0.084 C 
HETATM   24  C   UNK N   1      37.255  13.285  11.077  0.00  0.00     0.058 C 
HETATM   25  C   UNK N   1      36.474  14.535  10.981  0.00  0.00     0.149 C 
ENDROOT
TORSDOF 0
ENDMDL
