MODEL 1
REMARK VINA RESULT:      -7.6      0.000      0.000
REMARK  8 active torsions:
REMARK  status: ('A' for Active; 'I' for Inactive)
REMARK    1  A    between atoms: C_14  and  C_11 
REMARK    2  A    between atoms: C_12  and  C_15 
REMARK    3  A    between atoms: C_18  and  C_13 
REMARK    4  A    between atoms: O_32  and  C_15 
REMARK    5  A    between atoms: N_29  and  C_16 
REMARK    6  A    between atoms: N_31  and  C_17 
REMARK    7  A    between atoms: O_33  and  C_17 
REMARK    8  A    between atoms: C_19  and  C_18 
ROOT
HETATM    1  C   UNK N   1      33.865  18.428   7.930  0.00  0.00     0.070 C 
HETATM    2  C   UNK N   1      33.705  17.113   8.612  0.00  0.00     0.025 A 
HETATM    3  C   UNK N   1      32.509  16.366   8.626  0.00  0.00     0.041 A 
HETATM    4  C   UNK N   1      34.451  15.176   9.526  0.00  0.00     0.152 A 
HETATM    5  N   UNK N   1      34.796  16.423   9.100  0.00  0.00    -0.339 N 
ATOM      6  HN  UNK N   1      35.743  16.800   9.137  1.00  0.00     0.168 HD
HETATM    7  S   UNK N   1      32.872  14.918   9.321  0.00  0.00    -0.051 SA
ENDROOT
BRANCH   4   8
HETATM    8  N   UNK N   1      35.332  14.140   9.870  0.00  0.00    -0.302 N 
HETATM    9  C   UNK N   1      36.508  14.330  10.355  0.00  0.00     0.221 C 
ATOM     10  HN  UNK N   1      35.021  13.179   9.729  1.00  0.00     0.171 HD
BRANCH   9  11
HETATM   11  N   UNK N   1      37.237  13.205  10.823  0.00  0.00    -0.335 N 
HETATM   12  C   UNK N   1      37.219  11.997  10.044  0.00  0.00     0.127 C 
HETATM   13  C   UNK N   1      37.309  10.861  11.040  0.00  0.00     0.022 C 
HETATM   14  C   UNK N   1      36.986  11.478  12.390  0.00  0.00     0.035 C 
HETATM   15  C   UNK N   1      37.289  12.962  12.250  0.00  0.00     0.162 C 
BRANCH  15  16
HETATM   16  C   UNK N   1      36.259  13.753  13.038  0.00  0.00     0.132 C 
HETATM   17  N   UNK N   1      36.605  14.801  13.698  0.00  0.00    -0.382 N 
HETATM   18  H   UNK N   1      36.442  15.724  13.998  0.00  0.00     0.158 HD
ATOM     19  HN  UNK N   1      37.496  14.549  14.125  1.00  0.00     0.158 HD
BRANCH  16  20
HETATM   20  O   UNK N   1      34.982  13.331  13.090  0.00  0.00    -0.348 OA
HETATM   21  H   UNK N   1      34.557  12.744  13.683  0.00  0.00     0.219 HD
ENDBRANCH  16  20
ENDBRANCH  15  16
ENDBRANCH   9  11
BRANCH   9  22
HETATM   22  O   UNK N   1      37.005  15.573  10.514  0.00  0.00    -0.332 OA
HETATM   23  H   UNK N   1      36.609  16.420  10.578  0.00  0.00     0.220 HD
ENDBRANCH   9  22
ENDBRANCH   4   8
BRANCH   3  24
HETATM   24  C   UNK N   1      31.306  16.558   7.826  0.00  0.00    -0.014 A 
HETATM   25  C   UNK N   1      30.294  17.475   8.113  0.00  0.00     0.030 A 
HETATM   26  C   UNK N   1      29.406  17.833   7.086  0.00  0.00     0.089 A 
HETATM   27  N   UNK N   1      29.619  17.391   5.808  0.00  0.00    -0.368 N 
HETATM   28  C   UNK N   1      30.620  16.509   5.522  0.00  0.00     0.026 A 
ATOM     29  HN  UNK N   1      29.018  17.729   5.056  1.00  0.00     0.165 HD
HETATM   30  C   UNK N   1      31.430  16.067   6.541  0.00  0.00     0.039 A 
BRANCH  28  31
HETATM   31  C   UNK N   1      31.032  16.157   4.103  0.00  0.00     0.092 C 
HETATM   32  C   UNK N   1      29.842  16.369   3.155  0.00  0.00     0.031 C 
HETATM   33  C   UNK N   1      31.401  14.686   3.997  0.00  0.00     0.031 C 
BRANCH  31  34
HETATM   34  C   UNK N   1      32.207  17.031   3.641  0.00  0.00     0.400 C 
HETATM   35  F   UNK N   1      32.160  18.283   4.235  0.00  0.00    -0.170 F 
HETATM   36  F   UNK N   1      32.168  17.195   2.266  0.00  0.00    -0.170 F 
HETATM   37  F   UNK N   1      33.399  16.418   3.984  0.00  0.00    -0.170 F 
ENDBRANCH  31  34
ENDBRANCH  28  31
ENDBRANCH   3  24
TORSDOF 8
ENDMDL
MODEL 2
REMARK VINA RESULT:      -7.6      3.137      5.320
REMARK  8 active torsions:
REMARK  status: ('A' for Active; 'I' for Inactive)
REMARK    1  A    between atoms: C_14  and  C_11 
REMARK    2  A    between atoms: C_12  and  C_15 
REMARK    3  A    between atoms: C_18  and  C_13 
REMARK    4  A    between atoms: O_32  and  C_15 
REMARK    5  A    between atoms: N_29  and  C_16 
REMARK    6  A    between atoms: N_31  and  C_17 
REMARK    7  A    between atoms: O_33  and  C_17 
REMARK    8  A    between atoms: C_19  and  C_18 
ROOT
HETATM    1  C   UNK N   1      38.414  13.417  10.155  0.00  0.00     0.070 C 
HETATM    2  C   UNK N   1      37.219  13.821  10.948  0.00  0.00     0.025 A 
HETATM    3  C   UNK N   1      36.052  14.385  10.393  0.00  0.00     0.041 A 
HETATM    4  C   UNK N   1      35.853  13.777  12.758  0.00  0.00     0.152 A 
HETATM    5  N   UNK N   1      37.086  13.461  12.274  0.00  0.00    -0.339 N 
ATOM      6  HN  UNK N   1      37.820  13.013  12.822  1.00  0.00     0.168 HD
HETATM    7  S   UNK N   1      34.951  14.474  11.615  0.00  0.00    -0.051 SA
ENDROOT
BRANCH   4   8
HETATM    8  N   UNK N   1      35.306  13.361  13.981  0.00  0.00    -0.302 N 
HETATM    9  C   UNK N   1      35.938  13.407  15.101  0.00  0.00     0.221 C 
ATOM     10  HN  UNK N   1      34.351  13.004  13.982  1.00  0.00     0.171 HD
BRANCH   9  11
HETATM   11  N   UNK N   1      35.222  13.120  16.293  0.00  0.00    -0.335 N 
HETATM   12  C   UNK N   1      35.455  13.939  17.452  0.00  0.00     0.127 C 
HETATM   13  C   UNK N   1      35.280  13.026  18.647  0.00  0.00     0.022 C 
HETATM   14  C   UNK N   1      35.331  11.614  18.087  0.00  0.00     0.035 C 
HETATM   15  C   UNK N   1      34.952  11.735  16.620  0.00  0.00     0.162 C 
BRANCH  15  16
HETATM   16  C   UNK N   1      35.779  10.750  15.812  0.00  0.00     0.132 C 
HETATM   17  N   UNK N   1      36.928  10.360  16.236  0.00  0.00    -0.382 N 
HETATM   18  H   UNK N   1      37.601   9.656  16.380  0.00  0.00     0.158 HD
ATOM     19  HN  UNK N   1      37.359  11.203  16.615  1.00  0.00     0.158 HD
BRANCH  16  20
HETATM   20  O   UNK N   1      35.333  10.317  14.618  0.00  0.00    -0.348 OA
HETATM   21  H   UNK N   1      35.255  10.762  13.798  0.00  0.00     0.219 HD
ENDBRANCH  16  20
ENDBRANCH  15  16
ENDBRANCH   9  11
BRANCH   9  22
HETATM   22  O   UNK N   1      37.221  13.813  15.162  0.00  0.00    -0.332 OA
HETATM   23  H   UNK N   1      37.636  14.647  15.063  0.00  0.00     0.220 HD
ENDBRANCH   9  22
ENDBRANCH   4   8
BRANCH   3  24
HETATM   24  C   UNK N   1      35.658  14.471   8.993  0.00  0.00    -0.014 A 
HETATM   25  C   UNK N   1      35.376  13.377   8.174  0.00  0.00     0.030 A 
HETATM   26  C   UNK N   1      34.645  13.597   6.995  0.00  0.00     0.089 A 
HETATM   27  N   UNK N   1      34.115  14.830   6.734  0.00  0.00    -0.368 N 
HETATM   28  C   UNK N   1      34.374  15.898   7.545  0.00  0.00     0.026 A 
ATOM     29  HN  UNK N   1      33.513  14.954   5.919  1.00  0.00     0.165 HD
HETATM   30  C   UNK N   1      35.177  15.718   8.645  0.00  0.00     0.039 A 
BRANCH  28  31
HETATM   31  C   UNK N   1      33.643  17.224   7.424  0.00  0.00     0.092 C 
HETATM   32  C   UNK N   1      33.530  17.615   5.943  0.00  0.00     0.031 C 
HETATM   33  C   UNK N   1      34.431  18.337   8.097  0.00  0.00     0.031 C 
BRANCH  31  34
HETATM   34  C   UNK N   1      32.236  17.133   8.031  0.00  0.00     0.400 C 
HETATM   35  F   UNK N   1      31.839  18.354   8.553  0.00  0.00    -0.170 F 
HETATM   36  F   UNK N   1      32.216  16.192   9.048  0.00  0.00    -0.170 F 
HETATM   37  F   UNK N   1      31.336  16.752   7.052  0.00  0.00    -0.170 F 
ENDBRANCH  31  34
ENDBRANCH  28  31
ENDBRANCH   3  24
TORSDOF 8
ENDMDL
MODEL 3
REMARK VINA RESULT:      -7.5      2.131      3.322
REMARK  8 active torsions:
REMARK  status: ('A' for Active; 'I' for Inactive)
REMARK    1  A    between atoms: C_14  and  C_11 
REMARK    2  A    between atoms: C_12  and  C_15 
REMARK    3  A    between atoms: C_18  and  C_13 
REMARK    4  A    between atoms: O_32  and  C_15 
REMARK    5  A    between atoms: N_29  and  C_16 
REMARK    6  A    between atoms: N_31  and  C_17 
REMARK    7  A    between atoms: O_33  and  C_17 
REMARK    8  A    between atoms: C_19  and  C_18 
ROOT
HETATM    1  C   UNK N   1      34.267  18.265   8.200  0.00  0.00     0.070 C 
HETATM    2  C   UNK N   1      33.672  17.072   8.867  0.00  0.00     0.025 A 
HETATM    3  C   UNK N   1      32.508  16.414   8.423  0.00  0.00     0.041 A 
HETATM    4  C   UNK N   1      33.714  15.240  10.202  0.00  0.00     0.152 A 
HETATM    5  N   UNK N   1      34.355  16.390   9.853  0.00  0.00    -0.339 N 
ATOM      6  HN  UNK N   1      35.231  16.706  10.267  1.00  0.00     0.168 HD
HETATM    7  S   UNK N   1      32.359  15.057   9.345  0.00  0.00    -0.051 SA
ENDROOT
BRANCH   4   8
HETATM    8  N   UNK N   1      34.229  14.208  11.001  0.00  0.00    -0.302 N 
HETATM    9  C   UNK N   1      35.129  14.382  11.904  0.00  0.00     0.221 C 
ATOM     10  HN  UNK N   1      33.868  13.265  10.858  1.00  0.00     0.171 HD
BRANCH   9  11
HETATM   11  N   UNK N   1      35.445  13.295  12.762  0.00  0.00    -0.335 N 
HETATM   12  C   UNK N   1      35.581  13.544  14.171  0.00  0.00     0.127 C 
HETATM   13  C   UNK N   1      36.632  12.574  14.665  0.00  0.00     0.022 C 
HETATM   14  C   UNK N   1      37.333  12.067  13.416  0.00  0.00     0.035 C 
HETATM   15  C   UNK N   1      36.349  12.273  12.275  0.00  0.00     0.162 C 
BRANCH  15  16
HETATM   16  C   UNK N   1      37.115  12.684  11.029  0.00  0.00     0.132 C 
HETATM   17  N   UNK N   1      38.261  13.258  11.127  0.00  0.00    -0.382 N 
HETATM   18  H   UNK N   1      39.191  13.383  10.829  0.00  0.00     0.158 HD
ATOM     19  HN  UNK N   1      38.153  13.911  11.902  1.00  0.00     0.158 HD
BRANCH  16  20
HETATM   20  O   UNK N   1      36.571  12.494   9.813  0.00  0.00    -0.348 OA
HETATM   21  H   UNK N   1      36.756  12.903   8.990  0.00  0.00     0.219 HD
ENDBRANCH  16  20
ENDBRANCH  15  16
ENDBRANCH   9  11
BRANCH   9  22
HETATM   22  O   UNK N   1      35.691  15.590  12.106  0.00  0.00    -0.332 OA
HETATM   23  H   UNK N   1      35.351  16.419  12.378  0.00  0.00     0.220 HD
ENDBRANCH   9  22
ENDBRANCH   4   8
BRANCH   3  24
HETATM   24  C   UNK N   1      31.800  16.567   7.159  0.00  0.00    -0.014 A 
HETATM   25  C   UNK N   1      32.067  15.837   5.999  0.00  0.00     0.030 A 
HETATM   26  C   UNK N   1      31.086  15.796   4.995  0.00  0.00     0.089 A 
HETATM   27  N   UNK N   1      29.854  16.348   5.214  0.00  0.00    -0.368 N 
HETATM   28  C   UNK N   1      29.584  17.046   6.356  0.00  0.00     0.026 A 
ATOM     29  HN  UNK N   1      29.123  16.235   4.511  1.00  0.00     0.165 HD
HETATM   30  C   UNK N   1      30.572  17.185   7.300  0.00  0.00     0.039 A 
BRANCH  28  31
HETATM   31  C   UNK N   1      28.184  17.490   6.742  0.00  0.00     0.092 C 
HETATM   32  C   UNK N   1      28.028  17.426   8.269  0.00  0.00     0.031 C 
HETATM   33  C   UNK N   1      27.140  16.543   6.170  0.00  0.00     0.031 C 
BRANCH  31  34
HETATM   34  C   UNK N   1      27.912  18.924   6.267  0.00  0.00     0.400 C 
HETATM   35  F   UNK N   1      28.188  19.842   7.269  0.00  0.00    -0.170 F 
HETATM   36  F   UNK N   1      26.583  19.061   5.899  0.00  0.00    -0.170 F 
HETATM   37  F   UNK N   1      28.711  19.205   5.173  0.00  0.00    -0.170 F 
ENDBRANCH  31  34
ENDBRANCH  28  31
ENDBRANCH   3  24
TORSDOF 8
ENDMDL
MODEL 4
REMARK VINA RESULT:      -7.4      4.800      9.461
REMARK  8 active torsions:
REMARK  status: ('A' for Active; 'I' for Inactive)
REMARK    1  A    between atoms: C_14  and  C_11 
REMARK    2  A    between atoms: C_12  and  C_15 
REMARK    3  A    between atoms: C_18  and  C_13 
REMARK    4  A    between atoms: O_32  and  C_15 
REMARK    5  A    between atoms: N_29  and  C_16 
REMARK    6  A    between atoms: N_31  and  C_17 
REMARK    7  A    between atoms: O_33  and  C_17 
REMARK    8  A    between atoms: C_19  and  C_18 
ROOT
HETATM    1  C   UNK N   1      36.306  15.040  13.308  0.00  0.00     0.070 C 
HETATM    2  C   UNK N   1      35.738  14.858  11.943  0.00  0.00     0.025 A 
HETATM    3  C   UNK N   1      35.748  13.639  11.235  0.00  0.00     0.041 A 
HETATM    4  C   UNK N   1      34.399  15.398  10.194  0.00  0.00     0.152 A 
HETATM    5  N   UNK N   1      34.955  15.833  11.358  0.00  0.00    -0.339 N 
ATOM      6  HN  UNK N   1      34.810  16.763  11.750  1.00  0.00     0.168 HD
HETATM    7  S   UNK N   1      34.843  13.879   9.879  0.00  0.00    -0.051 SA
ENDROOT
BRANCH   4   8
HETATM    8  N   UNK N   1      33.388  16.039   9.462  0.00  0.00    -0.302 N 
HETATM    9  C   UNK N   1      33.526  17.192   8.907  0.00  0.00     0.221 C 
ATOM     10  HN  UNK N   1      32.491  15.563   9.363  1.00  0.00     0.171 HD
BRANCH   9  11
HETATM   11  N   UNK N   1      32.493  17.659   8.052  0.00  0.00    -0.335 N 
HETATM   12  C   UNK N   1      31.146  17.695   8.552  0.00  0.00     0.127 C 
HETATM   13  C   UNK N   1      30.254  17.419   7.361  0.00  0.00     0.022 C 
HETATM   14  C   UNK N   1      31.172  16.850   6.291  0.00  0.00     0.035 C 
HETATM   15  C   UNK N   1      32.568  17.339   6.641  0.00  0.00     0.162 C 
BRANCH  15  16
HETATM   16  C   UNK N   1      33.571  16.242   6.321  0.00  0.00     0.132 C 
HETATM   17  N   UNK N   1      33.170  15.054   6.037  0.00  0.00    -0.382 N 
HETATM   18  H   UNK N   1      33.230  14.229   5.503  0.00  0.00     0.158 HD
ATOM     19  HN  UNK N   1      32.409  14.879   6.692  1.00  0.00     0.158 HD
BRANCH  16  20
HETATM   20  O   UNK N   1      34.890  16.499   6.384  0.00  0.00    -0.348 OA
HETATM   21  H   UNK N   1      35.443  16.999   5.817  0.00  0.00     0.219 HD
ENDBRANCH  16  20
ENDBRANCH  15  16
ENDBRANCH   9  11
BRANCH   9  22
HETATM   22  O   UNK N   1      34.663  17.901   9.046  0.00  0.00    -0.332 OA
HETATM   23  H   UNK N   1      35.145  18.203   9.790  0.00  0.00     0.220 HD
ENDBRANCH   9  22
ENDBRANCH   4   8
BRANCH   3  24
HETATM   24  C   UNK N   1      36.063  12.303  11.724  0.00  0.00    -0.014 A 
HETATM   25  C   UNK N   1      37.257  11.623  11.479  0.00  0.00     0.030 A 
HETATM   26  C   UNK N   1      37.591  10.540  12.307  0.00  0.00     0.089 A 
HETATM   27  N   UNK N   1      36.827  10.253  13.405  0.00  0.00    -0.368 N 
HETATM   28  C   UNK N   1      35.669  10.929  13.658  0.00  0.00     0.026 A 
ATOM     29  HN  UNK N   1      37.130   9.519  14.047  1.00  0.00     0.165 HD
HETATM   30  C   UNK N   1      35.275  11.921  12.793  0.00  0.00     0.039 A 
BRANCH  28  31
HETATM   31  C   UNK N   1      34.903  10.799  14.963  0.00  0.00     0.092 C 
HETATM   32  C   UNK N   1      35.234   9.451  15.621  0.00  0.00     0.031 C 
HETATM   33  C   UNK N   1      33.404  10.790  14.711  0.00  0.00     0.031 C 
BRANCH  31  34
HETATM   34  C   UNK N   1      35.269  11.935  15.929  0.00  0.00     0.400 C 
HETATM   35  F   UNK N   1      35.155  11.524  17.248  0.00  0.00    -0.170 F 
HETATM   36  F   UNK N   1      34.429  13.018  15.732  0.00  0.00    -0.170 F 
HETATM   37  F   UNK N   1      36.574  12.334  15.697  0.00  0.00    -0.170 F 
ENDBRANCH  31  34
ENDBRANCH  28  31
ENDBRANCH   3  24
TORSDOF 8
ENDMDL
MODEL 5
REMARK VINA RESULT:      -7.3      2.322      2.944
REMARK  8 active torsions:
REMARK  status: ('A' for Active; 'I' for Inactive)
REMARK    1  A    between atoms: C_14  and  C_11 
REMARK    2  A    between atoms: C_12  and  C_15 
REMARK    3  A    between atoms: C_18  and  C_13 
REMARK    4  A    between atoms: O_32  and  C_15 
REMARK    5  A    between atoms: N_29  and  C_16 
REMARK    6  A    between atoms: N_31  and  C_17 
REMARK    7  A    between atoms: O_33  and  C_17 
REMARK    8  A    between atoms: C_19  and  C_18 
ROOT
HETATM    1  C   UNK N   1      34.507  18.242   8.315  0.00  0.00     0.070 C 
HETATM    2  C   UNK N   1      33.712  16.988   8.440  0.00  0.00     0.025 A 
HETATM    3  C   UNK N   1      32.668  16.619   7.569  0.00  0.00     0.041 A 
HETATM    4  C   UNK N   1      33.338  14.862   9.138  0.00  0.00     0.152 A 
HETATM    5  N   UNK N   1      34.096  15.982   9.304  0.00  0.00    -0.339 N 
ATOM      6  HN  UNK N   1      34.854  16.065   9.981  1.00  0.00     0.168 HD
HETATM    7  S   UNK N   1      32.233  15.085   7.983  0.00  0.00    -0.051 SA
ENDROOT
BRANCH   4   8
HETATM    8  N   UNK N   1      33.591  13.596   9.685  0.00  0.00    -0.302 N 
HETATM    9  C   UNK N   1      34.723  12.991   9.598  0.00  0.00     0.221 C 
ATOM     10  HN  UNK N   1      32.833  13.127  10.182  1.00  0.00     0.171 HD
BRANCH   9  11
HETATM   11  N   UNK N   1      34.909  11.792  10.337  0.00  0.00    -0.335 N 
HETATM   12  C   UNK N   1      33.891  10.778  10.275  0.00  0.00     0.127 C 
HETATM   13  C   UNK N   1      33.896  10.103  11.630  0.00  0.00     0.022 C 
HETATM   14  C   UNK N   1      34.672  11.036  12.544  0.00  0.00     0.035 C 
HETATM   15  C   UNK N   1      35.554  11.872  11.631  0.00  0.00     0.162 C 
BRANCH  15  16
HETATM   16  C   UNK N   1      35.636  13.286  12.181  0.00  0.00     0.132 C 
HETATM   17  N   UNK N   1      36.775  13.863  12.333  0.00  0.00    -0.382 N 
HETATM   18  H   UNK N   1      37.355  14.656  12.271  0.00  0.00     0.158 HD
ATOM     19  HN  UNK N   1      37.383  13.132  12.701  1.00  0.00     0.158 HD
BRANCH  16  20
HETATM   20  O   UNK N   1      34.515  13.926  12.561  0.00  0.00    -0.348 OA
HETATM   21  H   UNK N   1      33.626  13.814  12.288  0.00  0.00     0.219 HD
ENDBRANCH  16  20
ENDBRANCH  15  16
ENDBRANCH   9  11
BRANCH   9  22
HETATM   22  O   UNK N   1      35.749  13.526   8.907  0.00  0.00    -0.332 OA
HETATM   23  H   UNK N   1      36.632  13.744   9.134  0.00  0.00     0.220 HD
ENDBRANCH   9  22
ENDBRANCH   4   8
BRANCH   3  24
HETATM   24  C   UNK N   1      32.305  17.202   6.283  0.00  0.00    -0.014 A 
HETATM   25  C   UNK N   1      33.152  17.286   5.177  0.00  0.00     0.030 A 
HETATM   26  C   UNK N   1      32.580  17.501   3.913  0.00  0.00     0.089 A 
HETATM   27  N   UNK N   1      31.220  17.492   3.763  0.00  0.00    -0.368 N 
HETATM   28  C   UNK N   1      30.390  17.390   4.841  0.00  0.00     0.026 A 
ATOM     29  HN  UNK N   1      30.820  17.561   2.826  1.00  0.00     0.165 HD
HETATM   30  C   UNK N   1      30.939  17.287   6.097  0.00  0.00     0.039 A 
BRANCH  28  31
HETATM   31  C   UNK N   1      28.894  17.159   4.714  0.00  0.00     0.092 C 
HETATM   32  C   UNK N   1      28.454  16.077   5.711  0.00  0.00     0.031 C 
HETATM   33  C   UNK N   1      28.545  16.629   3.333  0.00  0.00     0.031 C 
BRANCH  31  34
HETATM   34  C   UNK N   1      28.114  18.451   4.996  0.00  0.00     0.400 C 
HETATM   35  F   UNK N   1      26.885  18.441   4.356  0.00  0.00    -0.170 F 
HETATM   36  F   UNK N   1      28.833  19.549   4.551  0.00  0.00    -0.170 F 
HETATM   37  F   UNK N   1      27.906  18.575   6.358  0.00  0.00    -0.170 F 
ENDBRANCH  31  34
ENDBRANCH  28  31
ENDBRANCH   3  24
TORSDOF 8
ENDMDL
MODEL 6
REMARK VINA RESULT:      -7.3      6.301     10.799
REMARK  8 active torsions:
REMARK  status: ('A' for Active; 'I' for Inactive)
REMARK    1  A    between atoms: C_14  and  C_11 
REMARK    2  A    between atoms: C_12  and  C_15 
REMARK    3  A    between atoms: C_18  and  C_13 
REMARK    4  A    between atoms: O_32  and  C_15 
REMARK    5  A    between atoms: N_29  and  C_16 
REMARK    6  A    between atoms: N_31  and  C_17 
REMARK    7  A    between atoms: O_33  and  C_17 
REMARK    8  A    between atoms: C_19  and  C_18 
ROOT
HETATM    1  C   UNK N   1      27.652  20.539   5.862  0.00  0.00     0.070 C 
HETATM    2  C   UNK N   1      27.236  19.118   5.697  0.00  0.00     0.025 A 
HETATM    3  C   UNK N   1      27.810  18.037   6.396  0.00  0.00     0.041 A 
HETATM    4  C   UNK N   1      25.805  17.458   5.114  0.00  0.00     0.152 A 
HETATM    5  N   UNK N   1      26.094  18.784   4.998  0.00  0.00    -0.339 N 
ATOM      6  HN  UNK N   1      25.535  19.448   4.462  1.00  0.00     0.168 HD
HETATM    7  S   UNK N   1      26.902  16.712   6.034  0.00  0.00    -0.051 SA
ENDROOT
BRANCH   4   8
HETATM    8  N   UNK N   1      24.615  16.827   4.723  0.00  0.00    -0.302 N 
HETATM    9  C   UNK N   1      23.441  17.291   4.974  0.00  0.00     0.221 C 
ATOM     10  HN  UNK N   1      24.684  15.949   4.209  1.00  0.00     0.171 HD
BRANCH   9  11
HETATM   11  N   UNK N   1      22.320  16.654   4.380  0.00  0.00    -0.335 N 
HETATM   12  C   UNK N   1      21.526  17.391   3.435  0.00  0.00     0.127 C 
HETATM   13  C   UNK N   1      20.109  16.889   3.602  0.00  0.00     0.022 C 
HETATM   14  C   UNK N   1      20.098  16.143   4.927  0.00  0.00     0.035 C 
HETATM   15  C   UNK N   1      21.540  15.738   5.186  0.00  0.00     0.162 C 
BRANCH  15  16
HETATM   16  C   UNK N   1      21.824  15.848   6.675  0.00  0.00     0.132 C 
HETATM   17  N   UNK N   1      22.515  14.946   7.277  0.00  0.00    -0.382 N 
HETATM   18  H   UNK N   1      23.203  14.678   7.927  0.00  0.00     0.158 HD
ATOM     19  HN  UNK N   1      22.184  14.067   6.880  1.00  0.00     0.158 HD
BRANCH  16  20
HETATM   20  O   UNK N   1      21.309  16.869   7.384  0.00  0.00    -0.348 OA
HETATM   21  H   UNK N   1      20.420  17.109   7.552  0.00  0.00     0.219 HD
ENDBRANCH  16  20
ENDBRANCH  15  16
ENDBRANCH   9  11
BRANCH   9  22
HETATM   22  O   UNK N   1      23.276  18.415   5.699  0.00  0.00    -0.332 OA
HETATM   23  H   UNK N   1      23.753  19.220   5.754  0.00  0.00     0.220 HD
ENDBRANCH   9  22
ENDBRANCH   4   8
BRANCH   3  24
HETATM   24  C   UNK N   1      28.704  18.067   7.546  0.00  0.00    -0.014 A 
HETATM   25  C   UNK N   1      28.291  18.071   8.880  0.00  0.00     0.030 A 
HETATM   26  C   UNK N   1      29.220  17.711   9.868  0.00  0.00     0.089 A 
HETATM   27  N   UNK N   1      30.455  17.241   9.513  0.00  0.00    -0.368 N 
HETATM   28  C   UNK N   1      30.855  17.219   8.208  0.00  0.00     0.026 A 
ATOM     29  HN  UNK N   1      31.089  16.901  10.237  1.00  0.00     0.165 HD
HETATM   30  C   UNK N   1      29.991  17.670   7.239  0.00  0.00     0.039 A 
BRANCH  28  31
HETATM   31  C   UNK N   1      32.118  16.515   7.742  0.00  0.00     0.092 C 
HETATM   32  C   UNK N   1      31.809  15.682   6.489  0.00  0.00     0.031 C 
HETATM   33  C   UNK N   1      32.608  15.533   8.794  0.00  0.00     0.031 C 
BRANCH  31  34
HETATM   34  C   UNK N   1      33.221  17.530   7.413  0.00  0.00     0.400 C 
HETATM   35  F   UNK N   1      33.041  18.709   8.120  0.00  0.00    -0.170 F 
HETATM   36  F   UNK N   1      33.212  17.824   6.059  0.00  0.00    -0.170 F 
HETATM   37  F   UNK N   1      34.453  16.995   7.745  0.00  0.00    -0.170 F 
ENDBRANCH  31  34
ENDBRANCH  28  31
ENDBRANCH   3  24
TORSDOF 8
ENDMDL
MODEL 7
REMARK VINA RESULT:      -7.2      3.051      4.221
REMARK  8 active torsions:
REMARK  status: ('A' for Active; 'I' for Inactive)
REMARK    1  A    between atoms: C_14  and  C_11 
REMARK    2  A    between atoms: C_12  and  C_15 
REMARK    3  A    between atoms: C_18  and  C_13 
REMARK    4  A    between atoms: O_32  and  C_15 
REMARK    5  A    between atoms: N_29  and  C_16 
REMARK    6  A    between atoms: N_31  and  C_17 
REMARK    7  A    between atoms: O_33  and  C_17 
REMARK    8  A    between atoms: C_19  and  C_18 
ROOT
HETATM    1  C   UNK N   1      30.114  14.934   5.523  0.00  0.00     0.070 C 
HETATM    2  C   UNK N   1      31.133  15.716   6.278  0.00  0.00     0.025 A 
HETATM    3  C   UNK N   1      30.842  16.848   7.066  0.00  0.00     0.041 A 
HETATM    4  C   UNK N   1      33.136  16.023   7.296  0.00  0.00     0.152 A 
HETATM    5  N   UNK N   1      32.422  15.247   6.434  0.00  0.00    -0.339 N 
ATOM      6  HN  UNK N   1      32.793  14.422   5.963  1.00  0.00     0.168 HD
HETATM    7  S   UNK N   1      32.236  17.242   7.849  0.00  0.00    -0.051 SA
ENDROOT
BRANCH   4   8
HETATM    8  N   UNK N   1      34.390  15.719   7.848  0.00  0.00    -0.302 N 
HETATM    9  C   UNK N   1      34.611  14.702   8.605  0.00  0.00     0.221 C 
ATOM     10  HN  UNK N   1      35.171  16.340   7.637  1.00  0.00     0.171 HD
BRANCH   9  11
HETATM   11  N   UNK N   1      35.953  14.405   8.962  0.00  0.00    -0.335 N 
HETATM   12  C   UNK N   1      36.474  13.098   8.665  0.00  0.00     0.127 C 
HETATM   13  C   UNK N   1      37.459  12.783   9.770  0.00  0.00     0.022 C 
HETATM   14  C   UNK N   1      37.165  13.787  10.873  0.00  0.00     0.035 C 
HETATM   15  C   UNK N   1      36.479  14.961  10.192  0.00  0.00     0.162 C 
BRANCH  15  16
HETATM   16  C   UNK N   1      35.405  15.509  11.117  0.00  0.00     0.132 C 
HETATM   17  N   UNK N   1      35.204  16.776  11.205  0.00  0.00    -0.382 N 
HETATM   18  H   UNK N   1      34.601  17.551  11.272  0.00  0.00     0.158 HD
ATOM     19  HN  UNK N   1      36.139  17.182  11.205  1.00  0.00     0.158 HD
BRANCH  16  20
HETATM   20  O   UNK N   1      34.690  14.671  11.889  0.00  0.00    -0.348 OA
HETATM   21  H   UNK N   1      33.824  14.749  12.236  0.00  0.00     0.219 HD
ENDBRANCH  16  20
ENDBRANCH  15  16
ENDBRANCH   9  11
BRANCH   9  22
HETATM   22  O   UNK N   1      33.613  13.874   8.971  0.00  0.00    -0.332 OA
HETATM   23  H   UNK N   1      33.521  12.942   8.976  0.00  0.00     0.220 HD
ENDBRANCH   9  22
ENDBRANCH   4   8
BRANCH   3  24
HETATM   24  C   UNK N   1      29.544  17.342   7.507  0.00  0.00    -0.014 A 
HETATM   25  C   UNK N   1      29.189  17.578   8.836  0.00  0.00     0.030 A 
HETATM   26  C   UNK N   1      28.083  18.402   9.095  0.00  0.00     0.089 A 
HETATM   27  N   UNK N   1      27.459  19.059   8.070  0.00  0.00    -0.368 N 
HETATM   28  C   UNK N   1      27.817  18.844   6.770  0.00  0.00     0.026 A 
ATOM     29  HN  UNK N   1      26.713  19.723   8.281  1.00  0.00     0.165 HD
HETATM   30  C   UNK N   1      28.829  17.956   6.497  0.00  0.00     0.039 A 
BRANCH  28  31
HETATM   31  C   UNK N   1      27.310  19.698   5.621  0.00  0.00     0.092 C 
HETATM   32  C   UNK N   1      28.417  19.849   4.567  0.00  0.00     0.031 C 
HETATM   33  C   UNK N   1      26.983  21.105   6.097  0.00  0.00     0.031 C 
BRANCH  31  34
HETATM   34  C   UNK N   1      26.075  19.062   4.968  0.00  0.00     0.400 C 
HETATM   35  F   UNK N   1      26.224  18.983   3.592  0.00  0.00    -0.170 F 
HETATM   36  F   UNK N   1      24.946  19.816   5.245  0.00  0.00    -0.170 F 
HETATM   37  F   UNK N   1      25.895  17.785   5.471  0.00  0.00    -0.170 F 
ENDBRANCH  31  34
ENDBRANCH  28  31
ENDBRANCH   3  24
TORSDOF 8
ENDMDL
MODEL 8
REMARK VINA RESULT:      -6.8      3.600      5.271
REMARK  8 active torsions:
REMARK  status: ('A' for Active; 'I' for Inactive)
REMARK    1  A    between atoms: C_14  and  C_11 
REMARK    2  A    between atoms: C_12  and  C_15 
REMARK    3  A    between atoms: C_18  and  C_13 
REMARK    4  A    between atoms: O_32  and  C_15 
REMARK    5  A    between atoms: N_29  and  C_16 
REMARK    6  A    between atoms: N_31  and  C_17 
REMARK    7  A    between atoms: O_33  and  C_17 
REMARK    8  A    between atoms: C_19  and  C_18 
ROOT
HETATM    1  C   UNK N   1      29.444  13.412   4.300  0.00  0.00     0.070 C 
HETATM    2  C   UNK N   1      30.087  14.377   5.235  0.00  0.00     0.025 A 
HETATM    3  C   UNK N   1      29.500  15.587   5.655  0.00  0.00     0.041 A 
HETATM    4  C   UNK N   1      31.548  14.990   6.858  0.00  0.00     0.152 A 
HETATM    5  N   UNK N   1      31.227  14.040   5.937  0.00  0.00    -0.339 N 
ATOM      6  HN  UNK N   1      31.762  13.185   5.784  1.00  0.00     0.168 HD
HETATM    7  S   UNK N   1      30.484  16.203   6.823  0.00  0.00    -0.051 SA
ENDROOT
BRANCH   4   8
HETATM    8  N   UNK N   1      32.502  14.872   7.880  0.00  0.00    -0.302 N 
HETATM    9  C   UNK N   1      33.772  14.841   7.674  0.00  0.00     0.221 C 
ATOM     10  HN  UNK N   1      32.169  14.809   8.842  1.00  0.00     0.171 HD
BRANCH   9  11
HETATM   11  N   UNK N   1      34.640  14.892   8.797  0.00  0.00    -0.335 N 
HETATM   12  C   UNK N   1      34.521  13.878   9.809  0.00  0.00     0.127 C 
HETATM   13  C   UNK N   1      34.877  14.553  11.116  0.00  0.00     0.022 C 
HETATM   14  C   UNK N   1      34.812  16.045  10.832  0.00  0.00     0.035 C 
HETATM   15  C   UNK N   1      35.002  16.189   9.330  0.00  0.00     0.162 C 
BRANCH  15  16
HETATM   16  C   UNK N   1      34.120  17.319   8.827  0.00  0.00     0.132 C 
HETATM   17  N   UNK N   1      34.589  18.205   8.022  0.00  0.00    -0.382 N 
HETATM   18  H   UNK N   1      34.499  18.788   7.234  0.00  0.00     0.158 HD
ATOM     19  HN  UNK N   1      35.524  18.403   8.379  1.00  0.00     0.158 HD
BRANCH  16  20
HETATM   20  O   UNK N   1      32.851  17.427   9.263  0.00  0.00    -0.348 OA
HETATM   21  H   UNK N   1      32.495  17.362  10.127  0.00  0.00     0.219 HD
ENDBRANCH  16  20
ENDBRANCH  15  16
ENDBRANCH   9  11
BRANCH   9  22
HETATM   22  O   UNK N   1      34.278  14.863   6.426  0.00  0.00    -0.332 OA
HETATM   23  H   UNK N   1      33.887  14.855   5.574  0.00  0.00     0.220 HD
ENDBRANCH   9  22
ENDBRANCH   4   8
BRANCH   3  24
HETATM   24  C   UNK N   1      28.123  16.037   5.492  0.00  0.00    -0.014 A 
HETATM   25  C   UNK N   1      27.005  15.403   6.037  0.00  0.00     0.030 A 
HETATM   26  C   UNK N   1      25.809  16.130   6.139  0.00  0.00     0.089 A 
HETATM   27  N   UNK N   1      25.786  17.464   5.835  0.00  0.00    -0.368 N 
HETATM   28  C   UNK N   1      26.884  18.091   5.320  0.00  0.00     0.026 A 
ATOM     29  HN  UNK N   1      24.933  18.000   5.997  1.00  0.00     0.165 HD
HETATM   30  C   UNK N   1      28.031  17.363   5.114  0.00  0.00     0.039 A 
BRANCH  28  31
HETATM   31  C   UNK N   1      26.980  19.599   5.168  0.00  0.00     0.092 C 
HETATM   32  C   UNK N   1      25.690  20.134   4.529  0.00  0.00     0.031 C 
HETATM   33  C   UNK N   1      28.109  19.976   4.222  0.00  0.00     0.031 C 
BRANCH  31  34
HETATM   34  C   UNK N   1      27.186  20.275   6.531  0.00  0.00     0.400 C 
HETATM   35  F   UNK N   1      25.990  20.773   7.026  0.00  0.00    -0.170 F 
HETATM   36  F   UNK N   1      28.083  21.324   6.413  0.00  0.00    -0.170 F 
HETATM   37  F   UNK N   1      27.691  19.353   7.430  0.00  0.00    -0.170 F 
ENDBRANCH  31  34
ENDBRANCH  28  31
ENDBRANCH   3  24
TORSDOF 8
ENDMDL
MODEL 9
REMARK VINA RESULT:      -6.7      4.497      9.197
REMARK  8 active torsions:
REMARK  status: ('A' for Active; 'I' for Inactive)
REMARK    1  A    between atoms: C_14  and  C_11 
REMARK    2  A    between atoms: C_12  and  C_15 
REMARK    3  A    between atoms: C_18  and  C_13 
REMARK    4  A    between atoms: O_32  and  C_15 
REMARK    5  A    between atoms: N_29  and  C_16 
REMARK    6  A    between atoms: N_31  and  C_17 
REMARK    7  A    between atoms: O_33  and  C_17 
REMARK    8  A    between atoms: C_19  and  C_18 
ROOT
HETATM    1  C   UNK N   1      33.342  10.431   9.752  0.00  0.00     0.070 C 
HETATM    2  C   UNK N   1      33.463  11.873   9.396  0.00  0.00     0.025 A 
HETATM    3  C   UNK N   1      34.472  12.729   9.881  0.00  0.00     0.041 A 
HETATM    4  C   UNK N   1      33.096  13.699   8.102  0.00  0.00     0.152 A 
HETATM    5  N   UNK N   1      32.710  12.423   8.378  0.00  0.00    -0.339 N 
ATOM      6  HN  UNK N   1      31.958  11.934   7.892  1.00  0.00     0.168 HD
HETATM    7  S   UNK N   1      34.311  14.150   9.064  0.00  0.00    -0.051 SA
ENDROOT
BRANCH   4   8
HETATM    8  N   UNK N   1      32.702  14.469   6.997  0.00  0.00    -0.302 N 
HETATM    9  C   UNK N   1      31.944  15.505   7.079  0.00  0.00     0.221 C 
ATOM     10  HN  UNK N   1      33.038  14.192   6.075  1.00  0.00     0.171 HD
BRANCH   9  11
HETATM   11  N   UNK N   1      31.756  16.300   5.917  0.00  0.00    -0.335 N 
HETATM   12  C   UNK N   1      31.421  15.647   4.681  0.00  0.00     0.127 C 
HETATM   13  C   UNK N   1      32.058  16.478   3.588  0.00  0.00     0.022 C 
HETATM   14  C   UNK N   1      33.065  17.372   4.293  0.00  0.00     0.035 C 
HETATM   15  C   UNK N   1      32.595  17.466   5.736  0.00  0.00     0.162 C 
BRANCH  15  16
HETATM   16  C   UNK N   1      33.808  17.488   6.651  0.00  0.00     0.132 C 
HETATM   17  N   UNK N   1      33.821  18.227   7.702  0.00  0.00    -0.382 N 
HETATM   18  H   UNK N   1      34.039  18.374   8.651  0.00  0.00     0.158 HD
ATOM     19  HN  UNK N   1      33.387  19.100   7.404  1.00  0.00     0.158 HD
BRANCH  16  20
HETATM   20  O   UNK N   1      34.900  16.767   6.336  0.00  0.00    -0.348 OA
HETATM   21  H   UNK N   1      35.808  16.999   6.342  0.00  0.00     0.219 HD
ENDBRANCH  16  20
ENDBRANCH  15  16
ENDBRANCH   9  11
BRANCH   9  22
HETATM   22  O   UNK N   1      31.418  15.893   8.258  0.00  0.00    -0.332 OA
HETATM   23  H   UNK N   1      31.755  16.385   8.981  0.00  0.00     0.220 HD
ENDBRANCH   9  22
ENDBRANCH   4   8
BRANCH   3  24
HETATM   24  C   UNK N   1      35.696  12.384  10.592  0.00  0.00    -0.014 A 
HETATM   25  C   UNK N   1      36.986  12.703  10.164  0.00  0.00     0.030 A 
HETATM   26  C   UNK N   1      38.029  12.666  11.102  0.00  0.00     0.089 A 
HETATM   27  N   UNK N   1      37.757  12.453  12.425  0.00  0.00    -0.368 N 
HETATM   28  C   UNK N   1      36.493  12.159  12.849  0.00  0.00     0.026 A 
ATOM     29  HN  UNK N   1      38.513  12.515  13.108  1.00  0.00     0.165 HD
HETATM   30  C   UNK N   1      35.480  12.086  11.923  0.00  0.00     0.039 A 
BRANCH  28  31
HETATM   31  C   UNK N   1      36.099  12.126  14.316  0.00  0.00     0.092 C 
HETATM   32  C   UNK N   1      37.047  11.192  15.082  0.00  0.00     0.031 C 
HETATM   33  C   UNK N   1      34.704  11.546  14.487  0.00  0.00     0.031 C 
BRANCH  31  34
HETATM   34  C   UNK N   1      36.167  13.530  14.933  0.00  0.00     0.400 C 
HETATM   35  F   UNK N   1      35.907  14.505  13.982  0.00  0.00    -0.170 F 
HETATM   36  F   UNK N   1      37.426  13.758  15.464  0.00  0.00    -0.170 F 
HETATM   37  F   UNK N   1      35.229  13.633  15.945  0.00  0.00    -0.170 F 
ENDBRANCH  31  34
ENDBRANCH  28  31
ENDBRANCH   3  24
TORSDOF 8
ENDMDL
