REMARK  7 active torsions:
REMARK  status: ('A' for Active; 'I' for Inactive)
REMARK    1  A    between atoms: O_2  and  C_3 
REMARK    2  A    between atoms: C_6  and  C_23 
REMARK    3  A    between atoms: C_8  and  C_9 
REMARK       I    between atoms: C_9  and  N_11 
REMARK    4  A    between atoms: N_11  and  C_12 
REMARK    5  A    between atoms: C_12  and  C_13 
REMARK    6  A    between atoms: C_16  and  C_19 
REMARK    7  A    between atoms: C_23  and  C_24 
ROOT
HETATM    1  C   UNK N   1       6.234  -2.501   0.311  0.00  0.00     0.084 A 
HETATM    2  C   UNK N   1       6.460  -3.882   0.363  0.00  0.00     0.038 A 
HETATM    3  C   UNK N   1       5.398  -4.769   0.256  0.00  0.00     0.010 A 
HETATM    4  C   UNK N   1       4.096  -4.303   0.041  0.00  0.00    -0.054 A 
HETATM    5  C   UNK N   1       3.860  -2.929  -0.030  0.00  0.00     0.027 A 
HETATM    6  C   UNK N   1       4.911  -2.020   0.134  0.00  0.00     0.065 A 
ENDROOT
BRANCH   6   7
HETATM    7  C   UNK N   1       4.626  -0.572   0.161  0.00  0.00     0.254 C 
HETATM    8  O   UNK N   1       3.643  -0.110  -0.402  0.00  0.00    -0.268 OA
HETATM    9  N   UNK N   1       5.451   0.222   0.873  0.00  0.00    -0.353 N 
HETATM   10  H   UNK N   1       6.131  -0.219   1.431  0.00  0.00     0.163 HD
BRANCH   9  11
HETATM   11  C   UNK N   1       5.419   1.654   0.883  0.00  0.00     0.161 C 
BRANCH  11  12
HETATM   12  C   UNK N   1       6.810   2.033   0.558  0.00  0.00    -0.041 A 
HETATM   13  C   UNK N   1       7.111   2.488  -0.724  0.00  0.00     0.009 A 
HETATM   14  C   UNK N   1       8.443   2.625  -1.116  0.00  0.00     0.017 A 
HETATM   15  C   UNK N   1       9.478   2.289  -0.232  0.00  0.00     0.047 A 
HETATM   16  C   UNK N   1       9.171   1.849   1.062  0.00  0.00     0.017 A 
HETATM   17  C   UNK N   1       7.840   1.712   1.453  0.00  0.00     0.009 A 
BRANCH  15  18
HETATM   18  C   UNK N   1      10.898   2.376  -0.695  0.00  0.00     0.417 C 
HETATM   19  F   UNK N   1      11.775   1.996   0.306  0.00  0.00    -0.166 F 
HETATM   20  F   UNK N   1      11.179   3.675  -1.073  0.00  0.00    -0.166 F 
HETATM   21  F   UNK N   1      11.073   1.537  -1.781  0.00  0.00    -0.166 F 
ENDBRANCH  15  18
ENDBRANCH  11  12
ENDBRANCH   9  11
ENDBRANCH   6   7
BRANCH   1  22
HETATM   22  O   UNK N   1       7.273  -1.630   0.395  0.00  0.00    -0.355 OA
HETATM   23  C   UNK N   1       8.593  -2.019   0.433  0.00  0.00     0.210 C 
ENDBRANCH   1  22
BRANCH   4  24
HETATM   24  C   UNK N   1       2.929  -5.240  -0.059  0.00  0.00     0.081 C 
BRANCH  24  25
HETATM   25  C   UNK N   1       3.223  -6.681   0.365  0.00  0.00     0.230 A 
HETATM   26  C   UNK N   1       3.977  -7.459  -0.689  0.00  0.00     0.256 A 
HETATM   27  O   UNK N   1       5.109  -7.225  -1.079  0.00  0.00    -0.270 OA
HETATM   28  N   UNK N   1       3.254  -8.480  -1.145  0.00  0.00    -0.271 N 
HETATM   29  C   UNK N   1       2.100  -8.425  -0.487  0.00  0.00     0.368 A 
HETATM   30  H   UNK N   1       3.518  -9.139  -1.827  0.00  0.00     0.174 HD
HETATM   31  O   UNK N   1       1.191  -9.220  -0.666  0.00  0.00    -0.238 OA
HETATM   32  O   UNK N   1       2.035  -7.405   0.392  0.00  0.00    -0.288 OA
ENDBRANCH  24  25
ENDBRANCH   4  24
TORSDOF 7
