REMARK  23 active torsions:
REMARK  status: ('A' for Active; 'I' for Inactive)
REMARK    1  A    between atoms: C_2  and  C_3 
REMARK    2  A    between atoms: C_45  and  C_2 
REMARK    3  A    between atoms: C_3  and  C_4 
REMARK    4  A    between atoms: C_4  and  C_5 
REMARK       I    between atoms: C_5  and  N_7 
REMARK    5  A    between atoms: C_8  and  N_7 
REMARK    6  A    between atoms: C_8  and  C_9 
REMARK    7  A    between atoms: C_8  and  C_42 
REMARK    8  A    between atoms: C_9  and  C_10 
REMARK    9  A    between atoms: C_10  and  C_11 
REMARK   10  A    between atoms: C_11  and  C_12 
REMARK   11  A    between atoms: C_12  and  N_13 
REMARK   12  A    between atoms: N_13  and  C_14 
REMARK   13  A    between atoms: C_14  and  N_16 
REMARK   14  A    between atoms: N_16  and  C_17 
REMARK   15  A    between atoms: C_20  and  C_26 
REMARK   16  A    between atoms: C_21  and  C_23 
REMARK   17  A    between atoms: C_23  and  O_25 
REMARK   18  A    between atoms: C_30  and  O_41 
REMARK   19  A    between atoms: C_38  and  O_40 
REMARK   20  A    between atoms: C_42  and  O_44 
REMARK   21  A    between atoms: C_50  and  O_65 
REMARK   22  A    between atoms: C_54  and  O_64 
REMARK   23  A    between atoms: C_60  and  O_62 
ROOT
HETATM    1  C   UNK N   1       0.212  -0.532   0.200  0.00  0.00     0.182 C 
ENDROOT
BRANCH   1   2
HETATM    2  N   UNK N   1      -1.050  -1.171   0.285  0.00  0.00    -0.347 N 
HETATM    3  C   UNK N   1      -1.326  -2.038   1.285  0.00  0.00     0.218 C 
HETATM    4  O   UNK N   1      -0.699  -2.012   2.332  0.00  0.00    -0.274 OA
HETATM    5  H   UNK N   1      -1.736  -0.980  -0.394  0.00  0.00     0.163 HD
BRANCH   3   6
HETATM    6  C   UNK N   1      -2.293  -3.146   1.044  0.00  0.00     0.103 C 
BRANCH   6   7
HETATM    7  C   UNK N   1      -2.613  -3.386  -0.440  0.00  0.00     0.014 C 
BRANCH   7   8
HETATM    8  C   UNK N   1      -3.027  -2.143  -1.239  0.00  0.00    -0.013 C 
HETATM    9  C   UNK N   1      -3.414  -2.545  -2.647  0.00  0.00     0.010 C 
BRANCH   8  10
HETATM   10  C   UNK N   1      -4.088  -1.199  -0.644  0.00  0.00     0.000 C 
HETATM   11  C   UNK N   1      -3.883   0.293  -0.805  0.00  0.00     0.006 C 
HETATM   12  C   UNK N   1      -4.989   0.920   0.054  0.00  0.00     0.006 C 
HETATM   13  C   UNK N   1      -5.889  -0.230   0.541  0.00  0.00     0.003 C 
HETATM   14  C   UNK N   1      -4.950  -1.431   0.599  0.00  0.00    -0.010 C 
HETATM   15  C   UNK N   1      -7.094  -0.355  -0.414  0.00  0.00     0.024 C 
HETATM   16  C   UNK N   1      -5.739  -2.745   0.553  0.00  0.00     0.127 C 
HETATM   17  C   UNK N   1      -4.209  -1.278   1.922  0.00  0.00     0.018 C 
HETATM   18  C   UNK N   1      -6.455  -2.825  -0.776  0.00  0.00     0.038 C 
HETATM   19  C   UNK N   1      -7.576  -1.800  -0.738  0.00  0.00     0.003 C 
HETATM   20  C   UNK N   1      -8.822  -2.335  -0.001  0.00  0.00    -0.036 C 
HETATM   21  C   UNK N   1      -9.949  -1.270   0.052  0.00  0.00    -0.001 C 
HETATM   22  C   UNK N   1      -9.265  -3.580  -0.792  0.00  0.00     0.012 C 
HETATM   23  C   UNK N   1      -8.516  -2.728   1.442  0.00  0.00     0.016 C 
HETATM   24  C   UNK N   1      -9.581   0.130  -0.445  0.00  0.00     0.037 C 
HETATM   25  C   UNK N   1     -11.326  -1.758  -0.399  0.00  0.00     0.037 C 
HETATM   26  C   UNK N   1      -8.234   0.503   0.156  0.00  0.00     0.123 C 
HETATM   27  C   UNK N   1     -11.578  -3.143   0.192  0.00  0.00     0.118 C 
HETATM   28  C   UNK N   1     -10.592  -4.185  -0.338  0.00  0.00     0.032 C 
BRANCH  16  29
HETATM   29  O   UNK N   1      -4.974  -3.889   0.755  0.00  0.00    -0.395 OA
HETATM   30  H   UNK N   1      -5.399  -4.750   0.895  0.00  0.00     0.210 HD
ENDBRANCH  16  29
BRANCH  26  31
HETATM   31  O   UNK N   1      -7.970   1.863  -0.003  0.00  0.00    -0.395 OA
HETATM   32  H   UNK N   1      -7.059   2.177  -0.113  0.00  0.00     0.210 HD
ENDBRANCH  26  31
BRANCH  27  33
HETATM   33  O   UNK N   1     -12.876  -3.559  -0.088  0.00  0.00    -0.396 OA
HETATM   34  H   UNK N   1     -13.580  -2.921  -0.283  0.00  0.00     0.210 HD
ENDBRANCH  27  33
ENDBRANCH   8  10
ENDBRANCH   7   8
ENDBRANCH   6   7
ENDBRANCH   3   6
ENDBRANCH   1   2
BRANCH   1  35
HETATM   35  C   UNK N   1       1.073  -1.479  -0.617  0.00  0.00     0.036 C 
BRANCH  35  36
HETATM   36  C   UNK N   1       1.436  -2.728   0.212  0.00  0.00     0.004 C 
BRANCH  36  37
HETATM   37  C   UNK N   1       1.941  -2.492   1.669  0.00  0.00     0.020 C 
BRANCH  37  38
HETATM   38  C   UNK N   1       2.375  -1.060   2.097  0.00  0.00     0.122 C 
BRANCH  38  39
HETATM   39  N   UNK N   1       2.900  -0.298   0.986  0.00  0.00    -0.367 N 
HETATM   40  H   UNK N   1       2.650   0.646   0.863  0.00  0.00     0.161 HD
BRANCH  39  41
HETATM   41  C   UNK N   1       3.774  -0.930   0.086  0.00  0.00     0.172 C 
HETATM   42  S   UNK N   1       4.124  -0.292  -1.160  0.00  0.00    -0.041 SA
BRANCH  41  43
HETATM   43  N   UNK N   1       4.450  -2.101   0.529  0.00  0.00    -0.333 N 
HETATM   44  H   UNK N   1       4.027  -2.988   0.472  0.00  0.00     0.168 HD
BRANCH  43  45
HETATM   45  C   UNK N   1       5.738  -1.943   1.048  0.00  0.00     0.035 C 
HETATM   46  C   UNK N   1       6.050  -0.667   1.515  0.00  0.00     0.030 C 
HETATM   47  C   UNK N   1       7.160  -0.030   1.034  0.00  0.00     0.011 C 
HETATM   48  C   UNK N   1       7.984  -0.661   0.091  0.00  0.00    -0.028 C 
HETATM   49  C   UNK N   1       7.803  -2.060  -0.147  0.00  0.00     0.047 C 
HETATM   50  C   UNK N   1       6.675  -2.676   0.369  0.00  0.00     0.048 C 
BRANCH  48  51
HETATM   51  C   UNK N   1       8.954   0.221  -0.676  0.00  0.00     0.091 A 
HETATM   52  C   UNK N   1      10.374  -0.001  -0.246  0.00  0.00    -0.011 A 
HETATM   53  C   UNK N   1      10.942  -1.272  -0.350  0.00  0.00     0.014 A 
HETATM   54  C   UNK N   1      11.155   1.067   0.234  0.00  0.00     0.086 A 
HETATM   55  C   UNK N   1      12.264  -1.499  -0.003  0.00  0.00     0.037 A 
HETATM   56  C   UNK N   1      13.041  -0.445   0.462  0.00  0.00     0.068 A 
HETATM   57  C   UNK N   1      12.488   0.835   0.588  0.00  0.00     0.074 A 
HETATM   58  O   UNK N   1      10.648   2.317   0.342  0.00  0.00    -0.309 OA
HETATM   59  C   UNK N   1       9.405   2.660  -0.069  0.00  0.00     0.086 A 
HETATM   60  C   UNK N   1       8.537   1.695  -0.613  0.00  0.00    -0.011 A 
HETATM   61  C   UNK N   1       8.987   3.991   0.050  0.00  0.00     0.074 A 
HETATM   62  C   UNK N   1       7.258   2.094  -1.051  0.00  0.00     0.014 A 
HETATM   63  C   UNK N   1       6.847   3.426  -0.927  0.00  0.00     0.037 A 
HETATM   64  C   UNK N   1       7.710   4.373  -0.371  0.00  0.00     0.068 A 
BRANCH  56  65
HETATM   65  O   UNK N   1      14.323  -0.660   0.785  0.00  0.00    -0.361 OA
HETATM   66  H   UNK N   1      14.641  -1.512   1.011  0.00  0.00     0.217 HD
ENDBRANCH  56  65
BRANCH  64  67
HETATM   67  O   UNK N   1       7.315   5.651  -0.241  0.00  0.00    -0.361 OA
HETATM   68  H   UNK N   1       7.948   6.335  -0.151  0.00  0.00     0.217 HD
ENDBRANCH  64  67
ENDBRANCH  48  51
BRANCH  49  69
HETATM   69  C   UNK N   1       8.574  -2.918  -1.073  0.00  0.00     0.176 C 
HETATM   70  O   UNK N   1       8.514  -4.129  -0.970  0.00  0.00    -0.646 OA
BRANCH  69  71
HETATM   71  O   UNK N   1       9.261  -2.379  -2.098  0.00  0.00    -0.773 OA
HETATM   72  H   UNK N   1       9.825  -2.605  -2.812  0.00  0.00     0.167 HD
ENDBRANCH  69  71
ENDBRANCH  49  69
ENDBRANCH  43  45
ENDBRANCH  41  43
ENDBRANCH  39  41
ENDBRANCH  38  39
ENDBRANCH  37  38
ENDBRANCH  36  37
ENDBRANCH  35  36
ENDBRANCH   1  35
BRANCH   1  73
HETATM   73  C   UNK N   1       0.158   0.841  -0.386  0.00  0.00     0.163 C 
HETATM   74  O   UNK N   1       0.568   1.786   0.268  0.00  0.00    -0.648 OA
BRANCH  73  75
HETATM   75  O   UNK N   1      -0.286   1.039  -1.641  0.00  0.00    -0.775 OA
HETATM   76  H   UNK N   1      -0.321   1.376  -2.515  0.00  0.00     0.167 HD
ENDBRANCH  73  75
ENDBRANCH   1  73
TORSDOF 23
