REMARK  4 active torsions:
REMARK  status: ('A' for Active; 'I' for Inactive)
REMARK    1  A    between atoms: C_22  and  C_3 
REMARK    2  A    between atoms: O_26  and  C_4 
REMARK    3  A    between atoms: C_21  and  C_18 
REMARK    4  A    between atoms: O_26  and  C_21 
ROOT
HETATM    1  C   UNK N   1       6.151   3.246  -0.323  0.00  0.00     0.001 A 
HETATM    2  C   UNK N   1       6.233   1.841  -0.430  0.00  0.00     0.002 A 
HETATM    3  C   UNK N   1      -2.159   2.003  -0.988  0.00  0.00     0.031 C 
HETATM    4  C   UNK N   1       4.914   3.870  -0.095  0.00  0.00     0.014 A 
HETATM    5  C   UNK N   1       5.079   1.048  -0.309  0.00  0.00     0.031 A 
HETATM    6  C   UNK N   1       1.778   4.707   0.352  0.00  0.00     0.072 C 
HETATM    7  C   UNK N   1      -1.089   0.892  -1.106  0.00  0.00     0.018 C 
HETATM    8  C   UNK N   1      -1.696   3.191  -0.126  0.00  0.00     0.273 C 
HETATM    9  C   UNK N   1       0.230   4.536   0.452  0.00  0.00     0.278 C 
HETATM   10  C   UNK N   1       0.744  -0.380   0.050  0.00  0.00     0.022 C 
HETATM   11  C   UNK N   1       3.792   3.057   0.036  0.00  0.00    -0.001 A 
HETATM   12  C   UNK N   1       2.474   3.377   0.247  0.00  0.00    -0.019 A 
HETATM   13  C   UNK N   1       3.859   1.678  -0.063  0.00  0.00     0.051 A 
HETATM   14  C   UNK N   1       2.086  -0.221   0.029  0.00  0.00     0.112 C 
HETATM   15  C   UNK N   1       1.800   2.188   0.289  0.00  0.00     0.059 A 
HETATM   16  C   UNK N   1       0.353   2.125   0.556  0.00  0.00     0.285 C 
HETATM   17  C   UNK N   1      -0.284   0.740   0.196  0.00  0.00     0.016 C 
HETATM   18  N   UNK N   1      -0.242   3.274  -0.160  0.00  0.00     0.100 N 
HETATM   19  N   UNK N   1       2.615   1.136   0.084  0.00  0.00    -0.307 N 
ENDROOT
BRANCH  14  20
HETATM   20  C   UNK N   1       2.968  -1.446  -0.055  0.00  0.00     0.310 C 
HETATM   21  O   UNK N   1       4.152  -1.343   0.198  0.00  0.00    -0.258 OA
BRANCH  20  22
HETATM   22  O   UNK N   1       2.505  -2.693  -0.360  0.00  0.00    -0.317 OA
BRANCH  22  23
HETATM   23  C   UNK N   1       1.233  -3.018  -0.770  0.00  0.00     0.175 C 
HETATM   24  C   UNK N   1       0.684  -4.120   0.113  0.00  0.00     0.034 C 
ENDBRANCH  22  23
ENDBRANCH  20  22
ENDBRANCH  14  20
BRANCH  17  25
HETATM   25  C   UNK N   1      -1.246   0.339   1.334  0.00  0.00     0.011 C 
HETATM   26  C   UNK N   1      -1.936  -1.002   1.110  0.00  0.00     0.006 C 
ENDBRANCH  17  25
TORSDOF 4
