MODEL 1
REMARK VINA RESULT:      -4.2      0.000      0.000
REMARK  4 active torsions:
REMARK  status: ('A' for Active; 'I' for Inactive)
REMARK    1  A    between atoms: C_2  and  C_4 
REMARK    2  A    between atoms: C_2  and  N_9 
REMARK    3  A    between atoms: C_4  and  S_5 
REMARK    4  A    between atoms: S_5  and  O_8 
ROOT
HETATM    1  C   UNK N   1      42.954  21.199   0.880  0.00  0.00     0.035 C 
HETATM    2  C   UNK N   1      42.155  21.755   2.054  0.00  0.00     0.052 C 
HETATM    3  C   UNK N   1      40.725  21.959   1.572  0.00  0.00     0.035 C 
ENDROOT
BRANCH   2   4
HETATM    4  C   UNK N   1      42.633  23.168   2.423  0.00  0.00     0.182 C 
BRANCH   4   5
HETATM    5  S   UNK N   1      44.422  23.388   2.694  0.00  0.00     0.096 S 
HETATM    6  O   UNK N   1      45.053  22.505   3.780  0.00  0.00    -0.601 OA
HETATM    7  O   UNK N   1      44.968  24.792   2.993  0.00  0.00    -0.601 OA
BRANCH   5   8
HETATM    8  O   UNK N   1      43.469  23.848   4.045  0.00  0.00    -0.296 OA
HETATM    9  H   UNK N   1      42.570  24.045   4.352  0.00  0.00     0.232 HD
ENDBRANCH   5   8
ENDBRANCH   4   5
ENDBRANCH   2   4
BRANCH   2  10
HETATM   10  N   UNK N   1      42.171  20.846   3.228  0.00  0.00    -0.126 NA
HETATM   11 Cl   UNK N   1      40.619  20.086   3.509  0.00  0.00    -0.004 Cl
HETATM   12 Cl   UNK N   1      43.310  19.525   3.065  0.00  0.00    -0.004 Cl
ENDBRANCH   2  10
TORSDOF 4
ENDMDL
MODEL 2
REMARK VINA RESULT:      -4.1     11.637     12.203
REMARK  4 active torsions:
REMARK  status: ('A' for Active; 'I' for Inactive)
REMARK    1  A    between atoms: C_2  and  C_4 
REMARK    2  A    between atoms: C_2  and  N_9 
REMARK    3  A    between atoms: C_4  and  S_5 
REMARK    4  A    between atoms: S_5  and  O_8 
ROOT
HETATM    1  C   UNK N   1      32.922  15.314   7.272  0.00  0.00     0.035 C 
HETATM    2  C   UNK N   1      34.215  15.913   7.815  0.00  0.00     0.052 C 
HETATM    3  C   UNK N   1      35.298  14.853   7.673  0.00  0.00     0.035 C 
ENDROOT
BRANCH   2   4
HETATM    4  C   UNK N   1      34.117  16.149   9.330  0.00  0.00     0.182 C 
BRANCH   4   5
HETATM    5  S   UNK N   1      35.444  15.443  10.363  0.00  0.00     0.096 S 
HETATM    6  O   UNK N   1      35.023  14.950  11.754  0.00  0.00    -0.601 OA
HETATM    7  O   UNK N   1      36.709  16.272  10.628  0.00  0.00    -0.601 OA
BRANCH   5   8
HETATM    8  O   UNK N   1      34.780  16.890  11.005  0.00  0.00    -0.296 OA
HETATM    9  H   UNK N   1      34.961  17.817  11.225  0.00  0.00     0.232 HD
ENDBRANCH   5   8
ENDBRANCH   4   5
ENDBRANCH   2   4
BRANCH   2  10
HETATM   10  N   UNK N   1      34.613  17.147   7.092  0.00  0.00    -0.126 NA
HETATM   11 Cl   UNK N   1      33.531  17.524   5.767  0.00  0.00    -0.004 Cl
HETATM   12 Cl   UNK N   1      34.615  18.574   8.107  0.00  0.00    -0.004 Cl
ENDBRANCH   2  10
TORSDOF 4
ENDMDL
MODEL 3
REMARK VINA RESULT:      -4.1     15.816     16.322
REMARK  4 active torsions:
REMARK  status: ('A' for Active; 'I' for Inactive)
REMARK    1  A    between atoms: C_2  and  C_4 
REMARK    2  A    between atoms: C_2  and  N_9 
REMARK    3  A    between atoms: C_4  and  S_5 
REMARK    4  A    between atoms: S_5  and  O_8 
ROOT
HETATM    1  C   UNK N   1      36.874  14.182  15.452  0.00  0.00     0.035 C 
HETATM    2  C   UNK N   1      35.994  13.405  14.477  0.00  0.00     0.052 C 
HETATM    3  C   UNK N   1      36.738  12.128  14.115  0.00  0.00     0.035 C 
ENDROOT
BRANCH   2   4
HETATM    4  C   UNK N   1      35.861  14.155  13.142  0.00  0.00     0.182 C 
BRANCH   4   5
HETATM    5  S   UNK N   1      35.742  13.137  11.634  0.00  0.00     0.096 S 
HETATM    6  O   UNK N   1      35.537  13.904  10.319  0.00  0.00    -0.601 OA
HETATM    7  O   UNK N   1      34.704  12.007  11.571  0.00  0.00    -0.601 OA
BRANCH   5   8
HETATM    8  O   UNK N   1      34.292  13.980  12.001  0.00  0.00    -0.296 OA
HETATM    9  H   UNK N   1      33.512  14.418  11.626  0.00  0.00     0.232 HD
ENDBRANCH   5   8
ENDBRANCH   4   5
ENDBRANCH   2   4
BRANCH   2  10
HETATM   10  N   UNK N   1      34.667  13.075  15.055  0.00  0.00    -0.126 NA
HETATM   11 Cl   UNK N   1      34.208  11.410  14.770  0.00  0.00    -0.004 Cl
HETATM   12 Cl   UNK N   1      34.599  13.283  16.794  0.00  0.00    -0.004 Cl
ENDBRANCH   2  10
TORSDOF 4
ENDMDL
MODEL 4
REMARK VINA RESULT:      -4.0     12.178     12.977
REMARK  4 active torsions:
REMARK  status: ('A' for Active; 'I' for Inactive)
REMARK    1  A    between atoms: C_2  and  C_4 
REMARK    2  A    between atoms: C_2  and  N_9 
REMARK    3  A    between atoms: C_4  and  S_5 
REMARK    4  A    between atoms: S_5  and  O_8 
ROOT
HETATM    1  C   UNK N   1      30.421  18.336   8.890  0.00  0.00     0.035 C 
HETATM    2  C   UNK N   1      31.417  17.499   8.094  0.00  0.00     0.052 C 
HETATM    3  C   UNK N   1      31.598  16.183   8.837  0.00  0.00     0.035 C 
ENDROOT
BRANCH   2   4
HETATM    4  C   UNK N   1      32.814  18.139   8.117  0.00  0.00     0.182 C 
BRANCH   4   5
HETATM    5  S   UNK N   1      34.186  17.104   8.726  0.00  0.00     0.096 S 
HETATM    6  O   UNK N   1      35.292  17.838   9.496  0.00  0.00    -0.601 OA
HETATM    7  O   UNK N   1      34.950  16.213   7.735  0.00  0.00    -0.601 OA
BRANCH   5   8
HETATM    8  O   UNK N   1      34.671  18.245   7.539  0.00  0.00    -0.296 OA
HETATM    9  H   UNK N   1      34.362  18.916   6.910  0.00  0.00     0.232 HD
ENDBRANCH   5   8
ENDBRANCH   4   5
ENDBRANCH   2   4
BRANCH   2  10
HETATM   10  N   UNK N   1      30.955  17.242   6.707  0.00  0.00    -0.126 NA
HETATM   11 Cl   UNK N   1      31.108  15.558   6.251  0.00  0.00    -0.004 Cl
HETATM   12 Cl   UNK N   1      29.266  17.636   6.455  0.00  0.00    -0.004 Cl
ENDBRANCH   2  10
TORSDOF 4
ENDMDL
MODEL 5
REMARK VINA RESULT:      -3.9     17.617     18.411
REMARK  4 active torsions:
REMARK  status: ('A' for Active; 'I' for Inactive)
REMARK    1  A    between atoms: C_2  and  C_4 
REMARK    2  A    between atoms: C_2  and  N_9 
REMARK    3  A    between atoms: C_4  and  S_5 
REMARK    4  A    between atoms: S_5  and  O_8 
ROOT
HETATM    1  C   UNK N   1      27.622  26.229  -5.216  0.00  0.00     0.035 C 
HETATM    2  C   UNK N   1      26.244  26.126  -4.570  0.00  0.00     0.052 C 
HETATM    3  C   UNK N   1      25.223  26.565  -5.611  0.00  0.00     0.035 C 
ENDROOT
BRANCH   2   4
HETATM    4  C   UNK N   1      26.091  27.153  -3.438  0.00  0.00     0.182 C 
BRANCH   4   5
HETATM    5  S   UNK N   1      27.389  28.426  -3.298  0.00  0.00     0.096 S 
HETATM    6  O   UNK N   1      27.440  29.192  -1.968  0.00  0.00    -0.601 OA
HETATM    7  O   UNK N   1      27.478  29.527  -4.365  0.00  0.00    -0.601 OA
BRANCH   5   8
HETATM    8  O   UNK N   1      25.798  29.071  -3.262  0.00  0.00    -0.296 OA
HETATM    9  H   UNK N   1      25.267  29.879  -3.343  0.00  0.00     0.232 HD
ENDBRANCH   5   8
ENDBRANCH   4   5
ENDBRANCH   2   4
BRANCH   2  10
HETATM   10  N   UNK N   1      25.940  24.749  -4.107  0.00  0.00    -0.126 NA
HETATM   11 Cl   UNK N   1      25.799  23.612  -5.432  0.00  0.00    -0.004 Cl
HETATM   12 Cl   UNK N   1      27.174  24.084  -3.056  0.00  0.00    -0.004 Cl
ENDBRANCH   2  10
TORSDOF 4
ENDMDL
MODEL 6
REMARK VINA RESULT:      -3.7     11.748     12.209
REMARK  4 active torsions:
REMARK  status: ('A' for Active; 'I' for Inactive)
REMARK    1  A    between atoms: C_2  and  C_4 
REMARK    2  A    between atoms: C_2  and  N_9 
REMARK    3  A    between atoms: C_4  and  S_5 
REMARK    4  A    between atoms: S_5  and  O_8 
ROOT
HETATM    1  C   UNK N   1      31.163  17.146   6.427  0.00  0.00     0.035 C 
HETATM    2  C   UNK N   1      32.228  16.054   6.413  0.00  0.00     0.052 C 
HETATM    3  C   UNK N   1      31.503  14.718   6.340  0.00  0.00     0.035 C 
ENDROOT
BRANCH   2   4
HETATM    4  C   UNK N   1      32.978  16.003   7.753  0.00  0.00     0.182 C 
BRANCH   4   5
HETATM    5  S   UNK N   1      33.777  17.544   8.310  0.00  0.00     0.096 S 
HETATM    6  O   UNK N   1      34.595  18.299   7.252  0.00  0.00    -0.601 OA
HETATM    7  O   UNK N   1      34.699  17.509   9.538  0.00  0.00    -0.601 OA
BRANCH   5   8
HETATM    8  O   UNK N   1      34.896  16.320   7.867  0.00  0.00    -0.296 OA
HETATM    9  H   UNK N   1      35.779  15.952   8.035  0.00  0.00     0.232 HD
ENDBRANCH   5   8
ENDBRANCH   4   5
ENDBRANCH   2   4
BRANCH   2  10
HETATM   10  N   UNK N   1      33.161  16.191   5.266  0.00  0.00    -0.126 NA
HETATM   11 Cl   UNK N   1      33.020  14.870   4.126  0.00  0.00    -0.004 Cl
HETATM   12 Cl   UNK N   1      32.892  17.645   4.325  0.00  0.00    -0.004 Cl
ENDBRANCH   2  10
TORSDOF 4
ENDMDL
MODEL 7
REMARK VINA RESULT:      -3.7     15.874     16.381
REMARK  4 active torsions:
REMARK  status: ('A' for Active; 'I' for Inactive)
REMARK    1  A    between atoms: C_2  and  C_4 
REMARK    2  A    between atoms: C_2  and  N_9 
REMARK    3  A    between atoms: C_4  and  S_5 
REMARK    4  A    between atoms: S_5  and  O_8 
ROOT
HETATM    1  C   UNK N   1      34.684  12.884  15.984  0.00  0.00     0.035 C 
HETATM    2  C   UNK N   1      35.455  12.531  14.716  0.00  0.00     0.052 C 
HETATM    3  C   UNK N   1      36.795  11.952  15.148  0.00  0.00     0.035 C 
ENDROOT
BRANCH   2   4
HETATM    4  C   UNK N   1      35.829  13.797  13.930  0.00  0.00     0.182 C 
BRANCH   4   5
HETATM    5  S   UNK N   1      35.366  13.840  12.167  0.00  0.00     0.096 S 
HETATM    6  O   UNK N   1      36.529  13.803  11.165  0.00  0.00    -0.601 OA
HETATM    7  O   UNK N   1      34.470  14.977  11.654  0.00  0.00    -0.601 OA
BRANCH   5   8
HETATM    8  O   UNK N   1      36.243  15.226  12.673  0.00  0.00    -0.296 OA
HETATM    9  H   UNK N   1      36.204  16.043  13.196  0.00  0.00     0.232 HD
ENDBRANCH   5   8
ENDBRANCH   4   5
ENDBRANCH   2   4
BRANCH   2  10
HETATM   10  N   UNK N   1      34.727  11.554  13.867  0.00  0.00    -0.126 NA
HETATM   11 Cl   UNK N   1      35.765  10.268  13.285  0.00  0.00    -0.004 Cl
HETATM   12 Cl   UNK N   1      33.419  10.747  14.708  0.00  0.00    -0.004 Cl
ENDBRANCH   2  10
TORSDOF 4
ENDMDL
MODEL 8
REMARK VINA RESULT:      -3.6      1.666      2.157
REMARK  4 active torsions:
REMARK  status: ('A' for Active; 'I' for Inactive)
REMARK    1  A    between atoms: C_2  and  C_4 
REMARK    2  A    between atoms: C_2  and  N_9 
REMARK    3  A    between atoms: C_4  and  S_5 
REMARK    4  A    between atoms: S_5  and  O_8 
ROOT
HETATM    1  C   UNK N   1      43.299  20.029   0.676  0.00  0.00     0.035 C 
HETATM    2  C   UNK N   1      43.260  20.488   2.130  0.00  0.00     0.052 C 
HETATM    3  C   UNK N   1      41.872  21.057   2.387  0.00  0.00     0.035 C 
ENDROOT
BRANCH   2   4
HETATM    4  C   UNK N   1      44.202  21.680   2.355  0.00  0.00     0.182 C 
BRANCH   4   5
HETATM    5  S   UNK N   1      43.704  22.899   3.617  0.00  0.00     0.096 S 
HETATM    6  O   UNK N   1      44.261  24.319   3.438  0.00  0.00    -0.601 OA
HETATM    7  O   UNK N   1      43.948  22.587   5.100  0.00  0.00    -0.601 OA
BRANCH   5   8
HETATM    8  O   UNK N   1      45.387  22.563   3.625  0.00  0.00    -0.296 OA
HETATM    9  H   UNK N   1      46.261  22.891   3.890  0.00  0.00     0.232 HD
ENDBRANCH   5   8
ENDBRANCH   4   5
ENDBRANCH   2   4
BRANCH   2  10
HETATM   10  N   UNK N   1      43.540  19.380   3.078  0.00  0.00    -0.126 NA
HETATM   11 Cl   UNK N   1      42.689  17.908   2.659  0.00  0.00    -0.004 Cl
HETATM   12 Cl   UNK N   1      45.233  18.934   3.140  0.00  0.00    -0.004 Cl
ENDBRANCH   2  10
TORSDOF 4
ENDMDL
MODEL 9
REMARK VINA RESULT:      -3.6     16.512     16.938
REMARK  4 active torsions:
REMARK  status: ('A' for Active; 'I' for Inactive)
REMARK    1  A    between atoms: C_2  and  C_4 
REMARK    2  A    between atoms: C_2  and  N_9 
REMARK    3  A    between atoms: C_4  and  S_5 
REMARK    4  A    between atoms: S_5  and  O_8 
ROOT
HETATM    1  C   UNK N   1      37.116  11.242  14.704  0.00  0.00     0.035 C 
HETATM    2  C   UNK N   1      35.885  12.004  15.186  0.00  0.00     0.052 C 
HETATM    3  C   UNK N   1      34.664  11.294  14.622  0.00  0.00     0.035 C 
ENDROOT
BRANCH   2   4
HETATM    4  C   UNK N   1      35.828  13.406  14.560  0.00  0.00     0.182 C 
BRANCH   4   5
HETATM    5  S   UNK N   1      35.624  13.493  12.750  0.00  0.00     0.096 S 
HETATM    6  O   UNK N   1      36.919  13.466  11.925  0.00  0.00    -0.601 OA
HETATM    7  O   UNK N   1      34.819  14.650  12.141  0.00  0.00    -0.601 OA
BRANCH   5   8
HETATM    8  O   UNK N   1      36.429  14.858  13.410  0.00  0.00    -0.296 OA
HETATM    9  H   UNK N   1      36.941  15.190  14.164  0.00  0.00     0.232 HD
ENDBRANCH   5   8
ENDBRANCH   4   5
ENDBRANCH   2   4
BRANCH   2  10
HETATM   10  N   UNK N   1      35.802  12.061  16.668  0.00  0.00    -0.126 NA
HETATM   11 Cl   UNK N   1      34.829  13.403  17.233  0.00  0.00    -0.004 Cl
HETATM   12 Cl   UNK N   1      35.076  10.633  17.376  0.00  0.00    -0.004 Cl
ENDBRANCH   2  10
TORSDOF 4
ENDMDL
