MODEL 1
REMARK VINA RESULT:      -7.4      0.000      0.000
REMARK  2 active torsions:
REMARK  status: ('A' for Active; 'I' for Inactive)
REMARK    1  A    between atoms: C_9  and  C_13 
REMARK    2  A    between atoms: O_21  and  C_14 
ROOT
HETATM    1  C   UNK N   1      32.392  16.162   3.542  0.00  0.00     0.026 A 
HETATM    2  C   UNK N   1      33.064  17.262   4.113  0.00  0.00     0.040 A 
HETATM    3  C   UNK N   1      32.421  14.975   5.685  0.00  0.00     0.040 A 
HETATM    4  C   UNK N   1      32.070  15.025   4.324  0.00  0.00     0.035 A 
HETATM    5  C   UNK N   1      33.083  16.074   6.216  0.00  0.00     0.029 A 
HETATM    6  C   UNK N   1      33.395  17.184   5.463  0.00  0.00     0.089 A 
HETATM    7  C   UNK N   1      33.567  16.330   7.463  0.00  0.00     0.085 A 
HETATM    8  C   UNK N   1      34.142  17.565   7.420  0.00  0.00     0.154 A 
HETATM    9  C   UNK N   1      34.143  16.067   9.710  0.00  0.00     0.106 A 
HETATM   10  C   UNK N   1      34.743  18.078   8.557  0.00  0.00     0.178 A 
HETATM   11 Cl   UNK N   1      31.235  13.670   3.599  0.00  0.00    -0.084 Cl
HETATM   12  N   UNK N   1      33.559  15.568   8.578  0.00  0.00    -0.341 N 
ATOM     13  HN  UNK N   1      33.128  14.644   8.575  1.00  0.00     0.167 HD
HETATM   14  N   UNK N   1      34.744  17.307   9.688  0.00  0.00    -0.323 N 
ATOM     15  HN  UNK N   1      35.199  17.657  10.531  1.00  0.00     0.169 HD
HETATM   16  O   UNK N   1      34.031  18.076   6.206  0.00  0.00    -0.303 OA
ENDROOT
BRANCH   9  17
HETATM   17  C   UNK N   1      34.281  15.182  10.914  0.00  0.00     0.144 C 
HETATM   18  C   UNK N   1      35.552  15.441  11.687  0.00  0.00     0.034 C 
HETATM   19  C   UNK N   1      35.707  14.181  12.500  0.00  0.00     0.022 C 
HETATM   20  C   UNK N   1      34.940  13.124  11.718  0.00  0.00     0.114 C 
HETATM   21  N   UNK N   1      34.324  13.772  10.561  0.00  0.00    -0.411 N 
HETATM   22  H   UNK N   1      33.998  13.334   9.700  0.00  0.00     0.154 HD
ENDBRANCH   9  17
BRANCH  10  23
HETATM   23  O   UNK N   1      35.330  19.287   8.549  0.00  0.00    -0.344 OA
HETATM   24  H   UNK N   1      36.008  19.476   7.931  0.00  0.00     0.219 HD
ENDBRANCH  10  23
TORSDOF 2
ENDMDL
MODEL 2
REMARK VINA RESULT:      -7.2      2.538      6.154
REMARK  2 active torsions:
REMARK  status: ('A' for Active; 'I' for Inactive)
REMARK    1  A    between atoms: C_9  and  C_13 
REMARK    2  A    between atoms: O_21  and  C_14 
ROOT
HETATM    1  C   UNK N   1      35.696  14.102  12.416  0.00  0.00     0.026 A 
HETATM    2  C   UNK N   1      35.973  15.452  12.116  0.00  0.00     0.040 A 
HETATM    3  C   UNK N   1      34.474  13.837  10.309  0.00  0.00     0.040 A 
HETATM    4  C   UNK N   1      34.952  13.299  11.517  0.00  0.00     0.035 A 
HETATM    5  C   UNK N   1      34.762  15.170  10.045  0.00  0.00     0.029 A 
HETATM    6  C   UNK N   1      35.488  15.955  10.912  0.00  0.00     0.089 A 
HETATM    7  C   UNK N   1      34.439  15.981   9.000  0.00  0.00     0.085 A 
HETATM    8  C   UNK N   1      34.973  17.205   9.268  0.00  0.00     0.154 A 
HETATM    9  C   UNK N   1      33.518  16.747   6.996  0.00  0.00     0.106 A 
HETATM   10  C   UNK N   1      34.778  18.246   8.375  0.00  0.00     0.178 A 
HETATM   11 Cl   UNK N   1      34.620  11.625  11.905  0.00  0.00    -0.084 Cl
HETATM   12  N   UNK N   1      33.712  15.730   7.890  0.00  0.00    -0.341 N 
ATOM     13  HN  UNK N   1      33.318  14.804   7.723  1.00  0.00     0.167 HD
HETATM   14  N   UNK N   1      34.035  17.999   7.251  0.00  0.00    -0.323 N 
ATOM     15  HN  UNK N   1      33.863  18.756   6.590  1.00  0.00     0.169 HD
HETATM   16  O   UNK N   1      35.609  17.181  10.426  0.00  0.00    -0.303 OA
ENDROOT
BRANCH   9  17
HETATM   17  C   UNK N   1      32.591  16.536   5.835  0.00  0.00     0.144 C 
HETATM   18  C   UNK N   1      33.035  17.268   4.592  0.00  0.00     0.034 C 
HETATM   19  C   UNK N   1      31.773  17.317   3.769  0.00  0.00     0.022 C 
HETATM   20  C   UNK N   1      30.647  17.198   4.786  0.00  0.00     0.114 C 
HETATM   21  N   UNK N   1      31.246  17.019   6.108  0.00  0.00    -0.411 N 
HETATM   22  H   UNK N   1      30.818  17.192   7.017  0.00  0.00     0.154 HD
ENDBRANCH   9  17
BRANCH  10  23
HETATM   23  O   UNK N   1      35.280  19.470   8.611  0.00  0.00    -0.344 OA
HETATM   24  H   UNK N   1      34.724  20.152   8.930  0.00  0.00     0.219 HD
ENDBRANCH  10  23
TORSDOF 2
ENDMDL
MODEL 3
REMARK VINA RESULT:      -6.9      5.324      7.767
REMARK  2 active torsions:
REMARK  status: ('A' for Active; 'I' for Inactive)
REMARK    1  A    between atoms: C_9  and  C_13 
REMARK    2  A    between atoms: O_21  and  C_14 
ROOT
HETATM    1  C   UNK N   1      33.438  15.745   7.796  0.00  0.00     0.026 A 
HETATM    2  C   UNK N   1      32.433  16.095   8.721  0.00  0.00     0.040 A 
HETATM    3  C   UNK N   1      32.086  16.594   5.937  0.00  0.00     0.040 A 
HETATM    4  C   UNK N   1      33.267  15.996   6.412  0.00  0.00     0.035 A 
HETATM    5  C   UNK N   1      31.115  16.924   6.874  0.00  0.00     0.029 A 
HETATM    6  C   UNK N   1      31.277  16.688   8.221  0.00  0.00     0.089 A 
HETATM    7  C   UNK N   1      29.881  17.484   6.746  0.00  0.00     0.085 A 
HETATM    8  C   UNK N   1      29.351  17.567   7.999  0.00  0.00     0.154 A 
HETATM    9  C   UNK N   1      27.955  18.402   5.799  0.00  0.00     0.106 A 
HETATM   10  C   UNK N   1      28.077  18.084   8.169  0.00  0.00     0.178 A 
HETATM   11 Cl   UNK N   1      34.526  15.557   5.279  0.00  0.00    -0.084 Cl
HETATM   12  N   UNK N   1      29.211  17.884   5.644  0.00  0.00    -0.341 N 
ATOM     13  HN  UNK N   1      29.632  17.800   4.719  1.00  0.00     0.167 HD
HETATM   14  N   UNK N   1      27.390  18.483   7.054  0.00  0.00    -0.323 N 
ATOM     15  HN  UNK N   1      26.444  18.848   7.154  1.00  0.00     0.169 HD
HETATM   16  O   UNK N   1      30.204  17.086   8.886  0.00  0.00    -0.303 OA
ENDROOT
BRANCH   9  17
HETATM   17  C   UNK N   1      27.133  18.710   4.581  0.00  0.00     0.144 C 
HETATM   18  C   UNK N   1      27.317  20.128   4.096  0.00  0.00     0.034 C 
HETATM   19  C   UNK N   1      26.098  20.343   3.235  0.00  0.00     0.022 C 
HETATM   20  C   UNK N   1      25.074  19.351   3.767  0.00  0.00     0.114 C 
HETATM   21  N   UNK N   1      25.707  18.567   4.826  0.00  0.00    -0.411 N 
HETATM   22  H   UNK N   1      25.252  18.039   5.571  0.00  0.00     0.154 HD
ENDBRANCH   9  17
BRANCH  10  23
HETATM   23  O   UNK N   1      27.518  18.170   9.388  0.00  0.00    -0.344 OA
HETATM   24  H   UNK N   1      27.369  17.395   9.892  0.00  0.00     0.219 HD
ENDBRANCH  10  23
TORSDOF 2
ENDMDL
MODEL 4
REMARK VINA RESULT:      -6.9     10.866     12.873
REMARK  2 active torsions:
REMARK  status: ('A' for Active; 'I' for Inactive)
REMARK    1  A    between atoms: C_9  and  C_13 
REMARK    2  A    between atoms: O_21  and  C_14 
ROOT
HETATM    1  C   UNK N   1      27.187  19.847   3.796  0.00  0.00     0.026 A 
HETATM    2  C   UNK N   1      26.235  20.721   3.232  0.00  0.00     0.040 A 
HETATM    3  C   UNK N   1      25.443  18.201   4.300  0.00  0.00     0.040 A 
HETATM    4  C   UNK N   1      26.793  18.593   4.326  0.00  0.00     0.035 A 
HETATM    5  C   UNK N   1      24.531  19.085   3.739  0.00  0.00     0.029 A 
HETATM    6  C   UNK N   1      24.907  20.304   3.218  0.00  0.00     0.089 A 
HETATM    7  C   UNK N   1      23.181  19.020   3.579  0.00  0.00     0.085 A 
HETATM    8  C   UNK N   1      22.796  20.180   2.976  0.00  0.00     0.154 A 
HETATM    9  C   UNK N   1      20.975  18.260   3.674  0.00  0.00     0.106 A 
HETATM   10  C   UNK N   1      21.454  20.398   2.709  0.00  0.00     0.178 A 
HETATM   11 Cl   UNK N   1      27.989  17.521   5.021  0.00  0.00    -0.084 Cl
HETATM   12  N   UNK N   1      22.303  18.059   3.939  0.00  0.00    -0.341 N 
ATOM     13  HN  UNK N   1      22.622  17.206   4.397  1.00  0.00     0.167 HD
HETATM   14  N   UNK N   1      20.559  19.431   3.079  0.00  0.00    -0.323 N 
ATOM     15  HN  UNK N   1      19.564  19.580   2.910  1.00  0.00     0.169 HD
HETATM   16  O   UNK N   1      23.847  20.950   2.759  0.00  0.00    -0.303 OA
ENDROOT
BRANCH   9  17
HETATM   17  C   UNK N   1      19.967  17.280   4.199  0.00  0.00     0.144 C 
HETATM   18  C   UNK N   1      20.376  16.671   5.519  0.00  0.00     0.034 C 
HETATM   19  C   UNK N   1      19.518  15.434   5.592  0.00  0.00     0.022 C 
HETATM   20  C   UNK N   1      19.188  15.111   4.141  0.00  0.00     0.114 C 
HETATM   21  N   UNK N   1      19.770  16.155   3.299  0.00  0.00    -0.411 N 
HETATM   22  H   UNK N   1      19.989  16.106   2.304  0.00  0.00     0.154 HD
ENDBRANCH   9  17
BRANCH  10  23
HETATM   23  O   UNK N   1      21.036  21.535   2.126  0.00  0.00    -0.344 OA
HETATM   24  H   UNK N   1      20.286  21.526   1.566  0.00  0.00     0.219 HD
ENDBRANCH  10  23
TORSDOF 2
ENDMDL
MODEL 5
REMARK VINA RESULT:      -6.8     12.355     14.143
REMARK  2 active torsions:
REMARK  status: ('A' for Active; 'I' for Inactive)
REMARK    1  A    between atoms: C_9  and  C_13 
REMARK    2  A    between atoms: O_21  and  C_14 
ROOT
HETATM    1  C   UNK N   1      21.787  12.114  11.016  0.00  0.00     0.026 A 
HETATM    2  C   UNK N   1      20.507  12.697  10.915  0.00  0.00     0.040 A 
HETATM    3  C   UNK N   1      22.698  13.728   9.413  0.00  0.00     0.040 A 
HETATM    4  C   UNK N   1      22.877  12.628  10.271  0.00  0.00     0.035 A 
HETATM    5  C   UNK N   1      21.425  14.277   9.336  0.00  0.00     0.029 A 
HETATM    6  C   UNK N   1      20.362  13.786  10.061  0.00  0.00     0.089 A 
HETATM    7  C   UNK N   1      20.923  15.311   8.605  0.00  0.00     0.085 A 
HETATM    8  C   UNK N   1      19.598  15.406   8.911  0.00  0.00     0.154 A 
HETATM    9  C   UNK N   1      20.769  17.080   7.090  0.00  0.00     0.106 A 
HETATM   10  C   UNK N   1      18.821  16.369   8.288  0.00  0.00     0.178 A 
HETATM   11 Cl   UNK N   1      24.459  11.893  10.410  0.00  0.00    -0.084 Cl
HETATM   12  N   UNK N   1      21.523  16.120   7.707  0.00  0.00    -0.341 N 
ATOM     13  HN  UNK N   1      22.515  16.017   7.493  1.00  0.00     0.167 HD
HETATM   14  N   UNK N   1      19.423  17.188   7.371  0.00  0.00    -0.323 N 
ATOM     15  HN  UNK N   1      18.866  17.890   6.886  1.00  0.00     0.169 HD
HETATM   16  O   UNK N   1      19.267  14.481   9.795  0.00  0.00    -0.303 OA
ENDROOT
BRANCH   9  17
HETATM   17  C   UNK N   1      21.375  17.889   5.981  0.00  0.00     0.144 C 
HETATM   18  C   UNK N   1      20.939  17.422   4.612  0.00  0.00     0.034 C 
HETATM   19  C   UNK N   1      21.995  18.011   3.711  0.00  0.00     0.022 C 
HETATM   20  C   UNK N   1      23.205  18.204   4.615  0.00  0.00     0.114 C 
HETATM   21  N   UNK N   1      22.827  17.812   5.971  0.00  0.00    -0.411 N 
HETATM   22  H   UNK N   1      23.442  17.545   6.739  0.00  0.00     0.154 HD
ENDBRANCH   9  17
BRANCH  10  23
HETATM   23  O   UNK N   1      17.509  16.486   8.556  0.00  0.00    -0.344 OA
HETATM   24  H   UNK N   1      17.088  15.865   9.118  0.00  0.00     0.219 HD
ENDBRANCH  10  23
TORSDOF 2
ENDMDL
MODEL 6
REMARK VINA RESULT:      -6.6      3.619      7.193
REMARK  2 active torsions:
REMARK  status: ('A' for Active; 'I' for Inactive)
REMARK    1  A    between atoms: C_9  and  C_13 
REMARK    2  A    between atoms: O_21  and  C_14 
ROOT
HETATM    1  C   UNK N   1      36.147  12.535  15.001  0.00  0.00     0.026 A 
HETATM    2  C   UNK N   1      36.536  13.793  14.495  0.00  0.00     0.040 A 
HETATM    3  C   UNK N   1      34.674  12.167  13.078  0.00  0.00     0.040 A 
HETATM    4  C   UNK N   1      35.222  11.726  14.295  0.00  0.00     0.035 A 
HETATM    5  C   UNK N   1      35.077  13.411  12.609  0.00  0.00     0.029 A 
HETATM    6  C   UNK N   1      35.979  14.200  13.288  0.00  0.00     0.089 A 
HETATM    7  C   UNK N   1      34.730  14.121  11.501  0.00  0.00     0.085 A 
HETATM    8  C   UNK N   1      35.424  15.293  11.547  0.00  0.00     0.154 A 
HETATM    9  C   UNK N   1      33.681  14.744   9.510  0.00  0.00     0.106 A 
HETATM   10  C   UNK N   1      35.246  16.232  10.544  0.00  0.00     0.178 A 
HETATM   11 Cl   UNK N   1      34.753  10.168  14.938  0.00  0.00    -0.084 Cl
HETATM   12  N   UNK N   1      33.860  13.828  10.510  0.00  0.00    -0.341 N 
ATOM     13  HN  UNK N   1      33.350  12.945  10.509  1.00  0.00     0.167 HD
HETATM   14  N   UNK N   1      34.359  15.943   9.541  0.00  0.00    -0.323 N 
ATOM     15  HN  UNK N   1      34.199  16.628   8.804  1.00  0.00     0.169 HD
HETATM   16  O   UNK N   1      36.179  15.332  12.630  0.00  0.00    -0.303 OA
ENDROOT
BRANCH   9  17
HETATM   17  C   UNK N   1      32.611  14.509   8.484  0.00  0.00     0.144 C 
HETATM   18  C   UNK N   1      33.161  14.003   7.172  0.00  0.00     0.034 C 
HETATM   19  C   UNK N   1      32.043  14.305   6.207  0.00  0.00     0.022 C 
HETATM   20  C   UNK N   1      31.274  15.446   6.857  0.00  0.00     0.114 C 
HETATM   21  N   UNK N   1      31.885  15.725   8.155  0.00  0.00    -0.411 N 
HETATM   22  H   UNK N   1      31.817  16.579   8.707  0.00  0.00     0.154 HD
ENDBRANCH   9  17
BRANCH  10  23
HETATM   23  O   UNK N   1      35.905  17.403  10.562  0.00  0.00    -0.344 OA
HETATM   24  H   UNK N   1      36.711  17.481  11.032  0.00  0.00     0.219 HD
ENDBRANCH  10  23
TORSDOF 2
ENDMDL
MODEL 7
REMARK VINA RESULT:      -6.4      2.387      3.495
REMARK  2 active torsions:
REMARK  status: ('A' for Active; 'I' for Inactive)
REMARK    1  A    between atoms: C_9  and  C_13 
REMARK    2  A    between atoms: O_21  and  C_14 
ROOT
HETATM    1  C   UNK N   1      32.040  17.574   7.046  0.00  0.00     0.026 A 
HETATM    2  C   UNK N   1      33.253  17.884   7.697  0.00  0.00     0.040 A 
HETATM    3  C   UNK N   1      31.999  15.354   8.082  0.00  0.00     0.040 A 
HETATM    4  C   UNK N   1      31.416  16.317   7.239  0.00  0.00     0.035 A 
HETATM    5  C   UNK N   1      33.194  15.690   8.706  0.00  0.00     0.029 A 
HETATM    6  C   UNK N   1      33.803  16.912   8.527  0.00  0.00     0.089 A 
HETATM    7  C   UNK N   1      34.007  14.996   9.549  0.00  0.00     0.085 A 
HETATM    8  C   UNK N   1      35.059  15.809   9.844  0.00  0.00     0.154 A 
HETATM    9  C   UNK N   1      34.885  13.272  10.856  0.00  0.00     0.106 A 
HETATM   10  C   UNK N   1      36.068  15.346  10.674  0.00  0.00     0.178 A 
HETATM   11 Cl   UNK N   1      29.912  15.951   6.425  0.00  0.00    -0.084 Cl
HETATM   12  N   UNK N   1      33.899  13.738  10.029  0.00  0.00    -0.341 N 
ATOM     13  HN  UNK N   1      33.103  13.152   9.782  1.00  0.00     0.167 HD
HETATM   14  N   UNK N   1      35.968  14.069  11.158  0.00  0.00    -0.323 N 
ATOM     15  HN  UNK N   1      36.709  13.702  11.755  1.00  0.00     0.169 HD
HETATM   16  O   UNK N   1      34.928  16.968   9.224  0.00  0.00    -0.303 OA
ENDROOT
BRANCH   9  17
HETATM   17  C   UNK N   1      34.867  11.832  11.279  0.00  0.00     0.144 C 
HETATM   18  C   UNK N   1      33.962  10.982  10.420  0.00  0.00     0.034 C 
HETATM   19  C   UNK N   1      33.728   9.770  11.285  0.00  0.00     0.022 C 
HETATM   20  C   UNK N   1      33.964  10.263  12.706  0.00  0.00     0.114 C 
HETATM   21  N   UNK N   1      34.380  11.662  12.639  0.00  0.00    -0.411 N 
HETATM   22  H   UNK N   1      34.339  12.363  13.378  0.00  0.00     0.154 HD
ENDBRANCH   9  17
BRANCH  10  23
HETATM   23  O   UNK N   1      37.126  16.116  10.979  0.00  0.00    -0.344 OA
HETATM   24  H   UNK N   1      37.048  17.049  10.965  0.00  0.00     0.219 HD
ENDBRANCH  10  23
TORSDOF 2
ENDMDL
MODEL 8
REMARK VINA RESULT:      -6.2     11.285     11.895
REMARK  2 active torsions:
REMARK  status: ('A' for Active; 'I' for Inactive)
REMARK    1  A    between atoms: C_9  and  C_13 
REMARK    2  A    between atoms: O_21  and  C_14 
ROOT
HETATM    1  C   UNK N   1      39.386  24.526  -1.200  0.00  0.00     0.026 A 
HETATM    2  C   UNK N   1      40.248  25.017  -0.198  0.00  0.00     0.040 A 
HETATM    3  C   UNK N   1      39.811  22.218  -0.496  0.00  0.00     0.040 A 
HETATM    4  C   UNK N   1      39.167  23.134  -1.347  0.00  0.00     0.035 A 
HETATM    5  C   UNK N   1      40.655  22.734   0.478  0.00  0.00     0.029 A 
HETATM    6  C   UNK N   1      40.868  24.087   0.630  0.00  0.00     0.089 A 
HETATM    7  C   UNK N   1      41.425  22.134   1.427  0.00  0.00     0.085 A 
HETATM    8  C   UNK N   1      42.064  23.127   2.107  0.00  0.00     0.154 A 
HETATM    9  C   UNK N   1      42.473  20.489   2.710  0.00  0.00     0.106 A 
HETATM   10  C   UNK N   1      42.942  22.800   3.127  0.00  0.00     0.178 A 
HETATM   11 Cl   UNK N   1      38.092  22.543  -2.594  0.00  0.00    -0.084 Cl
HETATM   12  N   UNK N   1      41.613  20.825   1.701  0.00  0.00    -0.341 N 
ATOM     13  HN  UNK N   1      41.126  20.105   1.167  1.00  0.00     0.167 HD
HETATM   14  N   UNK N   1      43.143  21.474   3.404  0.00  0.00    -0.323 N 
ATOM     15  HN  UNK N   1      43.800  21.210   4.137  1.00  0.00     0.169 HD
HETATM   16  O   UNK N   1      41.720  24.306   1.621  0.00  0.00    -0.303 OA
ENDROOT
BRANCH   9  17
HETATM   17  C   UNK N   1      42.814  19.044   2.932  0.00  0.00     0.144 C 
HETATM   18  C   UNK N   1      44.303  18.794   2.962  0.00  0.00     0.034 C 
HETATM   19  C   UNK N   1      44.393  17.311   2.705  0.00  0.00     0.022 C 
HETATM   20  C   UNK N   1      43.105  16.971   1.968  0.00  0.00     0.114 C 
HETATM   21  N   UNK N   1      42.298  18.187   1.878  0.00  0.00    -0.411 N 
HETATM   22  H   UNK N   1      41.543  18.389   1.223  0.00  0.00     0.154 HD
ENDBRANCH   9  17
BRANCH  10  23
HETATM   23  O   UNK N   1      43.598  23.751   3.812  0.00  0.00    -0.344 OA
HETATM   24  H   UNK N   1      44.143  23.517   4.537  0.00  0.00     0.219 HD
ENDBRANCH  10  23
TORSDOF 2
ENDMDL
MODEL 9
REMARK VINA RESULT:      -6.0     12.370     13.965
REMARK  2 active torsions:
REMARK  status: ('A' for Active; 'I' for Inactive)
REMARK    1  A    between atoms: C_9  and  C_13 
REMARK    2  A    between atoms: O_21  and  C_14 
ROOT
HETATM    1  C   UNK N   1      22.459  11.943   9.663  0.00  0.00     0.026 A 
HETATM    2  C   UNK N   1      21.829  13.109  10.145  0.00  0.00     0.040 A 
HETATM    3  C   UNK N   1      22.536  12.867   7.395  0.00  0.00     0.040 A 
HETATM    4  C   UNK N   1      22.813  11.823   8.296  0.00  0.00     0.035 A 
HETATM    5  C   UNK N   1      21.913  14.000   7.901  0.00  0.00     0.029 A 
HETATM    6  C   UNK N   1      21.571  14.125   9.230  0.00  0.00     0.089 A 
HETATM    7  C   UNK N   1      21.500  15.154   7.308  0.00  0.00     0.085 A 
HETATM    8  C   UNK N   1      20.935  15.921   8.281  0.00  0.00     0.154 A 
HETATM    9  C   UNK N   1      21.044  16.764   5.680  0.00  0.00     0.106 A 
HETATM   10  C   UNK N   1      20.400  17.157   7.953  0.00  0.00     0.178 A 
HETATM   11 Cl   UNK N   1      23.596  10.370   7.717  0.00  0.00    -0.084 Cl
HETATM   12  N   UNK N   1      21.562  15.543   6.016  0.00  0.00    -0.341 N 
ATOM     13  HN  UNK N   1      21.983  14.941   5.310  1.00  0.00     0.167 HD
HETATM   14  N   UNK N   1      20.453  17.553   6.644  0.00  0.00    -0.323 N 
ATOM     15  HN  UNK N   1      20.049  18.450   6.377  1.00  0.00     0.169 HD
HETATM   16  O   UNK N   1      20.984  15.293   9.443  0.00  0.00    -0.303 OA
ENDROOT
BRANCH   9  17
HETATM   17  C   UNK N   1      20.963  17.153   4.233  0.00  0.00     0.144 C 
HETATM   18  C   UNK N   1      21.403  18.576   3.985  0.00  0.00     0.034 C 
HETATM   19  C   UNK N   1      20.796  18.879   2.638  0.00  0.00     0.022 C 
HETATM   20  C   UNK N   1      19.619  17.920   2.524  0.00  0.00     0.114 C 
HETATM   21  N   UNK N   1      19.607  17.072   3.714  0.00  0.00    -0.411 N 
HETATM   22  H   UNK N   1      18.824  16.541   4.096  0.00  0.00     0.154 HD
ENDBRANCH   9  17
BRANCH  10  23
HETATM   23  O   UNK N   1      19.826  17.936   8.885  0.00  0.00    -0.344 OA
HETATM   24  H   UNK N   1      20.303  18.179   9.653  0.00  0.00     0.219 HD
ENDBRANCH  10  23
TORSDOF 2
ENDMDL
