MODEL 1
REMARK VINA RESULT:      -8.8      0.000      0.000
REMARK  8 active torsions:
REMARK  status: ('A' for Active; 'I' for Inactive)
REMARK    1  A    between atoms: C_2  and  C_4 
REMARK    2  A    between atoms: C_2  and  N_6 
REMARK    3  A    between atoms: C_4  and  O_5 
REMARK    4  A    between atoms: C_8  and  C_18 
REMARK       I    between atoms: C_13  and  N_17 
REMARK    5  A    between atoms: C_18  and  C_20 
REMARK    6  A    between atoms: C_22  and  N_27 
REMARK       I    between atoms: N_27  and  C_28 
REMARK    7  A    between atoms: C_28  and  C_30 
REMARK    8  A    between atoms: C_30  and  C_31 
ROOT
HETATM    1  C   UNK N   1      34.236  17.557   8.090  0.00  0.00     0.196 C 
HETATM    2  O   UNK N   1      34.842  18.613   7.983  0.00  0.00    -0.287 OA
ENDROOT
BRANCH   1   3
HETATM    3  C   UNK N   1      32.830  17.452   7.697  0.00  0.00     0.046 A 
HETATM    4  C   UNK N   1      31.768  17.796   8.526  0.00  0.00     0.110 A 
HETATM    5  N   UNK N   1      30.617  17.747   7.822  0.00  0.00    -0.330 N 
HETATM    6  C   UNK N   1      30.958  17.390   6.564  0.00  0.00     0.136 A 
HETATM    7  C   UNK N   1      32.299  17.183   6.463  0.00  0.00     0.040 A 
HETATM    8  N   UNK N   1      30.138  17.315   5.490  0.00  0.00    -0.176 N 
HETATM    9  C   UNK N   1      32.869  16.882   5.238  0.00  0.00     0.122 A 
HETATM   10  N   UNK N   1      32.041  16.807   4.156  0.00  0.00    -0.201 N 
HETATM   11  C   UNK N   1      30.690  17.028   4.272  0.00  0.00     0.677 A 
ATOM     12  HN  UNK N   1      32.433  16.584   3.241  1.00  0.00     0.183 HD
HETATM   13  N   UNK N   1      29.874  16.995   3.126  0.00  0.00    -0.234 N 
HETATM   14  H   UNK N   1      30.224  16.735   2.244  0.00  0.00     0.174 HD
HETATM   15  H   UNK N   1      28.924  17.240   3.209  0.00  0.00     0.174 HD
ATOM     16  HN  UNK N   1      29.133  17.469   5.587  1.00  0.00     0.186 HD
BRANCH   5  17
HETATM   17  C   UNK N   1      29.289  18.107   8.344  0.00  0.00     0.052 C 
HETATM   18  C   UNK N   1      28.655  19.220   7.508  0.00  0.00     0.041 C 
HETATM   19  C   UNK N   1      29.415  18.609   9.774  0.00  0.00     0.041 C 
BRANCH  17  20
HETATM   20  C   UNK N   1      28.391  16.873   8.285  0.00  0.00     0.194 C 
BRANCH  20  21
HETATM   21  O   UNK N   1      27.340  16.964   9.201  0.00  0.00    -0.398 OA
HETATM   22  H   UNK N   1      26.925  17.821   9.383  0.00  0.00     0.209 HD
ENDBRANCH  20  21
ENDBRANCH  17  20
ENDBRANCH   5  17
ENDBRANCH   1   3
BRANCH   1  23
HETATM   23  C   UNK N   1      34.869  16.372   8.706  0.00  0.00     0.032 A 
HETATM   24  C   UNK N   1      35.272  16.372  10.033  0.00  0.00     0.048 A 
HETATM   25  C   UNK N   1      35.859  15.224  10.584  0.00  0.00     0.051 A 
HETATM   26  C   UNK N   1      35.975  14.072   9.803  0.00  0.00     0.117 A 
HETATM   27  N   UNK N   1      35.560  14.079   8.511  0.00  0.00    -0.372 N 
HETATM   28  C   UNK N   1      35.035  15.197   7.951  0.00  0.00     0.103 A 
ATOM     29  HN  UNK N   1      35.645  13.230   7.953  1.00  0.00     0.164 HD
BRANCH  25  30
HETATM   30  N   UNK N   1      36.402  15.229  11.893  0.00  0.00    -0.326 N 
HETATM   31  C   UNK N   1      35.884  14.521  12.932  0.00  0.00     0.227 C 
HETATM   32  O   UNK N   1      34.864  13.859  12.800  0.00  0.00    -0.273 OA
HETATM   33  H   UNK N   1      37.202  15.779  12.060  0.00  0.00     0.169 HD
BRANCH  31  34
HETATM   34  C   UNK N   1      36.524  14.594  14.275  0.00  0.00     0.160 C 
BRANCH  34  35
HETATM   35  C   UNK N   1      36.209  13.422  15.155  0.00  0.00     0.017 A 
HETATM   36  C   UNK N   1      35.572  13.654  16.374  0.00  0.00     0.027 A 
HETATM   37  C   UNK N   1      35.274  12.579  17.209  0.00  0.00     0.027 A 
HETATM   38  C   UNK N   1      35.611  11.284  16.817  0.00  0.00     0.049 A 
HETATM   39  C   UNK N   1      36.249  11.083  15.592  0.00  0.00     0.112 A 
HETATM   40 Cl   UNK N   1      35.236   9.928  17.856  0.00  0.00    -0.083 Cl
HETATM   41  N   UNK N   1      36.537  12.146  14.793  0.00  0.00    -0.367 N 
ATOM     42  HN  UNK N   1      37.008  11.986  13.902  1.00  0.00     0.165 HD
ENDBRANCH  34  35
ENDBRANCH  31  34
ENDBRANCH  25  30
ENDBRANCH   1  23
TORSDOF 8
ENDMDL
MODEL 2
REMARK VINA RESULT:      -8.4      1.568      2.982
REMARK  8 active torsions:
REMARK  status: ('A' for Active; 'I' for Inactive)
REMARK    1  A    between atoms: C_2  and  C_4 
REMARK    2  A    between atoms: C_2  and  N_6 
REMARK    3  A    between atoms: C_4  and  O_5 
REMARK    4  A    between atoms: C_8  and  C_18 
REMARK       I    between atoms: C_13  and  N_17 
REMARK    5  A    between atoms: C_18  and  C_20 
REMARK    6  A    between atoms: C_22  and  N_27 
REMARK       I    between atoms: N_27  and  C_28 
REMARK    7  A    between atoms: C_28  and  C_30 
REMARK    8  A    between atoms: C_30  and  C_31 
ROOT
HETATM    1  C   UNK N   1      34.390  17.680   8.351  0.00  0.00     0.196 C 
HETATM    2  O   UNK N   1      34.872  18.774   8.609  0.00  0.00    -0.287 OA
ENDROOT
BRANCH   1   3
HETATM    3  C   UNK N   1      33.219  17.560   7.482  0.00  0.00     0.046 A 
HETATM    4  C   UNK N   1      33.284  17.185   6.144  0.00  0.00     0.110 A 
HETATM    5  N   UNK N   1      32.034  17.006   5.668  0.00  0.00    -0.330 N 
HETATM    6  C   UNK N   1      31.197  17.250   6.701  0.00  0.00     0.136 A 
HETATM    7  C   UNK N   1      31.891  17.611   7.814  0.00  0.00     0.040 A 
HETATM    8  N   UNK N   1      29.853  17.094   6.711  0.00  0.00    -0.176 N 
HETATM    9  C   UNK N   1      31.227  17.834   9.008  0.00  0.00     0.122 A 
HETATM   10  N   UNK N   1      29.872  17.675   9.019  0.00  0.00    -0.201 N 
HETATM   11  C   UNK N   1      29.187  17.302   7.888  0.00  0.00     0.677 A 
ATOM     12  HN  UNK N   1      29.356  17.836   9.884  1.00  0.00     0.183 HD
HETATM   13  N   UNK N   1      27.796  17.095   7.948  0.00  0.00    -0.234 N 
HETATM   14  H   UNK N   1      27.274  17.290   8.759  0.00  0.00     0.174 HD
HETATM   15  H   UNK N   1      27.331  16.745   7.155  0.00  0.00     0.174 HD
ATOM     16  HN  UNK N   1      29.350  16.827   5.864  1.00  0.00     0.186 HD
BRANCH   5  17
HETATM   17  C   UNK N   1      31.703  16.546   4.310  0.00  0.00     0.052 C 
HETATM   18  C   UNK N   1      31.630  15.019   4.250  0.00  0.00     0.041 C 
HETATM   19  C   UNK N   1      32.777  17.002   3.334  0.00  0.00     0.041 C 
BRANCH  17  20
HETATM   20  C   UNK N   1      30.344  17.121   3.918  0.00  0.00     0.194 C 
BRANCH  20  21
HETATM   21  O   UNK N   1      30.018  16.805   2.597  0.00  0.00    -0.398 OA
HETATM   22  H   UNK N   1      30.710  16.520   1.980  0.00  0.00     0.209 HD
ENDBRANCH  20  21
ENDBRANCH  17  20
ENDBRANCH   5  17
ENDBRANCH   1   3
BRANCH   1  23
HETATM   23  C   UNK N   1      34.910  16.449   8.981  0.00  0.00     0.032 A 
HETATM   24  C   UNK N   1      35.343  16.434  10.298  0.00  0.00     0.048 A 
HETATM   25  C   UNK N   1      35.819  15.243  10.864  0.00  0.00     0.051 A 
HETATM   26  C   UNK N   1      35.796  14.069  10.108  0.00  0.00     0.117 A 
HETATM   27  N   UNK N   1      35.354  14.092   8.825  0.00  0.00    -0.372 N 
HETATM   28  C   UNK N   1      34.934  15.247   8.251  0.00  0.00     0.103 A 
ATOM     29  HN  UNK N   1      35.336  13.228   8.285  1.00  0.00     0.164 HD
BRANCH  25  30
HETATM   30  N   UNK N   1      36.391  15.218  12.160  0.00  0.00    -0.326 N 
HETATM   31  C   UNK N   1      35.928  14.446  13.178  0.00  0.00     0.227 C 
HETATM   32  O   UNK N   1      34.935  13.745  13.041  0.00  0.00    -0.273 OA
HETATM   33  H   UNK N   1      37.170  15.796  12.334  0.00  0.00     0.169 HD
BRANCH  31  34
HETATM   34  C   UNK N   1      36.594  14.492  14.510  0.00  0.00     0.160 C 
BRANCH  34  35
HETATM   35  C   UNK N   1      36.213  13.357  15.412  0.00  0.00     0.017 A 
HETATM   36  C   UNK N   1      35.543  13.646  16.602  0.00  0.00     0.027 A 
HETATM   37  C   UNK N   1      35.183  12.607  17.458  0.00  0.00     0.027 A 
HETATM   38  C   UNK N   1      35.490  11.291  17.115  0.00  0.00     0.049 A 
HETATM   39  C   UNK N   1      36.162  11.033  15.919  0.00  0.00     0.112 A 
HETATM   40 Cl   UNK N   1      35.037   9.979  18.179  0.00  0.00    -0.083 Cl
HETATM   41  N   UNK N   1      36.510  12.061  15.099  0.00  0.00    -0.367 N 
ATOM     42  HN  UNK N   1      37.005  11.860  14.229  1.00  0.00     0.165 HD
ENDBRANCH  34  35
ENDBRANCH  31  34
ENDBRANCH  25  30
ENDBRANCH   1  23
TORSDOF 8
ENDMDL
MODEL 3
REMARK VINA RESULT:      -8.4      2.282      3.516
REMARK  8 active torsions:
REMARK  status: ('A' for Active; 'I' for Inactive)
REMARK    1  A    between atoms: C_2  and  C_4 
REMARK    2  A    between atoms: C_2  and  N_6 
REMARK    3  A    between atoms: C_4  and  O_5 
REMARK    4  A    between atoms: C_8  and  C_18 
REMARK       I    between atoms: C_13  and  N_17 
REMARK    5  A    between atoms: C_18  and  C_20 
REMARK    6  A    between atoms: C_22  and  N_27 
REMARK       I    between atoms: N_27  and  C_28 
REMARK    7  A    between atoms: C_28  and  C_30 
REMARK    8  A    between atoms: C_30  and  C_31 
ROOT
HETATM    1  C   UNK N   1      33.797  16.663   6.956  0.00  0.00     0.196 C 
HETATM    2  O   UNK N   1      34.660  16.808   6.102  0.00  0.00    -0.287 OA
ENDROOT
BRANCH   1   3
HETATM    3  C   UNK N   1      32.384  16.878   6.642  0.00  0.00     0.046 A 
HETATM    4  C   UNK N   1      31.764  16.394   5.495  0.00  0.00     0.110 A 
HETATM    5  N   UNK N   1      30.435  16.615   5.578  0.00  0.00    -0.330 N 
HETATM    6  C   UNK N   1      30.224  17.216   6.770  0.00  0.00     0.136 A 
HETATM    7  C   UNK N   1      31.398  17.409   7.431  0.00  0.00     0.040 A 
HETATM    8  N   UNK N   1      29.030  17.530   7.322  0.00  0.00    -0.176 N 
HETATM    9  C   UNK N   1      31.400  17.943   8.708  0.00  0.00     0.122 A 
HETATM   10  N   UNK N   1      30.195  18.259   9.264  0.00  0.00    -0.201 N 
HETATM   11  C   UNK N   1      29.018  18.050   8.587  0.00  0.00     0.677 A 
ATOM     12  HN  UNK N   1      30.166  18.658  10.203  1.00  0.00     0.183 HD
HETATM   13  N   UNK N   1      27.790  18.338   9.212  0.00  0.00    -0.234 N 
HETATM   14  H   UNK N   1      27.742  18.767  10.096  0.00  0.00     0.174 HD
HETATM   15  H   UNK N   1      26.953  18.103   8.750  0.00  0.00     0.174 HD
ATOM     16  HN  UNK N   1      28.161  17.382   6.808  1.00  0.00     0.186 HD
BRANCH   5  17
HETATM   17  C   UNK N   1      29.441  16.185   4.582  0.00  0.00     0.052 C 
HETATM   18  C   UNK N   1      28.452  17.311   4.271  0.00  0.00     0.041 C 
HETATM   19  C   UNK N   1      28.650  15.002   5.118  0.00  0.00     0.041 C 
BRANCH  17  20
HETATM   20  C   UNK N   1      30.172  15.803   3.296  0.00  0.00     0.194 C 
BRANCH  20  21
HETATM   21  O   UNK N   1      30.281  16.892   2.428  0.00  0.00    -0.398 OA
HETATM   22  H   UNK N   1      30.581  17.751   2.761  0.00  0.00     0.209 HD
ENDBRANCH  20  21
ENDBRANCH  17  20
ENDBRANCH   5  17
ENDBRANCH   1   3
BRANCH   1  23
HETATM   23  C   UNK N   1      34.153  16.356   8.357  0.00  0.00     0.032 A 
HETATM   24  C   UNK N   1      34.007  15.080   8.880  0.00  0.00     0.048 A 
HETATM   25  C   UNK N   1      34.367  14.826  10.211  0.00  0.00     0.051 A 
HETATM   26  C   UNK N   1      34.926  15.852  10.977  0.00  0.00     0.117 A 
HETATM   27  N   UNK N   1      35.080  17.092  10.448  0.00  0.00    -0.372 N 
HETATM   28  C   UNK N   1      34.692  17.363   9.177  0.00  0.00     0.103 A 
ATOM     29  HN  UNK N   1      35.494  17.831  11.016  1.00  0.00     0.164 HD
BRANCH  25  30
HETATM   30  N   UNK N   1      34.109  13.572  10.818  0.00  0.00    -0.326 N 
HETATM   31  C   UNK N   1      35.058  12.620  11.023  0.00  0.00     0.227 C 
HETATM   32  O   UNK N   1      36.209  12.781  10.642  0.00  0.00    -0.273 OA
HETATM   33  H   UNK N   1      33.188  13.378  11.108  0.00  0.00     0.169 HD
BRANCH  31  34
HETATM   34  C   UNK N   1      34.689  11.328  11.667  0.00  0.00     0.160 C 
BRANCH  34  35
HETATM   35  C   UNK N   1      34.838  11.336  13.159  0.00  0.00     0.017 A 
HETATM   36  C   UNK N   1      33.932  10.600  13.924  0.00  0.00     0.027 A 
HETATM   37  C   UNK N   1      34.049  10.598  15.313  0.00  0.00     0.027 A 
HETATM   38  C   UNK N   1      35.070  11.326  15.922  0.00  0.00     0.049 A 
HETATM   39  C   UNK N   1      35.960  12.053  15.131  0.00  0.00     0.112 A 
HETATM   40 Cl   UNK N   1      35.229  11.324  17.664  0.00  0.00    -0.083 Cl
HETATM   41  N   UNK N   1      35.827  12.047  13.777  0.00  0.00    -0.367 N 
ATOM     42  HN  UNK N   1      36.481  12.588  13.209  1.00  0.00     0.165 HD
ENDBRANCH  34  35
ENDBRANCH  31  34
ENDBRANCH  25  30
ENDBRANCH   1  23
TORSDOF 8
ENDMDL
MODEL 4
REMARK VINA RESULT:      -8.4      1.837      2.386
REMARK  8 active torsions:
REMARK  status: ('A' for Active; 'I' for Inactive)
REMARK    1  A    between atoms: C_2  and  C_4 
REMARK    2  A    between atoms: C_2  and  N_6 
REMARK    3  A    between atoms: C_4  and  O_5 
REMARK    4  A    between atoms: C_8  and  C_18 
REMARK       I    between atoms: C_13  and  N_17 
REMARK    5  A    between atoms: C_18  and  C_20 
REMARK    6  A    between atoms: C_22  and  N_27 
REMARK       I    between atoms: N_27  and  C_28 
REMARK    7  A    between atoms: C_28  and  C_30 
REMARK    8  A    between atoms: C_30  and  C_31 
ROOT
HETATM    1  C   UNK N   1      33.522  17.054   6.975  0.00  0.00     0.196 C 
HETATM    2  O   UNK N   1      34.289  17.576   6.179  0.00  0.00    -0.287 OA
ENDROOT
BRANCH   1   3
HETATM    3  C   UNK N   1      32.103  16.887   6.654  0.00  0.00     0.046 A 
HETATM    4  C   UNK N   1      31.070  17.430   7.412  0.00  0.00     0.110 A 
HETATM    5  N   UNK N   1      29.899  17.241   6.769  0.00  0.00    -0.330 N 
HETATM    6  C   UNK N   1      30.197  16.602   5.616  0.00  0.00     0.136 A 
HETATM    7  C   UNK N   1      31.532  16.354   5.529  0.00  0.00     0.040 A 
HETATM    8  N   UNK N   1      29.343  16.299   4.611  0.00  0.00    -0.176 N 
HETATM    9  C   UNK N   1      32.061  15.772   4.390  0.00  0.00     0.122 A 
HETATM   10  N   UNK N   1      31.200  15.468   3.376  0.00  0.00    -0.201 N 
HETATM   11  C   UNK N   1      29.855  15.733   3.476  0.00  0.00     0.677 A 
ATOM     12  HN  UNK N   1      31.562  15.035   2.526  1.00  0.00     0.183 HD
HETATM   13  N   UNK N   1      29.004  15.454   2.390  0.00  0.00    -0.234 N 
HETATM   14  H   UNK N   1      29.325  14.994   1.581  0.00  0.00     0.174 HD
HETATM   15  H   UNK N   1      28.060  15.728   2.441  0.00  0.00     0.174 HD
ATOM     16  HN  UNK N   1      28.344  16.489   4.697  1.00  0.00     0.186 HD
BRANCH   5  17
HETATM   17  C   UNK N   1      28.591  17.733   7.231  0.00  0.00     0.052 C 
HETATM   18  C   UNK N   1      27.538  16.625   7.179  0.00  0.00     0.041 C 
HETATM   19  C   UNK N   1      28.121  18.868   6.335  0.00  0.00     0.041 C 
BRANCH  17  20
HETATM   20  C   UNK N   1      28.732  18.213   8.674  0.00  0.00     0.194 C 
BRANCH  20  21
HETATM   21  O   UNK N   1      27.510  18.164   9.349  0.00  0.00    -0.398 OA
HETATM   22  H   UNK N   1      27.239  18.902   9.918  0.00  0.00     0.209 HD
ENDBRANCH  20  21
ENDBRANCH  17  20
ENDBRANCH   5  17
ENDBRANCH   1   3
BRANCH   1  23
HETATM   23  C   UNK N   1      33.975  16.655   8.324  0.00  0.00     0.032 A 
HETATM   24  C   UNK N   1      33.832  15.354   8.782  0.00  0.00     0.048 A 
HETATM   25  C   UNK N   1      34.286  15.012  10.064  0.00  0.00     0.051 A 
HETATM   26  C   UNK N   1      34.931  15.976  10.842  0.00  0.00     0.117 A 
HETATM   27  N   UNK N   1      35.080  17.241  10.375  0.00  0.00    -0.372 N 
HETATM   28  C   UNK N   1      34.604  17.598   9.156  0.00  0.00     0.103 A 
ATOM     29  HN  UNK N   1      35.558  17.935  10.950  1.00  0.00     0.164 HD
BRANCH  25  30
HETATM   30  N   UNK N   1      34.039  13.731  10.616  0.00  0.00    -0.326 N 
HETATM   31  C   UNK N   1      34.986  12.762  10.737  0.00  0.00     0.227 C 
HETATM   32  O   UNK N   1      36.123  12.933  10.320  0.00  0.00    -0.273 OA
HETATM   33  H   UNK N   1      33.128  13.530  10.931  0.00  0.00     0.169 HD
BRANCH  31  34
HETATM   34  C   UNK N   1      34.629  11.442  11.328  0.00  0.00     0.160 C 
BRANCH  34  35
HETATM   35  C   UNK N   1      34.770  11.394  12.819  0.00  0.00     0.017 A 
HETATM   36  C   UNK N   1      33.882  10.602  13.549  0.00  0.00     0.027 A 
HETATM   37  C   UNK N   1      33.992  10.546  14.937  0.00  0.00     0.027 A 
HETATM   38  C   UNK N   1      34.989  11.277  15.581  0.00  0.00     0.049 A 
HETATM   39  C   UNK N   1      35.862  12.061  14.825  0.00  0.00     0.112 A 
HETATM   40 Cl   UNK N   1      35.140  11.209  17.322  0.00  0.00    -0.083 Cl
HETATM   41  N   UNK N   1      35.736  12.107  13.471  0.00  0.00    -0.367 N 
ATOM     42  HN  UNK N   1      36.377  12.688  12.930  1.00  0.00     0.165 HD
ENDBRANCH  34  35
ENDBRANCH  31  34
ENDBRANCH  25  30
ENDBRANCH   1  23
TORSDOF 8
ENDMDL
MODEL 5
REMARK VINA RESULT:      -8.3      6.402     10.539
REMARK  8 active torsions:
REMARK  status: ('A' for Active; 'I' for Inactive)
REMARK    1  A    between atoms: C_2  and  C_4 
REMARK    2  A    between atoms: C_2  and  N_6 
REMARK    3  A    between atoms: C_4  and  O_5 
REMARK    4  A    between atoms: C_8  and  C_18 
REMARK       I    between atoms: C_13  and  N_17 
REMARK    5  A    between atoms: C_18  and  C_20 
REMARK    6  A    between atoms: C_22  and  N_27 
REMARK       I    between atoms: N_27  and  C_28 
REMARK    7  A    between atoms: C_28  and  C_30 
REMARK    8  A    between atoms: C_30  and  C_31 
ROOT
HETATM    1  C   UNK N   1      24.614  20.244   3.257  0.00  0.00     0.196 C 
HETATM    2  O   UNK N   1      24.563  21.072   2.360  0.00  0.00    -0.287 OA
ENDROOT
BRANCH   1   3
HETATM    3  C   UNK N   1      23.512  19.307   3.481  0.00  0.00     0.046 A 
HETATM    4  C   UNK N   1      23.539  18.295   4.434  0.00  0.00     0.110 A 
HETATM    5  N   UNK N   1      22.322  17.717   4.507  0.00  0.00    -0.330 N 
HETATM    6  C   UNK N   1      21.538  18.371   3.620  0.00  0.00     0.136 A 
HETATM    7  C   UNK N   1      22.244  19.331   2.964  0.00  0.00     0.040 A 
HETATM    8  N   UNK N   1      20.211  18.196   3.426  0.00  0.00    -0.176 N 
HETATM    9  C   UNK N   1      21.610  20.170   2.063  0.00  0.00     0.122 A 
HETATM   10  N   UNK N   1      20.271  19.994   1.868  0.00  0.00    -0.201 N 
HETATM   11  C   UNK N   1      19.571  19.024   2.545  0.00  0.00     0.677 A 
ATOM     12  HN  UNK N   1      19.779  20.595   1.207  1.00  0.00     0.183 HD
HETATM   13  N   UNK N   1      18.181  18.906   2.359  0.00  0.00    -0.234 N 
HETATM   14  H   UNK N   1      17.696  19.444   1.692  0.00  0.00     0.174 HD
HETATM   15  H   UNK N   1      17.678  18.267   2.913  0.00  0.00     0.174 HD
ATOM     16  HN  UNK N   1      19.700  17.466   3.924  1.00  0.00     0.186 HD
BRANCH   5  17
HETATM   17  C   UNK N   1      21.946  16.650   5.447  0.00  0.00     0.052 C 
HETATM   18  C   UNK N   1      23.176  16.098   6.172  0.00  0.00     0.041 C 
HETATM   19  C   UNK N   1      21.294  15.502   4.692  0.00  0.00     0.041 C 
BRANCH  17  20
HETATM   20  C   UNK N   1      20.982  17.227   6.481  0.00  0.00     0.194 C 
BRANCH  20  21
HETATM   21  O   UNK N   1      21.362  18.513   6.872  0.00  0.00    -0.398 OA
HETATM   22  H   UNK N   1      22.214  18.655   7.314  0.00  0.00     0.209 HD
ENDBRANCH  20  21
ENDBRANCH  17  20
ENDBRANCH   5  17
ENDBRANCH   1   3
BRANCH   1  23
HETATM   23  C   UNK N   1      25.745  20.217   4.208  0.00  0.00     0.032 A 
HETATM   24  C   UNK N   1      26.945  19.598   3.891  0.00  0.00     0.048 A 
HETATM   25  C   UNK N   1      27.999  19.604   4.815  0.00  0.00     0.051 A 
HETATM   26  C   UNK N   1      27.847  20.287   6.023  0.00  0.00     0.117 A 
HETATM   27  N   UNK N   1      26.674  20.905   6.314  0.00  0.00    -0.372 N 
HETATM   28  C   UNK N   1      25.630  20.867   5.450  0.00  0.00     0.103 A 
ATOM     29  HN  UNK N   1      26.577  21.405   7.197  1.00  0.00     0.164 HD
BRANCH  25  30
HETATM   30  N   UNK N   1      29.189  18.870   4.582  0.00  0.00    -0.326 N 
HETATM   31  C   UNK N   1      29.400  17.605   5.034  0.00  0.00     0.227 C 
HETATM   32  O   UNK N   1      28.570  17.033   5.725  0.00  0.00    -0.273 OA
HETATM   33  H   UNK N   1      29.906  19.303   4.063  0.00  0.00     0.169 HD
BRANCH  31  34
HETATM   34  C   UNK N   1      30.689  16.916   4.741  0.00  0.00     0.160 C 
BRANCH  34  35
HETATM   35  C   UNK N   1      31.671  16.974   5.872  0.00  0.00     0.017 A 
HETATM   36  C   UNK N   1      32.980  17.374   5.600  0.00  0.00     0.027 A 
HETATM   37  C   UNK N   1      33.911  17.431   6.635  0.00  0.00     0.027 A 
HETATM   38  C   UNK N   1      33.524  17.092   7.931  0.00  0.00     0.049 A 
HETATM   39  C   UNK N   1      32.208  16.695   8.173  0.00  0.00     0.112 A 
HETATM   40 Cl   UNK N   1      34.683  17.166   9.239  0.00  0.00    -0.083 Cl
HETATM   41  N   UNK N   1      31.315  16.641   7.148  0.00  0.00    -0.367 N 
ATOM     42  HN  UNK N   1      30.357  16.344   7.337  1.00  0.00     0.165 HD
ENDBRANCH  34  35
ENDBRANCH  31  34
ENDBRANCH  25  30
ENDBRANCH   1  23
TORSDOF 8
ENDMDL
MODEL 6
REMARK VINA RESULT:      -8.2      8.443     12.190
REMARK  8 active torsions:
REMARK  status: ('A' for Active; 'I' for Inactive)
REMARK    1  A    between atoms: C_2  and  C_4 
REMARK    2  A    between atoms: C_2  and  N_6 
REMARK    3  A    between atoms: C_4  and  O_5 
REMARK    4  A    between atoms: C_8  and  C_18 
REMARK       I    between atoms: C_13  and  N_17 
REMARK    5  A    between atoms: C_18  and  C_20 
REMARK    6  A    between atoms: C_22  and  N_27 
REMARK       I    between atoms: N_27  and  C_28 
REMARK    7  A    between atoms: C_28  and  C_30 
REMARK    8  A    between atoms: C_30  and  C_31 
ROOT
HETATM    1  C   UNK N   1      24.929  19.821   3.163  0.00  0.00     0.196 C 
HETATM    2  O   UNK N   1      25.384  20.619   2.357  0.00  0.00    -0.287 OA
ENDROOT
BRANCH   1   3
HETATM    3  C   UNK N   1      25.806  18.904   3.892  0.00  0.00     0.046 A 
HETATM    4  C   UNK N   1      26.326  17.735   3.347  0.00  0.00     0.110 A 
HETATM    5  N   UNK N   1      27.222  17.203   4.205  0.00  0.00    -0.330 N 
HETATM    6  C   UNK N   1      27.274  18.038   5.266  0.00  0.00     0.136 A 
HETATM    7  C   UNK N   1      26.404  19.073   5.113  0.00  0.00     0.040 A 
HETATM    8  N   UNK N   1      28.112  17.955   6.325  0.00  0.00    -0.176 N 
HETATM    9  C   UNK N   1      26.353  20.087   6.054  0.00  0.00     0.122 A 
HETATM   10  N   UNK N   1      27.199  20.003   7.122  0.00  0.00    -0.201 N 
HETATM   11  C   UNK N   1      28.077  18.955   7.258  0.00  0.00     0.677 A 
ATOM     12  HN  UNK N   1      27.180  20.734   7.833  1.00  0.00     0.183 HD
HETATM   13  N   UNK N   1      28.972  18.928   8.344  0.00  0.00    -0.234 N 
HETATM   14  H   UNK N   1      28.937  19.598   9.065  0.00  0.00     0.174 HD
HETATM   15  H   UNK N   1      29.653  18.219   8.384  0.00  0.00     0.174 HD
ATOM     16  HN  UNK N   1      28.753  17.167   6.425  1.00  0.00     0.186 HD
BRANCH   5  17
HETATM   17  C   UNK N   1      28.026  15.997   3.949  0.00  0.00     0.052 C 
HETATM   18  C   UNK N   1      27.641  15.353   2.615  0.00  0.00     0.041 C 
HETATM   19  C   UNK N   1      27.787  14.974   5.048  0.00  0.00     0.041 C 
BRANCH  17  20
HETATM   20  C   UNK N   1      29.500  16.395   3.898  0.00  0.00     0.194 C 
BRANCH  20  21
HETATM   21  O   UNK N   1      29.859  16.860   2.630  0.00  0.00    -0.398 OA
HETATM   22  H   UNK N   1      29.942  17.812   2.468  0.00  0.00     0.209 HD
ENDBRANCH  20  21
ENDBRANCH  17  20
ENDBRANCH   5  17
ENDBRANCH   1   3
BRANCH   1  23
HETATM   23  C   UNK N   1      23.471  19.687   3.365  0.00  0.00     0.032 A 
HETATM   24  C   UNK N   1      22.942  18.728   4.216  0.00  0.00     0.048 A 
HETATM   25  C   UNK N   1      21.553  18.639   4.390  0.00  0.00     0.051 A 
HETATM   26  C   UNK N   1      20.723  19.560   3.748  0.00  0.00     0.117 A 
HETATM   27  N   UNK N   1      21.254  20.505   2.932  0.00  0.00    -0.372 N 
HETATM   28  C   UNK N   1      22.591  20.572   2.717  0.00  0.00     0.103 A 
ATOM     29  HN  UNK N   1      20.637  21.175   2.473  1.00  0.00     0.164 HD
BRANCH  25  30
HETATM   30  N   UNK N   1      20.970  17.591   5.145  0.00  0.00    -0.326 N 
HETATM   31  C   UNK N   1      20.806  17.630   6.494  0.00  0.00     0.227 C 
HETATM   32  O   UNK N   1      21.206  18.579   7.154  0.00  0.00    -0.273 OA
HETATM   33  H   UNK N   1      20.667  16.787   4.664  0.00  0.00     0.169 HD
BRANCH  31  34
HETATM   34  C   UNK N   1      20.185  16.475   7.201  0.00  0.00     0.160 C 
BRANCH  34  35
HETATM   35  C   UNK N   1      21.181  15.475   7.706  0.00  0.00     0.017 A 
HETATM   36  C   UNK N   1      20.974  14.902   8.962  0.00  0.00     0.027 A 
HETATM   37  C   UNK N   1      21.890  13.973   9.453  0.00  0.00     0.027 A 
HETATM   38  C   UNK N   1      22.999  13.623   8.684  0.00  0.00     0.049 A 
HETATM   39  C   UNK N   1      23.180  14.213   7.432  0.00  0.00     0.112 A 
HETATM   40 Cl   UNK N   1      24.151  12.454   9.289  0.00  0.00    -0.083 Cl
HETATM   41  N   UNK N   1      22.278  15.122   6.972  0.00  0.00    -0.367 N 
ATOM     42  HN  UNK N   1      22.424  15.550   6.057  1.00  0.00     0.165 HD
ENDBRANCH  34  35
ENDBRANCH  31  34
ENDBRANCH  25  30
ENDBRANCH   1  23
TORSDOF 8
ENDMDL
MODEL 7
REMARK VINA RESULT:      -7.9      7.905     12.258
REMARK  8 active torsions:
REMARK  status: ('A' for Active; 'I' for Inactive)
REMARK    1  A    between atoms: C_2  and  C_4 
REMARK    2  A    between atoms: C_2  and  N_6 
REMARK    3  A    between atoms: C_4  and  O_5 
REMARK    4  A    between atoms: C_8  and  C_18 
REMARK       I    between atoms: C_13  and  N_17 
REMARK    5  A    between atoms: C_18  and  C_20 
REMARK    6  A    between atoms: C_22  and  N_27 
REMARK       I    between atoms: N_27  and  C_28 
REMARK    7  A    between atoms: C_28  and  C_30 
REMARK    8  A    between atoms: C_30  and  C_31 
ROOT
HETATM    1  C   UNK N   1      21.788  19.284   3.621  0.00  0.00     0.196 C 
HETATM    2  O   UNK N   1      21.002  20.188   3.865  0.00  0.00    -0.287 OA
ENDROOT
BRANCH   1   3
HETATM    3  C   UNK N   1      21.314  17.924   3.360  0.00  0.00     0.046 A 
HETATM    4  C   UNK N   1      21.310  16.911   4.313  0.00  0.00     0.110 A 
HETATM    5  N   UNK N   1      20.665  15.834   3.816  0.00  0.00    -0.330 N 
HETATM    6  C   UNK N   1      20.257  16.176   2.574  0.00  0.00     0.136 A 
HETATM    7  C   UNK N   1      20.658  17.438   2.260  0.00  0.00     0.040 A 
HETATM    8  N   UNK N   1      19.484  15.441   1.742  0.00  0.00    -0.176 N 
HETATM    9  C   UNK N   1      20.280  18.012   1.059  0.00  0.00     0.122 A 
HETATM   10  N   UNK N   1      19.499  17.270   0.220  0.00  0.00    -0.201 N 
HETATM   11  C   UNK N   1      19.096  16.000   0.555  0.00  0.00     0.677 A 
ATOM     12  HN  UNK N   1      19.209  17.667  -0.673  1.00  0.00     0.183 HD
HETATM   13  N   UNK N   1      18.247  15.285  -0.310  0.00  0.00    -0.234 N 
HETATM   14  H   UNK N   1      17.995  15.630  -1.196  0.00  0.00     0.174 HD
HETATM   15  H   UNK N   1      17.896  14.412  -0.020  0.00  0.00     0.174 HD
ATOM     16  HN  UNK N   1      19.198  14.494   1.993  1.00  0.00     0.186 HD
BRANCH   5  17
HETATM   17  C   UNK N   1      20.404  14.589   4.555  0.00  0.00     0.052 C 
HETATM   18  C   UNK N   1      21.075  14.615   5.930  0.00  0.00     0.041 C 
HETATM   19  C   UNK N   1      20.963  13.404   3.784  0.00  0.00     0.041 C 
BRANCH  17  20
HETATM   20  C   UNK N   1      18.896  14.442   4.746  0.00  0.00     0.194 C 
BRANCH  20  21
HETATM   21  O   UNK N   1      18.355  13.519   3.848  0.00  0.00    -0.398 OA
HETATM   22  H   UNK N   1      17.422  13.262   3.917  0.00  0.00     0.209 HD
ENDBRANCH  20  21
ENDBRANCH  17  20
ENDBRANCH   5  17
ENDBRANCH   1   3
BRANCH   1  23
HETATM   23  C   UNK N   1      23.248  19.508   3.672  0.00  0.00     0.032 A 
HETATM   24  C   UNK N   1      24.047  18.873   4.610  0.00  0.00     0.048 A 
HETATM   25  C   UNK N   1      25.430  19.101   4.619  0.00  0.00     0.051 A 
HETATM   26  C   UNK N   1      25.994  19.922   3.640  0.00  0.00     0.117 A 
HETATM   27  N   UNK N   1      25.204  20.524   2.716  0.00  0.00    -0.372 N 
HETATM   28  C   UNK N   1      23.859  20.350   2.725  0.00  0.00     0.103 A 
ATOM     29  HN  UNK N   1      25.628  21.117   2.003  1.00  0.00     0.164 HD
BRANCH  25  30
HETATM   30  N   UNK N   1      26.258  18.576   5.642  0.00  0.00    -0.326 N 
HETATM   31  C   UNK N   1      27.017  17.456   5.503  0.00  0.00     0.227 C 
HETATM   32  O   UNK N   1      26.989  16.797   4.474  0.00  0.00    -0.273 OA
HETATM   33  H   UNK N   1      26.285  19.050   6.505  0.00  0.00     0.169 HD
BRANCH  31  34
HETATM   34  C   UNK N   1      27.854  16.978   6.639  0.00  0.00     0.160 C 
BRANCH  34  35
HETATM   35  C   UNK N   1      29.327  17.076   6.382  0.00  0.00     0.017 A 
HETATM   36  C   UNK N   1      30.200  17.031   7.471  0.00  0.00     0.027 A 
HETATM   37  C   UNK N   1      31.573  17.124   7.255  0.00  0.00     0.027 A 
HETATM   38  C   UNK N   1      32.062  17.257   5.956  0.00  0.00     0.049 A 
HETATM   39  C   UNK N   1      31.165  17.300   4.887  0.00  0.00     0.112 A 
HETATM   40 Cl   UNK N   1      33.784  17.369   5.673  0.00  0.00    -0.083 Cl
HETATM   41  N   UNK N   1      29.827  17.212   5.118  0.00  0.00    -0.367 N 
ATOM     42  HN  UNK N   1      29.181  17.250   4.328  1.00  0.00     0.165 HD
ENDBRANCH  34  35
ENDBRANCH  31  34
ENDBRANCH  25  30
ENDBRANCH   1  23
TORSDOF 8
ENDMDL
MODEL 8
REMARK VINA RESULT:      -7.9      4.334     10.173
REMARK  8 active torsions:
REMARK  status: ('A' for Active; 'I' for Inactive)
REMARK    1  A    between atoms: C_2  and  C_4 
REMARK    2  A    between atoms: C_2  and  N_6 
REMARK    3  A    between atoms: C_4  and  O_5 
REMARK    4  A    between atoms: C_8  and  C_18 
REMARK       I    between atoms: C_13  and  N_17 
REMARK    5  A    between atoms: C_18  and  C_20 
REMARK    6  A    between atoms: C_22  and  N_27 
REMARK       I    between atoms: N_27  and  C_28 
REMARK    7  A    between atoms: C_28  and  C_30 
REMARK    8  A    between atoms: C_30  and  C_31 
ROOT
HETATM    1  C   UNK N   1      34.482  14.064   8.421  0.00  0.00     0.196 C 
HETATM    2  O   UNK N   1      34.720  13.395   7.427  0.00  0.00    -0.287 OA
ENDROOT
BRANCH   1   3
HETATM    3  C   UNK N   1      34.582  13.484   9.761  0.00  0.00     0.046 A 
HETATM    4  C   UNK N   1      34.280  12.158  10.054  0.00  0.00     0.110 A 
HETATM    5  N   UNK N   1      34.630  11.892  11.330  0.00  0.00    -0.330 N 
HETATM    6  C   UNK N   1      35.158  13.033  11.825  0.00  0.00     0.136 A 
HETATM    7  C   UNK N   1      35.122  14.028  10.897  0.00  0.00     0.040 A 
HETATM    8  N   UNK N   1      35.735  13.204  13.037  0.00  0.00    -0.176 N 
HETATM    9  C   UNK N   1      35.683  15.262  11.174  0.00  0.00     0.122 A 
HETATM   10  N   UNK N   1      36.265  15.433  12.397  0.00  0.00    -0.201 N 
HETATM   11  C   UNK N   1      36.301  14.416  13.320  0.00  0.00     0.677 A 
ATOM     12  HN  UNK N   1      36.683  16.334  12.630  1.00  0.00     0.183 HD
HETATM   13  N   UNK N   1      36.956  14.611  14.550  0.00  0.00    -0.234 N 
HETATM   14  H   UNK N   1      37.324  15.485  14.813  0.00  0.00     0.174 HD
HETATM   15  H   UNK N   1      37.050  13.849  15.166  0.00  0.00     0.174 HD
ATOM     16  HN  UNK N   1      35.747  12.447  13.722  1.00  0.00     0.186 HD
BRANCH   5  17
HETATM   17  C   UNK N   1      34.521  10.577  11.981  0.00  0.00     0.052 C 
HETATM   18  C   UNK N   1      33.559   9.664  11.218  0.00  0.00     0.041 C 
HETATM   19  C   UNK N   1      33.985  10.743  13.395  0.00  0.00     0.041 C 
BRANCH  17  20
HETATM   20  C   UNK N   1      35.903   9.927  12.004  0.00  0.00     0.194 C 
BRANCH  20  21
HETATM   21  O   UNK N   1      36.538  10.122  13.233  0.00  0.00    -0.398 OA
HETATM   22  H   UNK N   1      37.450  10.451  13.262  0.00  0.00     0.209 HD
ENDBRANCH  20  21
ENDBRANCH  17  20
ENDBRANCH   5  17
ENDBRANCH   1   3
BRANCH   1  23
HETATM   23  C   UNK N   1      33.994  15.454   8.307  0.00  0.00     0.032 A 
HETATM   24  C   UNK N   1      32.711  15.808   8.697  0.00  0.00     0.048 A 
HETATM   25  C   UNK N   1      32.289  17.140   8.585  0.00  0.00     0.051 A 
HETATM   26  C   UNK N   1      33.190  18.108   8.136  0.00  0.00     0.117 A 
HETATM   27  N   UNK N   1      34.449  17.753   7.774  0.00  0.00    -0.372 N 
HETATM   28  C   UNK N   1      34.855  16.460   7.833  0.00  0.00     0.103 A 
ATOM     29  HN  UNK N   1      35.099  18.469   7.453  1.00  0.00     0.164 HD
BRANCH  25  30
HETATM   30  N   UNK N   1      30.948  17.513   8.847  0.00  0.00    -0.326 N 
HETATM   31  C   UNK N   1      29.961  17.501   7.912  0.00  0.00     0.227 C 
HETATM   32  O   UNK N   1      30.194  17.203   6.749  0.00  0.00    -0.273 OA
HETATM   33  H   UNK N   1      30.717  17.800   9.761  0.00  0.00     0.169 HD
BRANCH  31  34
HETATM   34  C   UNK N   1      28.579  17.916   8.283  0.00  0.00     0.160 C 
BRANCH  34  35
HETATM   35  C   UNK N   1      27.801  18.502   7.143  0.00  0.00     0.017 A 
HETATM   36  C   UNK N   1      27.767  19.890   7.000  0.00  0.00     0.027 A 
HETATM   37  C   UNK N   1      27.047  20.455   5.950  0.00  0.00     0.027 A 
HETATM   38  C   UNK N   1      26.372  19.630   5.051  0.00  0.00     0.049 A 
HETATM   39  C   UNK N   1      26.424  18.246   5.219  0.00  0.00     0.112 A 
HETATM   40 Cl   UNK N   1      25.471  20.330   3.726  0.00  0.00    -0.083 Cl
HETATM   41  N   UNK N   1      27.128  17.712   6.254  0.00  0.00    -0.367 N 
ATOM     42  HN  UNK N   1      27.154  16.698   6.369  1.00  0.00     0.165 HD
ENDBRANCH  34  35
ENDBRANCH  31  34
ENDBRANCH  25  30
ENDBRANCH   1  23
TORSDOF 8
ENDMDL
MODEL 9
REMARK VINA RESULT:      -7.6      7.386     11.935
REMARK  8 active torsions:
REMARK  status: ('A' for Active; 'I' for Inactive)
REMARK    1  A    between atoms: C_2  and  C_4 
REMARK    2  A    between atoms: C_2  and  N_6 
REMARK    3  A    between atoms: C_4  and  O_5 
REMARK    4  A    between atoms: C_8  and  C_18 
REMARK       I    between atoms: C_13  and  N_17 
REMARK    5  A    between atoms: C_18  and  C_20 
REMARK    6  A    between atoms: C_22  and  N_27 
REMARK       I    between atoms: N_27  and  C_28 
REMARK    7  A    between atoms: C_28  and  C_30 
REMARK    8  A    between atoms: C_30  and  C_31 
ROOT
HETATM    1  C   UNK N   1      22.012  19.478   3.604  0.00  0.00     0.196 C 
HETATM    2  O   UNK N   1      21.268  20.439   3.475  0.00  0.00    -0.287 OA
ENDROOT
BRANCH   1   3
HETATM    3  C   UNK N   1      21.476  18.133   3.813  0.00  0.00     0.046 A 
HETATM    4  C   UNK N   1      21.358  17.182   2.805  0.00  0.00     0.110 A 
HETATM    5  N   UNK N   1      20.989  16.001   3.346  0.00  0.00    -0.330 N 
HETATM    6  C   UNK N   1      20.893  16.208   4.678  0.00  0.00     0.136 A 
HETATM    7  C   UNK N   1      21.163  17.505   4.990  0.00  0.00     0.040 A 
HETATM    8  N   UNK N   1      20.648  15.277   5.629  0.00  0.00    -0.176 N 
HETATM    9  C   UNK N   1      21.194  17.913   6.312  0.00  0.00     0.122 A 
HETATM   10  N   UNK N   1      20.947  16.973   7.271  0.00  0.00    -0.201 N 
HETATM   11  C   UNK N   1      20.684  15.666   6.940  0.00  0.00     0.677 A 
ATOM     12  HN  UNK N   1      20.960  17.247   8.254  1.00  0.00     0.183 HD
HETATM   13  N   UNK N   1      20.488  14.713   7.957  0.00  0.00    -0.234 N 
HETATM   14  H   UNK N   1      20.449  14.965   8.908  0.00  0.00     0.174 HD
HETATM   15  H   UNK N   1      20.386  13.765   7.710  0.00  0.00     0.174 HD
ATOM     16  HN  UNK N   1      20.442  14.310   5.375  1.00  0.00     0.186 HD
BRANCH   5  17
HETATM   17  C   UNK N   1      20.825  14.743   2.601  0.00  0.00     0.052 C 
HETATM   18  C   UNK N   1      19.442  14.136   2.846  0.00  0.00     0.041 C 
HETATM   19  C   UNK N   1      21.867  13.734   3.057  0.00  0.00     0.041 C 
BRANCH  17  20
HETATM   20  C   UNK N   1      20.977  15.035   1.110  0.00  0.00     0.194 C 
BRANCH  20  21
HETATM   21  O   UNK N   1      22.218  14.609   0.630  0.00  0.00    -0.398 OA
HETATM   22  H   UNK N   1      23.033  14.882   1.079  0.00  0.00     0.209 HD
ENDBRANCH  20  21
ENDBRANCH  17  20
ENDBRANCH   5  17
ENDBRANCH   1   3
BRANCH   1  23
HETATM   23  C   UNK N   1      23.480  19.649   3.646  0.00  0.00     0.032 A 
HETATM   24  C   UNK N   1      24.255  19.024   4.611  0.00  0.00     0.048 A 
HETATM   25  C   UNK N   1      25.646  19.202   4.611  0.00  0.00     0.051 A 
HETATM   26  C   UNK N   1      26.240  19.960   3.600  0.00  0.00     0.117 A 
HETATM   27  N   UNK N   1      25.472  20.552   2.651  0.00  0.00    -0.372 N 
HETATM   28  C   UNK N   1      24.121  20.427   2.666  0.00  0.00     0.103 A 
ATOM     29  HN  UNK N   1      25.917  21.098   1.914  1.00  0.00     0.164 HD
BRANCH  25  30
HETATM   30  N   UNK N   1      26.455  18.689   5.656  0.00  0.00    -0.326 N 
HETATM   31  C   UNK N   1      27.080  17.482   5.608  0.00  0.00     0.227 C 
HETATM   32  O   UNK N   1      26.936  16.732   4.653  0.00  0.00    -0.273 OA
HETATM   33  H   UNK N   1      26.571  19.239   6.464  0.00  0.00     0.169 HD
BRANCH  31  34
HETATM   34  C   UNK N   1      27.907  17.027   6.760  0.00  0.00     0.160 C 
BRANCH  34  35
HETATM   35  C   UNK N   1      29.383  17.096   6.504  0.00  0.00     0.017 A 
HETATM   36  C   UNK N   1      30.253  17.029   7.593  0.00  0.00     0.027 A 
HETATM   37  C   UNK N   1      31.629  17.095   7.378  0.00  0.00     0.027 A 
HETATM   38  C   UNK N   1      32.120  17.224   6.080  0.00  0.00     0.049 A 
HETATM   39  C   UNK N   1      31.225  17.289   5.011  0.00  0.00     0.112 A 
HETATM   40 Cl   UNK N   1      33.845  17.302   5.799  0.00  0.00    -0.083 Cl
HETATM   41  N   UNK N   1      29.886  17.227   5.241  0.00  0.00    -0.367 N 
ATOM     42  HN  UNK N   1      29.241  17.281   4.451  1.00  0.00     0.165 HD
ENDBRANCH  34  35
ENDBRANCH  31  34
ENDBRANCH  25  30
ENDBRANCH   1  23
TORSDOF 8
ENDMDL
