REMARK  11 active torsions:
REMARK  status: ('A' for Active; 'I' for Inactive)
REMARK    1  A    between atoms: C_7  and  C_11 
REMARK       I    between atoms: C_11  and  N_13 
REMARK    2  A    between atoms: N_13  and  C_14 
REMARK    3  A    between atoms: C_14  and  C_19 
REMARK       I    between atoms: C_19  and  N_21 
REMARK    4  A    between atoms: C_22  and  N_21 
REMARK    5  A    between atoms: C_22  and  C_23 
REMARK    6  A    between atoms: C_22  and  C_30 
REMARK    7  A    between atoms: C_23  and  C_24 
REMARK       I    between atoms: C_30  and  N_32 
REMARK    8  A    between atoms: N_32  and  C_33 
REMARK    9  A    between atoms: C_33  and  C_34 
REMARK   10  A    between atoms: N_37  and  C_40 
REMARK   11  A    between atoms: C_40  and  C_41 
ROOT
HETATM    1  C   UNK N   1      -0.827  -0.586   0.160  0.00  0.00     0.180 C 
ENDROOT
BRANCH   1   2
HETATM    2  N   UNK N   1      -1.807  -0.479  -0.906  0.00  0.00    -0.345 N 
HETATM    3  C   UNK N   1      -2.598   0.593  -1.174  0.00  0.00     0.246 C 
HETATM    4  O   UNK N   1      -3.341   0.528  -2.141  0.00  0.00    -0.271 OA
HETATM    5  H   UNK N   1      -1.909  -1.262  -1.494  0.00  0.00     0.163 HD
BRANCH   3   6
HETATM    6  C   UNK N   1      -2.606   1.851  -0.316  0.00  0.00     0.114 C 
HETATM    7  C   UNK N   1      -3.512   1.651   0.879  0.00  0.00     0.041 C 
HETATM    8  C   UNK N   1      -4.018   3.038   1.237  0.00  0.00     0.003 C 
HETATM    9  C   UNK N   1      -3.948   3.868  -0.034  0.00  0.00     0.003 C 
HETATM   10  C   UNK N   1      -3.269   3.001  -1.074  0.00  0.00     0.041 C 
BRANCH   6  11
HETATM   11  N   UNK N   1      -1.246   2.127   0.130  0.00  0.00    -0.338 N 
HETATM   12  C   UNK N   1      -0.485   3.236  -0.027  0.00  0.00     0.259 C 
HETATM   13  O   UNK N   1      -0.954   4.273  -0.478  0.00  0.00    -0.267 OA
HETATM   14  H   UNK N   1      -0.813   1.392   0.622  0.00  0.00     0.164 HD
BRANCH  12  15
HETATM   15  C   UNK N   1       0.957   3.135   0.224  0.00  0.00     0.074 A 
HETATM   16  C   UNK N   1       1.629   1.970   0.640  0.00  0.00     0.037 A 
HETATM   17  C   UNK N   1       3.039   2.122   0.584  0.00  0.00    -0.018 A 
HETATM   18  C   UNK N   1       3.977   1.136   0.885  0.00  0.00     0.013 A 
HETATM   19  C   UNK N   1       3.456   3.371   0.133  0.00  0.00     0.016 A 
HETATM   20  C   UNK N   1       5.341   1.429   0.709  0.00  0.00     0.007 A 
HETATM   21  C   UNK N   1       5.748   2.696   0.239  0.00  0.00    -0.061 A 
HETATM   22  C   UNK N   1       7.191   2.977   0.028  0.00  0.00     0.048 C 
HETATM   23  C   UNK N   1       4.796   3.687  -0.051  0.00  0.00     0.026 A 
HETATM   24  S   UNK N   1       2.107   4.272  -0.172  0.00  0.00    -0.084 SA
ENDBRANCH  12  15
ENDBRANCH   6  11
ENDBRANCH   3   6
ENDBRANCH   1   2
BRANCH   1  25
HETATM   25  C   UNK N   1      -1.267  -1.672   1.153  0.00  0.00     0.073 C 
BRANCH  25  26
HETATM   26  C   UNK N   1      -1.888  -2.868   0.489  0.00  0.00    -0.056 A 
HETATM   27  C   UNK N   1      -1.238  -3.538  -0.558  0.00  0.00     0.007 A 
HETATM   28  C   UNK N   1      -1.860  -4.610  -1.201  0.00  0.00     0.001 A 
HETATM   29  C   UNK N   1      -3.132  -5.021  -0.795  0.00  0.00     0.000 A 
HETATM   30  C   UNK N   1      -3.779  -4.360   0.254  0.00  0.00     0.001 A 
HETATM   31  C   UNK N   1      -3.160  -3.281   0.890  0.00  0.00     0.007 A 
ENDBRANCH  25  26
ENDBRANCH   1  25
BRANCH   1  32
HETATM   32  C   UNK N   1       0.517  -0.981  -0.400  0.00  0.00     0.240 C 
HETATM   33  O   UNK N   1       0.654  -1.169  -1.603  0.00  0.00    -0.271 OA
HETATM   34  N   UNK N   1       1.537  -1.252   0.453  0.00  0.00    -0.359 N 
HETATM   35  H   UNK N   1       1.480  -0.942   1.386  0.00  0.00     0.162 HD
BRANCH  34  36
HETATM   36  C   UNK N   1       2.703  -1.986   0.023  0.00  0.00     0.127 C 
BRANCH  36  37
HETATM   37  C   UNK N   1       2.251  -3.417  -0.250  0.00  0.00     0.007 C 
HETATM   38  C   UNK N   1       3.325  -4.293  -0.877  0.00  0.00     0.036 C 
HETATM   39  C   UNK N   1       2.715  -5.674  -1.133  0.00  0.00     0.273 C 
HETATM   40  N   UNK N   1       2.260  -6.246   0.135  0.00  0.00     0.088 N 
HETATM   41  C   UNK N   1       1.164  -5.447   0.669  0.00  0.00     0.273 C 
HETATM   42  C   UNK N   1       1.688  -4.063   1.017  0.00  0.00     0.036 C 
BRANCH  40  43
HETATM   43  C   UNK N   1       1.761  -7.591  -0.098  0.00  0.00     0.277 C 
BRANCH  43  44
HETATM   44  C   UNK N   1       2.564  -8.647   0.680  0.00  0.00     0.018 C 
HETATM   45  C   UNK N   1       3.556  -8.067   1.709  0.00  0.00     0.032 C 
HETATM   46  C   UNK N   1       4.887  -7.647   1.051  0.00  0.00     0.168 C 
HETATM   47  O   UNK N   1       4.819  -7.716  -0.354  0.00  0.00    -0.391 OA
HETATM   48  C   UNK N   1       4.676  -9.077  -0.674  0.00  0.00     0.168 C 
HETATM   49  C   UNK N   1       3.277  -9.591  -0.293  0.00  0.00     0.032 C 
ENDBRANCH  43  44
ENDBRANCH  40  43
ENDBRANCH  36  37
ENDBRANCH  34  36
ENDBRANCH   1  32
TORSDOF 11
