MODEL 1
REMARK VINA RESULT:      -4.8      0.000      0.000
REMARK  7 active torsions:
REMARK  status: ('A' for Active; 'I' for Inactive)
REMARK    1  A    between atoms: C_6  and  C_5 
REMARK    2  A    between atoms: C_7  and  C_6 
REMARK    3  A    between atoms: C_8  and  C_7 
REMARK    4  A    between atoms: C_9  and  C_8 
REMARK    5  A    between atoms: O_17  and  C_9 
REMARK    6  A    between atoms: O_17  and  C_14 
REMARK    7  A    between atoms: O_16  and  C_15 
ROOT
HETATM    1  C   UNK N   1      37.477  15.471  15.824  0.00  0.00     0.051 C 
HETATM    2  C   UNK N   1      33.975  11.072  14.397  0.00  0.00     0.052 C 
HETATM    3  C   UNK N   1      35.052  12.795  12.343  0.00  0.00     0.052 C 
HETATM    4  C   UNK N   1      36.061  13.524  16.456  0.00  0.00     0.047 A 
HETATM    5  C   UNK N   1      36.577  14.343  15.451  0.00  0.00    -0.026 A 
HETATM    6  C   UNK N   1      34.865  12.208  14.796  0.00  0.00    -0.020 A 
HETATM    7  C   UNK N   1      35.393  13.040  13.780  0.00  0.00    -0.020 A 
HETATM    8  C   UNK N   1      35.199  12.466  16.157  0.00  0.00     0.075 A 
HETATM    9  C   UNK N   1      36.239  14.105  14.116  0.00  0.00     0.078 A 
ENDROOT
BRANCH   8  10
HETATM   10  O   UNK N   1      34.720  11.743  17.211  0.00  0.00    -0.351 OA
BRANCH  10  11
HETATM   11  C   UNK N   1      35.418  10.782  17.905  0.00  0.00     0.175 C 
BRANCH  11  12
HETATM   12  C   UNK N   1      34.814   9.417  17.655  0.00  0.00     0.027 C 
BRANCH  12  13
HETATM   13  C   UNK N   1      35.679   8.664  16.663  0.00  0.00     0.002 C 
BRANCH  13  14
HETATM   14  C   UNK N   1      37.005   9.366  16.464  0.00  0.00    -0.000 C 
BRANCH  14  15
HETATM   15  C   UNK N   1      37.316   9.407  14.981  0.00  0.00    -0.005 C 
HETATM   16  C   UNK N   1      38.168  10.618  14.672  0.00  0.00     0.005 C 
ENDBRANCH  14  15
ENDBRANCH  13  14
ENDBRANCH  12  13
ENDBRANCH  11  12
ENDBRANCH  10  11
ENDBRANCH   8  10
BRANCH   9  17
HETATM   17  O   UNK N   1      36.732  14.905  13.145  0.00  0.00    -0.360 OA
HETATM   18  H   UNK N   1      36.234  15.061  12.367  0.00  0.00     0.217 HD
ENDBRANCH   9  17
TORSDOF 7
ENDMDL
MODEL 2
REMARK VINA RESULT:      -4.7     14.399     16.873
REMARK  7 active torsions:
REMARK  status: ('A' for Active; 'I' for Inactive)
REMARK    1  A    between atoms: C_6  and  C_5 
REMARK    2  A    between atoms: C_7  and  C_6 
REMARK    3  A    between atoms: C_8  and  C_7 
REMARK    4  A    between atoms: C_9  and  C_8 
REMARK    5  A    between atoms: O_17  and  C_9 
REMARK    6  A    between atoms: O_17  and  C_14 
REMARK    7  A    between atoms: O_16  and  C_15 
ROOT
HETATM    1  C   UNK N   1      19.975  12.082  11.797  0.00  0.00     0.051 C 
HETATM    2  C   UNK N   1      24.588  13.489   8.574  0.00  0.00     0.052 C 
HETATM    3  C   UNK N   1      24.934  12.036  11.047  0.00  0.00     0.052 C 
HETATM    4  C   UNK N   1      20.980  13.149   9.785  0.00  0.00     0.047 A 
HETATM    5  C   UNK N   1      21.164  12.442  10.974  0.00  0.00    -0.026 A 
HETATM    6  C   UNK N   1      23.381  13.152   9.392  0.00  0.00    -0.020 A 
HETATM    7  C   UNK N   1      23.562  12.432  10.598  0.00  0.00    -0.020 A 
HETATM    8  C   UNK N   1      22.065  13.524   8.989  0.00  0.00     0.075 A 
HETATM    9  C   UNK N   1      22.453  12.089  11.383  0.00  0.00     0.078 A 
ENDROOT
BRANCH   8  10
HETATM   10  O   UNK N   1      21.786  14.241   7.863  0.00  0.00    -0.351 OA
BRANCH  10  11
HETATM   11  C   UNK N   1      20.594  14.874   7.591  0.00  0.00     0.175 C 
BRANCH  11  12
HETATM   12  C   UNK N   1      20.608  16.277   8.158  0.00  0.00     0.027 C 
BRANCH  12  13
HETATM   13  C   UNK N   1      19.192  16.819   8.184  0.00  0.00     0.002 C 
BRANCH  13  14
HETATM   14  C   UNK N   1      19.036  17.865   9.266  0.00  0.00    -0.000 C 
BRANCH  14  15
HETATM   15  C   UNK N   1      17.652  17.736   9.870  0.00  0.00    -0.005 C 
HETATM   16  C   UNK N   1      17.489  18.741  10.990  0.00  0.00     0.005 C 
ENDBRANCH  14  15
ENDBRANCH  13  14
ENDBRANCH  12  13
ENDBRANCH  11  12
ENDBRANCH  10  11
ENDBRANCH   8  10
BRANCH   9  17
HETATM   17  O   UNK N   1      22.631  11.414  12.538  0.00  0.00    -0.360 OA
HETATM   18  H   UNK N   1      23.101  10.603  12.542  0.00  0.00     0.217 HD
ENDBRANCH   9  17
TORSDOF 7
ENDMDL
MODEL 3
REMARK VINA RESULT:      -4.7      2.167      4.616
REMARK  7 active torsions:
REMARK  status: ('A' for Active; 'I' for Inactive)
REMARK    1  A    between atoms: C_6  and  C_5 
REMARK    2  A    between atoms: C_7  and  C_6 
REMARK    3  A    between atoms: C_8  and  C_7 
REMARK    4  A    between atoms: C_9  and  C_8 
REMARK    5  A    between atoms: O_17  and  C_9 
REMARK    6  A    between atoms: O_17  and  C_14 
REMARK    7  A    between atoms: O_16  and  C_15 
ROOT
HETATM    1  C   UNK N   1      35.162  10.269  20.481  0.00  0.00     0.051 C 
HETATM    2  C   UNK N   1      35.721  13.523  15.712  0.00  0.00     0.052 C 
HETATM    3  C   UNK N   1      35.262  14.772  18.276  0.00  0.00     0.052 C 
HETATM    4  C   UNK N   1      35.519  10.491  18.028  0.00  0.00     0.047 A 
HETATM    5  C   UNK N   1      35.303  11.111  19.260  0.00  0.00    -0.026 A 
HETATM    6  C   UNK N   1      35.566  12.657  16.923  0.00  0.00    -0.020 A 
HETATM    7  C   UNK N   1      35.351  13.281  18.175  0.00  0.00    -0.020 A 
HETATM    8  C   UNK N   1      35.640  11.236  16.853  0.00  0.00     0.075 A 
HETATM    9  C   UNK N   1      35.213  12.503  19.332  0.00  0.00     0.078 A 
ENDROOT
BRANCH   8  10
HETATM   10  O   UNK N   1      35.815  10.537  15.694  0.00  0.00    -0.351 OA
BRANCH  10  11
HETATM   11  C   UNK N   1      34.887   9.705  15.112  0.00  0.00     0.175 C 
BRANCH  11  12
HETATM   12  C   UNK N   1      33.830  10.521  14.399  0.00  0.00     0.027 C 
BRANCH  12  13
HETATM   13  C   UNK N   1      34.175  10.605  12.925  0.00  0.00     0.002 C 
BRANCH  13  14
HETATM   14  C   UNK N   1      34.773  11.953  12.589  0.00  0.00    -0.000 C 
BRANCH  14  15
HETATM   15  C   UNK N   1      36.254  11.775  12.321  0.00  0.00    -0.005 C 
HETATM   16  C   UNK N   1      36.923  13.130  12.232  0.00  0.00     0.005 C 
ENDBRANCH  14  15
ENDBRANCH  13  14
ENDBRANCH  12  13
ENDBRANCH  11  12
ENDBRANCH  10  11
ENDBRANCH   8  10
BRANCH   9  17
HETATM   17  O   UNK N   1      34.995  13.101  20.523  0.00  0.00    -0.360 OA
HETATM   18  H   UNK N   1      34.910  12.584  21.301  0.00  0.00     0.217 HD
ENDBRANCH   9  17
TORSDOF 7
ENDMDL
MODEL 4
REMARK VINA RESULT:      -4.7      3.064      5.030
REMARK  7 active torsions:
REMARK  status: ('A' for Active; 'I' for Inactive)
REMARK    1  A    between atoms: C_6  and  C_5 
REMARK    2  A    between atoms: C_7  and  C_6 
REMARK    3  A    between atoms: C_8  and  C_7 
REMARK    4  A    between atoms: C_9  and  C_8 
REMARK    5  A    between atoms: O_17  and  C_9 
REMARK    6  A    between atoms: O_17  and  C_14 
REMARK    7  A    between atoms: O_16  and  C_15 
ROOT
HETATM    1  C   UNK N   1      35.329  14.307  18.182  0.00  0.00     0.051 C 
HETATM    2  C   UNK N   1      34.910   8.522  18.083  0.00  0.00     0.052 C 
HETATM    3  C   UNK N   1      34.775  10.030  15.622  0.00  0.00     0.052 C 
HETATM    4  C   UNK N   1      35.281  12.109  19.348  0.00  0.00     0.047 A 
HETATM    5  C   UNK N   1      35.220  12.821  18.150  0.00  0.00    -0.026 A 
HETATM    6  C   UNK N   1      35.007  10.015  18.140  0.00  0.00    -0.020 A 
HETATM    7  C   UNK N   1      34.948  10.742  16.927  0.00  0.00    -0.020 A 
HETATM    8  C   UNK N   1      35.165  10.717  19.371  0.00  0.00     0.075 A 
HETATM    9  C   UNK N   1      35.048  12.140  16.942  0.00  0.00     0.078 A 
ENDROOT
BRANCH   8  10
HETATM   10  O   UNK N   1      35.203  10.114  20.594  0.00  0.00    -0.351 OA
BRANCH  10  11
HETATM   11  C   UNK N   1      34.215  10.176  21.549  0.00  0.00     0.175 C 
BRANCH  11  12
HETATM   12  C   UNK N   1      33.400   8.900  21.540  0.00  0.00     0.027 C 
BRANCH  12  13
HETATM   13  C   UNK N   1      31.953   9.236  21.237  0.00  0.00     0.002 C 
BRANCH  13  14
HETATM   14  C   UNK N   1      31.542   8.679  19.890  0.00  0.00    -0.000 C 
BRANCH  14  15
HETATM   15  C   UNK N   1      30.750   7.407  20.111  0.00  0.00    -0.005 C 
HETATM   16  C   UNK N   1      31.452   6.246  19.439  0.00  0.00     0.005 C 
ENDBRANCH  14  15
ENDBRANCH  13  14
ENDBRANCH  12  13
ENDBRANCH  11  12
ENDBRANCH  10  11
ENDBRANCH   8  10
BRANCH   9  17
HETATM   17  O   UNK N   1      34.979  12.832  15.784  0.00  0.00    -0.360 OA
HETATM   18  H   UNK N   1      34.803  13.752  15.796  0.00  0.00     0.217 HD
ENDBRANCH   9  17
TORSDOF 7
ENDMDL
MODEL 5
REMARK VINA RESULT:      -4.6     24.731     27.429
REMARK  7 active torsions:
REMARK  status: ('A' for Active; 'I' for Inactive)
REMARK    1  A    between atoms: C_6  and  C_5 
REMARK    2  A    between atoms: C_7  and  C_6 
REMARK    3  A    between atoms: C_8  and  C_7 
REMARK    4  A    between atoms: C_9  and  C_8 
REMARK    5  A    between atoms: O_17  and  C_9 
REMARK    6  A    between atoms: O_17  and  C_14 
REMARK    7  A    between atoms: O_16  and  C_15 
ROOT
HETATM    1  C   UNK N   1      29.174  28.488  -8.624  0.00  0.00     0.051 C 
HETATM    2  C   UNK N   1      25.412  27.982  -4.238  0.00  0.00     0.052 C 
HETATM    3  C   UNK N   1      27.229  30.225  -4.340  0.00  0.00     0.052 C 
HETATM    4  C   UNK N   1      27.344  27.270  -7.457  0.00  0.00     0.047 A 
HETATM    5  C   UNK N   1      28.211  28.363  -7.494  0.00  0.00    -0.026 A 
HETATM    6  C   UNK N   1      26.382  28.079  -5.374  0.00  0.00    -0.020 A 
HETATM    7  C   UNK N   1      27.261  29.187  -5.418  0.00  0.00    -0.020 A 
HETATM    8  C   UNK N   1      26.436  27.100  -6.409  0.00  0.00     0.075 A 
HETATM    9  C   UNK N   1      28.174  29.317  -6.474  0.00  0.00     0.078 A 
ENDROOT
BRANCH   8  10
HETATM   10  O   UNK N   1      25.654  25.982  -6.444  0.00  0.00    -0.351 OA
BRANCH  10  11
HETATM   11  C   UNK N   1      26.079  24.699  -6.189  0.00  0.00     0.175 C 
BRANCH  11  12
HETATM   12  C   UNK N   1      25.706  24.296  -4.779  0.00  0.00     0.027 C 
BRANCH  12  13
HETATM   13  C   UNK N   1      26.914  24.460  -3.877  0.00  0.00     0.002 C 
BRANCH  13  14
HETATM   14  C   UNK N   1      28.195  24.219  -4.645  0.00  0.00    -0.000 C 
BRANCH  14  15
HETATM   15  C   UNK N   1      29.342  24.858  -3.889  0.00  0.00    -0.005 C 
HETATM   16  C   UNK N   1      29.346  26.351  -4.134  0.00  0.00     0.005 C 
ENDBRANCH  14  15
ENDBRANCH  13  14
ENDBRANCH  12  13
ENDBRANCH  11  12
ENDBRANCH  10  11
ENDBRANCH   8  10
BRANCH   9  17
HETATM   17  O   UNK N   1      29.020  30.369  -6.506  0.00  0.00    -0.360 OA
HETATM   18  H   UNK N   1      29.946  30.227  -6.527  0.00  0.00     0.217 HD
ENDBRANCH   9  17
TORSDOF 7
ENDMDL
MODEL 6
REMARK VINA RESULT:      -4.6     10.407     13.764
REMARK  7 active torsions:
REMARK  status: ('A' for Active; 'I' for Inactive)
REMARK    1  A    between atoms: C_6  and  C_5 
REMARK    2  A    between atoms: C_7  and  C_6 
REMARK    3  A    between atoms: C_8  and  C_7 
REMARK    4  A    between atoms: C_9  and  C_8 
REMARK    5  A    between atoms: O_17  and  C_9 
REMARK    6  A    between atoms: O_17  and  C_14 
REMARK    7  A    between atoms: O_16  and  C_15 
ROOT
HETATM    1  C   UNK N   1      29.624  17.698   9.568  0.00  0.00     0.051 C 
HETATM    2  C   UNK N   1      31.791  17.107   4.220  0.00  0.00     0.052 C 
HETATM    3  C   UNK N   1      33.565  17.285   6.493  0.00  0.00     0.052 C 
HETATM    4  C   UNK N   1      29.316  17.469   7.109  0.00  0.00     0.047 A 
HETATM    5  C   UNK N   1      30.187  17.548   8.197  0.00  0.00    -0.026 A 
HETATM    6  C   UNK N   1      31.204  17.273   5.587  0.00  0.00    -0.020 A 
HETATM    7  C   UNK N   1      32.083  17.351   6.694  0.00  0.00    -0.020 A 
HETATM    8  C   UNK N   1      29.797  17.345   5.803  0.00  0.00     0.075 A 
HETATM    9  C   UNK N   1      31.568  17.495   7.989  0.00  0.00     0.078 A 
ENDROOT
BRANCH   8  10
HETATM   10  O   UNK N   1      28.868  17.310   4.804  0.00  0.00    -0.351 OA
BRANCH  10  11
HETATM   11  C   UNK N   1      27.535  17.619   4.939  0.00  0.00     0.175 C 
BRANCH  11  12
HETATM   12  C   UNK N   1      27.096  18.534   3.817  0.00  0.00     0.027 C 
BRANCH  12  13
HETATM   13  C   UNK N   1      27.512  19.956   4.141  0.00  0.00     0.002 C 
BRANCH  13  14
HETATM   14  C   UNK N   1      26.486  20.628   5.027  0.00  0.00    -0.000 C 
BRANCH  14  15
HETATM   15  C   UNK N   1      27.206  21.322   6.166  0.00  0.00    -0.005 C 
HETATM   16  C   UNK N   1      26.276  21.455   7.352  0.00  0.00     0.005 C 
ENDBRANCH  14  15
ENDBRANCH  13  14
ENDBRANCH  12  13
ENDBRANCH  11  12
ENDBRANCH  10  11
ENDBRANCH   8  10
BRANCH   9  17
HETATM   17  O   UNK N   1      32.409  17.581   9.042  0.00  0.00    -0.360 OA
HETATM   18  H   UNK N   1      32.692  16.803   9.483  0.00  0.00     0.217 HD
ENDBRANCH   9  17
TORSDOF 7
ENDMDL
MODEL 7
REMARK VINA RESULT:      -4.5     25.352     27.817
REMARK  7 active torsions:
REMARK  status: ('A' for Active; 'I' for Inactive)
REMARK    1  A    between atoms: C_6  and  C_5 
REMARK    2  A    between atoms: C_7  and  C_6 
REMARK    3  A    between atoms: C_8  and  C_7 
REMARK    4  A    between atoms: C_9  and  C_8 
REMARK    5  A    between atoms: O_17  and  C_9 
REMARK    6  A    between atoms: O_17  and  C_14 
REMARK    7  A    between atoms: O_16  and  C_15 
ROOT
HETATM    1  C   UNK N   1      29.363  29.002  -8.044  0.00  0.00     0.051 C 
HETATM    2  C   UNK N   1      24.747  26.724  -5.371  0.00  0.00     0.052 C 
HETATM    3  C   UNK N   1      26.138  28.971  -4.204  0.00  0.00     0.052 C 
HETATM    4  C   UNK N   1      27.522  27.331  -7.926  0.00  0.00     0.047 A 
HETATM    5  C   UNK N   1      28.179  28.421  -7.351  0.00  0.00    -0.026 A 
HETATM    6  C   UNK N   1      25.944  27.282  -6.076  0.00  0.00    -0.020 A 
HETATM    7  C   UNK N   1      26.612  28.389  -5.499  0.00  0.00    -0.020 A 
HETATM    8  C   UNK N   1      26.418  26.741  -7.306  0.00  0.00     0.075 A 
HETATM    9  C   UNK N   1      27.728  28.944  -6.137  0.00  0.00     0.078 A 
ENDROOT
BRANCH   8  10
HETATM   10  O   UNK N   1      25.865  25.661  -7.929  0.00  0.00    -0.351 OA
BRANCH  10  11
HETATM   11  C   UNK N   1      26.523  24.495  -8.245  0.00  0.00     0.175 C 
BRANCH  11  12
HETATM   12  C   UNK N   1      25.842  23.316  -7.582  0.00  0.00     0.027 C 
BRANCH  12  13
HETATM   13  C   UNK N   1      26.004  23.427  -6.079  0.00  0.00     0.002 C 
BRANCH  13  14
HETATM   14  C   UNK N   1      27.462  23.588  -5.706  0.00  0.00    -0.000 C 
BRANCH  14  15
HETATM   15  C   UNK N   1      27.546  24.283  -4.362  0.00  0.00    -0.005 C 
HETATM   16  C   UNK N   1      28.587  25.380  -4.419  0.00  0.00     0.005 C 
ENDBRANCH  14  15
ENDBRANCH  13  14
ENDBRANCH  12  13
ENDBRANCH  11  12
ENDBRANCH  10  11
ENDBRANCH   8  10
BRANCH   9  17
HETATM   17  O   UNK N   1      28.371  29.992  -5.577  0.00  0.00    -0.360 OA
HETATM   18  H   UNK N   1      28.395  30.819  -6.018  0.00  0.00     0.217 HD
ENDBRANCH   9  17
TORSDOF 7
ENDMDL
MODEL 8
REMARK VINA RESULT:      -4.5     21.419     24.890
REMARK  7 active torsions:
REMARK  status: ('A' for Active; 'I' for Inactive)
REMARK    1  A    between atoms: C_6  and  C_5 
REMARK    2  A    between atoms: C_7  and  C_6 
REMARK    3  A    between atoms: C_8  and  C_7 
REMARK    4  A    between atoms: C_9  and  C_8 
REMARK    5  A    between atoms: O_17  and  C_9 
REMARK    6  A    between atoms: O_17  and  C_14 
REMARK    7  A    between atoms: O_16  and  C_15 
ROOT
HETATM    1  C   UNK N   1      29.945  19.872  -7.122  0.00  0.00     0.051 C 
HETATM    2  C   UNK N   1      30.207  24.023  -3.079  0.00  0.00     0.052 C 
HETATM    3  C   UNK N   1      31.916  21.701  -2.889  0.00  0.00     0.052 C 
HETATM    4  C   UNK N   1      29.179  22.046  -6.183  0.00  0.00     0.047 A 
HETATM    5  C   UNK N   1      30.016  20.934  -6.079  0.00  0.00    -0.026 A 
HETATM    6  C   UNK N   1      30.108  22.961  -4.129  0.00  0.00    -0.020 A 
HETATM    7  C   UNK N   1      30.956  21.832  -4.030  0.00  0.00    -0.020 A 
HETATM    8  C   UNK N   1      29.197  23.059  -5.222  0.00  0.00     0.075 A 
HETATM    9  C   UNK N   1      30.898  20.824  -5.001  0.00  0.00     0.078 A 
ENDROOT
BRANCH   8  10
HETATM   10  O   UNK N   1      28.319  24.089  -5.393  0.00  0.00    -0.351 OA
BRANCH  10  11
HETATM   11  C   UNK N   1      26.959  24.022  -5.197  0.00  0.00     0.175 C 
BRANCH  11  12
HETATM   12  C   UNK N   1      26.597  24.606  -3.848  0.00  0.00     0.027 C 
BRANCH  12  13
HETATM   13  C   UNK N   1      27.137  26.020  -3.756  0.00  0.00     0.002 C 
BRANCH  13  14
HETATM   14  C   UNK N   1      26.008  27.019  -3.627  0.00  0.00    -0.000 C 
BRANCH  14  15
HETATM   15  C   UNK N   1      25.837  27.733  -4.953  0.00  0.00    -0.005 C 
HETATM   16  C   UNK N   1      24.663  27.141  -5.703  0.00  0.00     0.005 C 
ENDBRANCH  14  15
ENDBRANCH  13  14
ENDBRANCH  12  13
ENDBRANCH  11  12
ENDBRANCH  10  11
ENDBRANCH   8  10
BRANCH   9  17
HETATM   17  O   UNK N   1      31.700  19.743  -4.897  0.00  0.00    -0.360 OA
HETATM   18  H   UNK N   1      31.694  19.086  -5.566  0.00  0.00     0.217 HD
ENDBRANCH   9  17
TORSDOF 7
ENDMDL
MODEL 9
REMARK VINA RESULT:      -4.4     22.093     25.594
REMARK  7 active torsions:
REMARK  status: ('A' for Active; 'I' for Inactive)
REMARK    1  A    between atoms: C_6  and  C_5 
REMARK    2  A    between atoms: C_7  and  C_6 
REMARK    3  A    between atoms: C_8  and  C_7 
REMARK    4  A    between atoms: C_9  and  C_8 
REMARK    5  A    between atoms: O_17  and  C_9 
REMARK    6  A    between atoms: O_17  and  C_14 
REMARK    7  A    between atoms: O_16  and  C_15 
ROOT
HETATM    1  C   UNK N   1      30.747  20.175  -6.217  0.00  0.00     0.051 C 
HETATM    2  C   UNK N   1      28.140  24.696  -3.685  0.00  0.00     0.052 C 
HETATM    3  C   UNK N   1      29.911  22.998  -2.158  0.00  0.00     0.052 C 
HETATM    4  C   UNK N   1      29.223  22.140  -6.311  0.00  0.00     0.047 A 
HETATM    5  C   UNK N   1      30.080  21.334  -5.561  0.00  0.00    -0.026 A 
HETATM    6  C   UNK N   1      28.788  23.528  -4.361  0.00  0.00    -0.020 A 
HETATM    7  C   UNK N   1      29.660  22.708  -3.605  0.00  0.00    -0.020 A 
HETATM    8  C   UNK N   1      28.561  23.227  -5.735  0.00  0.00     0.075 A 
HETATM    9  C   UNK N   1      30.293  21.614  -4.208  0.00  0.00     0.078 A 
ENDROOT
BRANCH   8  10
HETATM   10  O   UNK N   1      27.718  23.935  -6.542  0.00  0.00    -0.351 OA
BRANCH  10  11
HETATM   11  C   UNK N   1      26.354  23.773  -6.614  0.00  0.00     0.175 C 
BRANCH  11  12
HETATM   12  C   UNK N   1      25.780  24.662  -7.696  0.00  0.00     0.027 C 
BRANCH  12  13
HETATM   13  C   UNK N   1      25.986  26.114  -7.310  0.00  0.00     0.002 C 
BRANCH  13  14
HETATM   14  C   UNK N   1      25.389  26.398  -5.949  0.00  0.00    -0.000 C 
BRANCH  14  15
HETATM   15  C   UNK N   1      26.015  27.664  -5.399  0.00  0.00    -0.005 C 
HETATM   16  C   UNK N   1      25.544  27.890  -3.978  0.00  0.00     0.005 C 
ENDBRANCH  14  15
ENDBRANCH  13  14
ENDBRANCH  12  13
ENDBRANCH  11  12
ENDBRANCH  10  11
ENDBRANCH   8  10
BRANCH   9  17
HETATM   17  O   UNK N   1      31.115  20.827  -3.481  0.00  0.00    -0.360 OA
HETATM   18  H   UNK N   1      31.094  20.863  -2.545  0.00  0.00     0.217 HD
ENDBRANCH   9  17
TORSDOF 7
ENDMDL
