REMARK  9 active torsions:
REMARK  status: ('A' for Active; 'I' for Inactive)
REMARK    1  A    between atoms: C_2  and  C_3 
REMARK    2  A    between atoms: C_3  and  C_4 
REMARK    3  A    between atoms: C_3  and  C_6 
REMARK    4  A    between atoms: C_6  and  C_7 
REMARK    5  A    between atoms: C_7  and  C_13 
REMARK       I    between atoms: C_13  and  N_15 
REMARK    6  A    between atoms: N_15  and  C_16 
REMARK    7  A    between atoms: C_21  and  S_22 
REMARK    8  A    between atoms: S_22  and  C_23 
REMARK    9  A    between atoms: C_23  and  C_25 
ROOT
HETATM    1  C   UNK N   1       0.647  -1.576  -0.227  0.00  0.00     0.231 C 
HETATM    2  O   UNK N   1       0.250  -0.800  -1.086  0.00  0.00    -0.272 OA
HETATM    3  N   UNK N   1       1.890  -1.431   0.308  0.00  0.00    -0.325 N 
HETATM    4  H   UNK N   1       2.200  -2.138   0.920  0.00  0.00     0.169 HD
ENDROOT
BRANCH   1   5
HETATM    5  C   UNK N   1      -0.243  -2.731   0.204  0.00  0.00     0.042 C 
HETATM    6  C   UNK N   1       0.489  -3.626   1.231  0.00  0.00     0.019 C 
HETATM    7  C   UNK N   1       1.412  -4.632   0.550  0.00  0.00     0.001 C 
HETATM    8  C   UNK N   1       0.611  -5.608  -0.323  0.00  0.00     0.000 C 
HETATM    9  C   UNK N   1      -0.739  -5.041  -0.785  0.00  0.00     0.001 C 
HETATM   10  C   UNK N   1      -0.609  -3.546  -1.060  0.00  0.00     0.019 C 
BRANCH   5  11
HETATM   11  C   UNK N   1      -1.514  -2.248   0.947  0.00  0.00     0.023 C 
BRANCH  11  12
HETATM   12  C   UNK N   1      -2.475  -1.235   0.291  0.00  0.00    -0.014 C 
BRANCH  12  13
HETATM   13  C   UNK N   1      -2.986  -1.672  -1.078  0.00  0.00     0.000 C 
HETATM   14  C   UNK N   1      -3.893  -2.882  -0.942  0.00  0.00     0.005 C 
ENDBRANCH  12  13
BRANCH  12  15
HETATM   15  C   UNK N   1      -1.905   0.181   0.294  0.00  0.00     0.000 C 
HETATM   16  C   UNK N   1      -2.903   1.200  -0.226  0.00  0.00     0.005 C 
ENDBRANCH  12  15
ENDBRANCH  11  12
ENDBRANCH   5  11
ENDBRANCH   1   5
BRANCH   3  17
HETATM   17  C   UNK N   1       2.785  -0.348   0.063  0.00  0.00     0.052 A 
HETATM   18  C   UNK N   1       2.346   0.843  -0.542  0.00  0.00     0.031 A 
HETATM   19  C   UNK N   1       3.232   1.902  -0.749  0.00  0.00     0.002 A 
HETATM   20  C   UNK N   1       4.565   1.784  -0.354  0.00  0.00     0.002 A 
HETATM   21  C   UNK N   1       5.013   0.605   0.248  0.00  0.00     0.021 A 
HETATM   22  C   UNK N   1       4.130  -0.459   0.460  0.00  0.00     0.035 A 
BRANCH  22  23
HETATM   23  S   UNK N   1       4.743  -1.964   1.234  0.00  0.00    -0.050 SA
BRANCH  23  24
HETATM   24  C   UNK N   1       5.035  -2.889  -0.299  0.00  0.00     0.194 C 
HETATM   25  O   UNK N   1       4.837  -2.372  -1.388  0.00  0.00    -0.285 OA
BRANCH  24  26
HETATM   26  C   UNK N   1       5.531  -4.301  -0.247  0.00  0.00     0.059 C 
HETATM   27  C   UNK N   1       6.883  -4.371   0.435  0.00  0.00     0.018 C 
HETATM   28  C   UNK N   1       4.548  -5.196   0.480  0.00  0.00     0.018 C 
ENDBRANCH  24  26
ENDBRANCH  23  24
ENDBRANCH  22  23
ENDBRANCH   3  17
TORSDOF 9
