MODEL 1
REMARK VINA RESULT:      -7.9      0.000      0.000
REMARK  11 active torsions:
REMARK  status: ('A' for Active; 'I' for Inactive)
REMARK    1  A    between atoms: C_2  and  C_4 
REMARK    2  A    between atoms: C_2  and  O_7 
REMARK    3  A    between atoms: C_4  and  O_6 
REMARK    4  A    between atoms: O_7  and  C_8 
REMARK    5  A    between atoms: C_10  and  O_19 
REMARK    6  A    between atoms: C_11  and  C_15 
REMARK       I    between atoms: C_15  and  N_17 
REMARK    7  A    between atoms: O_19  and  C_20 
REMARK    8  A    between atoms: C_20  and  C_21 
REMARK    9  A    between atoms: C_21  and  C_22 
REMARK   10  A    between atoms: C_21  and  O_38 
REMARK   11  A    between atoms: C_22  and  N_23 
ROOT
HETATM    1  O   UNK N   1      22.352  17.652   4.254  0.00  0.00    -0.347 OA
ENDROOT
BRANCH   1   2
HETATM    2  C   UNK N   1      23.562  18.254   4.305  0.00  0.00     0.087 A 
HETATM    3  C   UNK N   1      24.634  17.580   4.912  0.00  0.00     0.076 A 
HETATM    4  C   UNK N   1      25.925  18.123   4.881  0.00  0.00     0.095 A 
HETATM    5  C   UNK N   1      26.139  19.349   4.245  0.00  0.00     0.068 A 
HETATM    6  C   UNK N   1      25.074  20.036   3.666  0.00  0.00     0.046 A 
HETATM    7 Cl   UNK N   1      27.748  20.043   4.170  0.00  0.00    -0.081 Cl
HETATM    8  C   UNK N   1      23.779  19.505   3.678  0.00  0.00     0.067 A 
BRANCH   4   9
HETATM    9  O   UNK N   1      26.991  17.467   5.410  0.00  0.00    -0.328 OA
BRANCH   9  10
HETATM   10  C   UNK N   1      27.657  16.348   4.930  0.00  0.00     0.145 C 
HETATM   11  C   UNK N   1      27.028  15.026   5.365  0.00  0.00     0.058 C 
HETATM   12  C   UNK N   1      27.676  16.393   3.408  0.00  0.00     0.058 C 
BRANCH  10  13
HETATM   13  C   UNK N   1      29.050  16.410   5.503  0.00  0.00     0.175 C 
HETATM   14  O   UNK N   1      29.693  15.392   5.713  0.00  0.00    -0.648 OA
BRANCH  13  15
HETATM   15  O   UNK N   1      29.614  17.610   5.747  0.00  0.00    -0.774 OA
HETATM   16  H   UNK N   1      29.379  18.372   5.255  0.00  0.00     0.167 HD
ENDBRANCH  13  15
ENDBRANCH  10  13
ENDBRANCH   9  10
ENDBRANCH   4   9
BRANCH   8  17
HETATM   17  C   UNK N   1      22.700  20.249   2.971  0.00  0.00     0.254 C 
HETATM   18  O   UNK N   1      22.750  21.474   2.919  0.00  0.00    -0.268 OA
HETATM   19  N   UNK N   1      21.683  19.593   2.362  0.00  0.00    -0.361 N 
HETATM   20  C   UNK N   1      20.650  20.286   1.634  0.00  0.00     0.149 C 
HETATM   21  H   UNK N   1      21.648  18.610   2.419  0.00  0.00     0.162 HD
ENDBRANCH   8  17
ENDBRANCH   1   2
BRANCH   1  22
HETATM   22  C   UNK N   1      22.154  16.427   3.627  0.00  0.00     0.209 C 
BRANCH  22  23
HETATM   23  C   UNK N   1      20.677  16.030   3.561  0.00  0.00     0.160 C 
BRANCH  23  24
HETATM   24  C   UNK N   1      19.829  16.520   4.738  0.00  0.00     0.150 C 
BRANCH  24  25
HETATM   25  N   UNK N   1      19.718  15.599   5.873  0.00  0.00    -0.410 N 
HETATM   26  C   UNK N   1      19.890  14.168   5.562  0.00  0.00     0.120 C 
HETATM   27  C   UNK N   1      21.307  13.642   5.841  0.00  0.00     0.058 C 
HETATM   28  C   UNK N   1      21.811  14.094   7.209  0.00  0.00     0.075 C 
HETATM   29  C   UNK N   1      21.749  15.610   7.282  0.00  0.00     0.058 C 
HETATM   30  C   UNK N   1      20.979  13.498   8.389  0.00  0.00     0.080 C 
HETATM   31  O   UNK N   1      23.125  13.701   7.430  0.00  0.00    -0.339 OA
HETATM   32  C   UNK N   1      20.308  16.081   7.124  0.00  0.00     0.120 C 
HETATM   33  C   UNK N   1      22.068  13.063   9.281  0.00  0.00    -0.020 A 
HETATM   34  C   UNK N   1      21.975  12.617  10.595  0.00  0.00     0.033 A 
HETATM   35  C   UNK N   1      23.259  13.179   8.647  0.00  0.00     0.076 A 
HETATM   36  C   UNK N   1      23.162  12.285  11.266  0.00  0.00     0.034 A 
HETATM   37  C   UNK N   1      24.403  12.386  10.602  0.00  0.00     0.026 A 
HETATM   38 Cl   UNK N   1      23.098  11.777  12.937  0.00  0.00    -0.084 Cl
HETATM   39  C   UNK N   1      24.457  12.838   9.272  0.00  0.00     0.039 A 
ENDBRANCH  24  25
ENDBRANCH  23  24
BRANCH  23  40
HETATM   40  O   UNK N   1      20.106  16.245   2.307  0.00  0.00    -0.392 OA
HETATM   41  H   UNK N   1      20.386  16.724   1.510  0.00  0.00     0.210 HD
ENDBRANCH  23  40
ENDBRANCH  22  23
ENDBRANCH   1  22
TORSDOF 11
ENDMDL
MODEL 2
REMARK VINA RESULT:      -7.6      9.727     14.505
REMARK  11 active torsions:
REMARK  status: ('A' for Active; 'I' for Inactive)
REMARK    1  A    between atoms: C_2  and  C_4 
REMARK    2  A    between atoms: C_2  and  O_7 
REMARK    3  A    between atoms: C_4  and  O_6 
REMARK    4  A    between atoms: O_7  and  C_8 
REMARK    5  A    between atoms: C_10  and  O_19 
REMARK    6  A    between atoms: C_11  and  C_15 
REMARK       I    between atoms: C_15  and  N_17 
REMARK    7  A    between atoms: O_19  and  C_20 
REMARK    8  A    between atoms: C_20  and  C_21 
REMARK    9  A    between atoms: C_21  and  C_22 
REMARK   10  A    between atoms: C_21  and  O_38 
REMARK   11  A    between atoms: C_22  and  N_23 
ROOT
HETATM    1  O   UNK N   1      35.068  13.610  11.680  0.00  0.00    -0.347 OA
ENDROOT
BRANCH   1   2
HETATM    2  C   UNK N   1      35.941  12.816  12.343  0.00  0.00     0.087 A 
HETATM    3  C   UNK N   1      35.917  12.798  13.746  0.00  0.00     0.076 A 
HETATM    4  C   UNK N   1      36.726  11.905  14.461  0.00  0.00     0.095 A 
HETATM    5  C   UNK N   1      37.566  11.032  13.762  0.00  0.00     0.068 A 
HETATM    6  C   UNK N   1      37.614  11.065  12.370  0.00  0.00     0.046 A 
HETATM    7 Cl   UNK N   1      38.573   9.886  14.628  0.00  0.00    -0.081 Cl
HETATM    8  C   UNK N   1      36.807  11.943  11.639  0.00  0.00     0.067 A 
BRANCH   4   9
HETATM    9  O   UNK N   1      36.683  11.826  15.816  0.00  0.00    -0.328 OA
BRANCH   9  10
HETATM   10  C   UNK N   1      35.729  11.228  16.628  0.00  0.00     0.145 C 
HETATM   11  C   UNK N   1      34.597  10.556  15.854  0.00  0.00     0.058 C 
HETATM   12  C   UNK N   1      36.403  10.179  17.501  0.00  0.00     0.058 C 
BRANCH  10  13
HETATM   13  C   UNK N   1      35.130  12.336  17.457  0.00  0.00     0.175 C 
HETATM   14  O   UNK N   1      35.247  12.349  18.674  0.00  0.00    -0.648 OA
BRANCH  13  15
HETATM   15  O   UNK N   1      34.492  13.352  16.844  0.00  0.00    -0.774 OA
HETATM   16  H   UNK N   1      33.556  13.389  16.800  0.00  0.00     0.167 HD
ENDBRANCH  13  15
ENDBRANCH  10  13
ENDBRANCH   9  10
ENDBRANCH   4   9
BRANCH   8  17
HETATM   17  C   UNK N   1      36.845  11.873  10.152  0.00  0.00     0.254 C 
HETATM   18  O   UNK N   1      36.317  10.923   9.583  0.00  0.00    -0.268 OA
HETATM   19  N   UNK N   1      37.428  12.853   9.421  0.00  0.00    -0.361 N 
HETATM   20  C   UNK N   1      37.440  12.832   7.980  0.00  0.00     0.149 C 
HETATM   21  H   UNK N   1      37.858  13.605   9.890  0.00  0.00     0.162 HD
ENDBRANCH   8  17
ENDBRANCH   1   2
BRANCH   1  22
HETATM   22  C   UNK N   1      35.145  14.998  11.719  0.00  0.00     0.209 C 
BRANCH  22  23
HETATM   23  C   UNK N   1      35.835  15.585  10.485  0.00  0.00     0.160 C 
BRANCH  23  24
HETATM   24  C   UNK N   1      35.162  16.835   9.909  0.00  0.00     0.150 C 
BRANCH  24  25
HETATM   25  N   UNK N   1      34.399  16.639   8.674  0.00  0.00    -0.410 N 
HETATM   26  C   UNK N   1      33.571  15.421   8.612  0.00  0.00     0.120 C 
HETATM   27  C   UNK N   1      32.095  15.659   8.966  0.00  0.00     0.058 C 
HETATM   28  C   UNK N   1      31.538  16.882   8.242  0.00  0.00     0.075 C 
HETATM   29  C   UNK N   1      32.399  18.089   8.577  0.00  0.00     0.058 C 
HETATM   30  C   UNK N   1      31.501  16.704   6.691  0.00  0.00     0.080 C 
HETATM   31  O   UNK N   1      30.233  17.159   8.627  0.00  0.00    -0.339 OA
HETATM   32  C   UNK N   1      33.828  17.859   8.098  0.00  0.00     0.120 C 
HETATM   33  C   UNK N   1      30.145  17.202   6.405  0.00  0.00    -0.020 A 
HETATM   34  C   UNK N   1      29.574  17.477   5.167  0.00  0.00     0.033 A 
HETATM   35  C   UNK N   1      29.473  17.406   7.563  0.00  0.00     0.076 A 
HETATM   36  C   UNK N   1      28.265  17.981   5.138  0.00  0.00     0.034 A 
HETATM   37  C   UNK N   1      27.556  18.177   6.343  0.00  0.00     0.026 A 
HETATM   38 Cl   UNK N   1      27.530  18.396   3.608  0.00  0.00    -0.084 Cl
HETATM   39  C   UNK N   1      28.164  17.884   7.576  0.00  0.00     0.039 A 
ENDBRANCH  24  25
ENDBRANCH  23  24
BRANCH  23  40
HETATM   40  O   UNK N   1      37.219  15.684  10.624  0.00  0.00    -0.392 OA
HETATM   41  H   UNK N   1      37.831  15.588  11.371  0.00  0.00     0.210 HD
ENDBRANCH  23  40
ENDBRANCH  22  23
ENDBRANCH   1  22
TORSDOF 11
ENDMDL
MODEL 3
REMARK VINA RESULT:      -7.4      9.516     13.182
REMARK  11 active torsions:
REMARK  status: ('A' for Active; 'I' for Inactive)
REMARK    1  A    between atoms: C_2  and  C_4 
REMARK    2  A    between atoms: C_2  and  O_7 
REMARK    3  A    between atoms: C_4  and  O_6 
REMARK    4  A    between atoms: O_7  and  C_8 
REMARK    5  A    between atoms: C_10  and  O_19 
REMARK    6  A    between atoms: C_11  and  C_15 
REMARK       I    between atoms: C_15  and  N_17 
REMARK    7  A    between atoms: O_19  and  C_20 
REMARK    8  A    between atoms: C_20  and  C_21 
REMARK    9  A    between atoms: C_21  and  C_22 
REMARK   10  A    between atoms: C_21  and  O_38 
REMARK   11  A    between atoms: C_22  and  N_23 
ROOT
HETATM    1  O   UNK N   1      33.798  15.939   9.526  0.00  0.00    -0.347 OA
ENDROOT
BRANCH   1   2
HETATM    2  C   UNK N   1      33.061  16.238   8.432  0.00  0.00     0.087 A 
HETATM    3  C   UNK N   1      31.907  17.024   8.580  0.00  0.00     0.076 A 
HETATM    4  C   UNK N   1      31.186  17.449   7.456  0.00  0.00     0.095 A 
HETATM    5  C   UNK N   1      31.622  17.077   6.181  0.00  0.00     0.068 A 
HETATM    6  C   UNK N   1      32.750  16.273   6.030  0.00  0.00     0.046 A 
HETATM    7 Cl   UNK N   1      30.753  17.612   4.754  0.00  0.00    -0.081 Cl
HETATM    8  C   UNK N   1      33.489  15.848   7.139  0.00  0.00     0.067 A 
BRANCH   4   9
HETATM    9  O   UNK N   1      30.099  18.256   7.566  0.00  0.00    -0.328 OA
BRANCH   9  10
HETATM   10  C   UNK N   1      28.773  17.912   7.791  0.00  0.00     0.145 C 
HETATM   11  C   UNK N   1      28.330  16.654   7.047  0.00  0.00     0.058 C 
HETATM   12  C   UNK N   1      28.561  17.689   9.281  0.00  0.00     0.058 C 
BRANCH  10  13
HETATM   13  C   UNK N   1      27.948  19.067   7.281  0.00  0.00     0.175 C 
HETATM   14  O   UNK N   1      27.978  19.393   6.103  0.00  0.00    -0.648 OA
BRANCH  13  15
HETATM   15  O   UNK N   1      27.131  19.723   8.128  0.00  0.00    -0.774 OA
HETATM   16  H   UNK N   1      26.331  20.113   7.835  0.00  0.00     0.167 HD
ENDBRANCH  13  15
ENDBRANCH  10  13
ENDBRANCH   9  10
ENDBRANCH   4   9
BRANCH   8  17
HETATM   17  C   UNK N   1      34.731  15.060   6.906  0.00  0.00     0.254 C 
HETATM   18  O   UNK N   1      35.568  15.479   6.112  0.00  0.00    -0.268 OA
HETATM   19  N   UNK N   1      34.962  13.906   7.576  0.00  0.00    -0.361 N 
HETATM   20  C   UNK N   1      36.175  13.147   7.402  0.00  0.00     0.149 C 
HETATM   21  H   UNK N   1      34.278  13.573   8.203  0.00  0.00     0.162 HD
ENDBRANCH   8  17
ENDBRANCH   1   2
BRANCH   1  22
HETATM   22  C   UNK N   1      34.839  16.747   9.968  0.00  0.00     0.209 C 
BRANCH  22  23
HETATM   23  C   UNK N   1      35.651  16.100  11.094  0.00  0.00     0.160 C 
BRANCH  23  24
HETATM   24  C   UNK N   1      35.075  14.784  11.623  0.00  0.00     0.150 C 
BRANCH  24  25
HETATM   25  N   UNK N   1      36.010  13.925  12.354  0.00  0.00    -0.410 N 
HETATM   26  C   UNK N   1      36.425  14.408  13.684  0.00  0.00     0.120 C 
HETATM   27  C   UNK N   1      35.633  13.785  14.844  0.00  0.00     0.058 C 
HETATM   28  C   UNK N   1      35.517  12.271  14.690  0.00  0.00     0.075 C 
HETATM   29  C   UNK N   1      34.885  11.958  13.344  0.00  0.00     0.058 C 
HETATM   30  C   UNK N   1      36.897  11.544  14.780  0.00  0.00     0.080 C 
HETATM   31  O   UNK N   1      34.723  11.711  15.683  0.00  0.00    -0.339 OA
HETATM   32  C   UNK N   1      35.767  12.487  12.218  0.00  0.00     0.120 C 
HETATM   33  C   UNK N   1      36.549  10.440  15.691  0.00  0.00    -0.020 A 
HETATM   34  C   UNK N   1      37.313   9.325  16.019  0.00  0.00     0.033 A 
HETATM   35  C   UNK N   1      35.305  10.627  16.190  0.00  0.00     0.076 A 
HETATM   36  C   UNK N   1      36.759   8.377  16.892  0.00  0.00     0.034 A 
HETATM   37  C   UNK N   1      35.469   8.578  17.429  0.00  0.00     0.026 A 
HETATM   38 Cl   UNK N   1      37.659   6.931  17.285  0.00  0.00    -0.084 Cl
HETATM   39  C   UNK N   1      34.728   9.720  17.078  0.00  0.00     0.039 A 
ENDBRANCH  24  25
ENDBRANCH  23  24
BRANCH  23  40
HETATM   40  O   UNK N   1      37.022  16.071  10.836  0.00  0.00    -0.392 OA
HETATM   41  H   UNK N   1      37.621  15.418  10.441  0.00  0.00     0.210 HD
ENDBRANCH  23  40
ENDBRANCH  22  23
ENDBRANCH   1  22
TORSDOF 11
ENDMDL
MODEL 4
REMARK VINA RESULT:      -7.3      8.722     13.712
REMARK  11 active torsions:
REMARK  status: ('A' for Active; 'I' for Inactive)
REMARK    1  A    between atoms: C_2  and  C_4 
REMARK    2  A    between atoms: C_2  and  O_7 
REMARK    3  A    between atoms: C_4  and  O_6 
REMARK    4  A    between atoms: O_7  and  C_8 
REMARK    5  A    between atoms: C_10  and  O_19 
REMARK    6  A    between atoms: C_11  and  C_15 
REMARK       I    between atoms: C_15  and  N_17 
REMARK    7  A    between atoms: O_19  and  C_20 
REMARK    8  A    between atoms: C_20  and  C_21 
REMARK    9  A    between atoms: C_21  and  C_22 
REMARK   10  A    between atoms: C_21  and  O_38 
REMARK   11  A    between atoms: C_22  and  N_23 
ROOT
HETATM    1  O   UNK N   1      34.948  12.070   9.620  0.00  0.00    -0.347 OA
ENDROOT
BRANCH   1   2
HETATM    2  C   UNK N   1      34.743  11.677  10.898  0.00  0.00     0.087 A 
HETATM    3  C   UNK N   1      35.089  12.547  11.944  0.00  0.00     0.076 A 
HETATM    4  C   UNK N   1      34.786  12.221  13.272  0.00  0.00     0.095 A 
HETATM    5  C   UNK N   1      34.140  11.013  13.551  0.00  0.00     0.068 A 
HETATM    6  C   UNK N   1      33.820  10.132  12.519  0.00  0.00     0.046 A 
HETATM    7 Cl   UNK N   1      33.726  10.587  15.201  0.00  0.00    -0.081 Cl
HETATM    8  C   UNK N   1      34.105  10.445  11.186  0.00  0.00     0.067 A 
BRANCH   4   9
HETATM    9  O   UNK N   1      35.058  13.068  14.298  0.00  0.00    -0.328 OA
BRANCH   9  10
HETATM   10  C   UNK N   1      36.152  13.085  15.152  0.00  0.00     0.145 C 
HETATM   11  C   UNK N   1      35.780  12.970  16.629  0.00  0.00     0.058 C 
HETATM   12  C   UNK N   1      37.079  11.931  14.799  0.00  0.00     0.058 C 
BRANCH  10  13
HETATM   13  C   UNK N   1      36.824  14.419  14.946  0.00  0.00     0.175 C 
HETATM   14  O   UNK N   1      37.496  14.932  15.829  0.00  0.00    -0.648 OA
BRANCH  13  15
HETATM   15  O   UNK N   1      36.720  15.038  13.753  0.00  0.00    -0.774 OA
HETATM   16  H   UNK N   1      37.304  15.726  13.504  0.00  0.00     0.167 HD
ENDBRANCH  13  15
ENDBRANCH  10  13
ENDBRANCH   9  10
ENDBRANCH   4   9
BRANCH   8  17
HETATM   17  C   UNK N   1      33.664   9.499  10.123  0.00  0.00     0.254 C 
HETATM   18  O   UNK N   1      34.103   8.353  10.120  0.00  0.00    -0.268 OA
HETATM   19  N   UNK N   1      32.767   9.876   9.181  0.00  0.00    -0.361 N 
HETATM   20  C   UNK N   1      32.290   8.968   8.169  0.00  0.00     0.149 C 
HETATM   21  H   UNK N   1      32.430  10.802   9.187  0.00  0.00     0.162 HD
ENDBRANCH   8  17
ENDBRANCH   1   2
BRANCH   1  22
HETATM   22  C   UNK N   1      36.045  12.836   9.242  0.00  0.00     0.209 C 
BRANCH  22  23
HETATM   23  C   UNK N   1      35.643  14.128   8.526  0.00  0.00     0.160 C 
BRANCH  23  24
HETATM   24  C   UNK N   1      35.489  15.346   9.441  0.00  0.00     0.150 C 
BRANCH  24  25
HETATM   25  N   UNK N   1      34.194  16.030   9.384  0.00  0.00    -0.410 N 
HETATM   26  C   UNK N   1      34.223  17.427   8.914  0.00  0.00     0.120 C 
HETATM   27  C   UNK N   1      33.877  17.586   7.425  0.00  0.00     0.058 C 
HETATM   28  C   UNK N   1      32.634  16.782   7.053  0.00  0.00     0.075 C 
HETATM   29  C   UNK N   1      32.857  15.326   7.427  0.00  0.00     0.058 C 
HETATM   30  C   UNK N   1      31.343  17.294   7.768  0.00  0.00     0.080 C 
HETATM   31  O   UNK N   1      32.369  16.845   5.691  0.00  0.00    -0.339 OA
HETATM   32  C   UNK N   1      33.074  15.202   8.931  0.00  0.00     0.120 C 
HETATM   33  C   UNK N   1      30.407  17.313   6.631  0.00  0.00    -0.020 A 
HETATM   34  C   UNK N   1      29.029  17.502   6.656  0.00  0.00     0.033 A 
HETATM   35  C   UNK N   1      31.076  17.080   5.477  0.00  0.00     0.076 A 
HETATM   36  C   UNK N   1      28.331  17.446   5.440  0.00  0.00     0.034 A 
HETATM   37  C   UNK N   1      29.029  17.223   4.233  0.00  0.00     0.026 A 
HETATM   38 Cl   UNK N   1      26.592  17.619   5.431  0.00  0.00    -0.084 Cl
HETATM   39  C   UNK N   1      30.422  17.039   4.246  0.00  0.00     0.039 A 
ENDBRANCH  24  25
ENDBRANCH  23  24
BRANCH  23  40
HETATM   40  O   UNK N   1      36.380  14.365   7.365  0.00  0.00    -0.392 OA
HETATM   41  H   UNK N   1      37.084  13.884   6.902  0.00  0.00     0.210 HD
ENDBRANCH  23  40
ENDBRANCH  22  23
ENDBRANCH   1  22
TORSDOF 11
ENDMDL
MODEL 5
REMARK VINA RESULT:      -7.3      8.427     12.194
REMARK  11 active torsions:
REMARK  status: ('A' for Active; 'I' for Inactive)
REMARK    1  A    between atoms: C_2  and  C_4 
REMARK    2  A    between atoms: C_2  and  O_7 
REMARK    3  A    between atoms: C_4  and  O_6 
REMARK    4  A    between atoms: O_7  and  C_8 
REMARK    5  A    between atoms: C_10  and  O_19 
REMARK    6  A    between atoms: C_11  and  C_15 
REMARK       I    between atoms: C_15  and  N_17 
REMARK    7  A    between atoms: O_19  and  C_20 
REMARK    8  A    between atoms: C_20  and  C_21 
REMARK    9  A    between atoms: C_21  and  C_22 
REMARK   10  A    between atoms: C_21  and  O_38 
REMARK   11  A    between atoms: C_22  and  N_23 
ROOT
HETATM    1  O   UNK N   1      33.512  15.341   6.861  0.00  0.00    -0.347 OA
ENDROOT
BRANCH   1   2
HETATM    2  C   UNK N   1      32.467  16.140   7.178  0.00  0.00     0.087 A 
HETATM    3  C   UNK N   1      31.227  15.919   6.558  0.00  0.00     0.076 A 
HETATM    4  C   UNK N   1      30.097  16.651   6.946  0.00  0.00     0.095 A 
HETATM    5  C   UNK N   1      30.215  17.612   7.954  0.00  0.00     0.068 A 
HETATM    6  C   UNK N   1      31.450  17.856   8.553  0.00  0.00     0.046 A 
HETATM    7 Cl   UNK N   1      28.814  18.528   8.477  0.00  0.00    -0.081 Cl
HETATM    8  C   UNK N   1      32.587  17.128   8.186  0.00  0.00     0.067 A 
BRANCH   4   9
HETATM    9  O   UNK N   1      28.873  16.420   6.404  0.00  0.00    -0.328 OA
BRANCH   9  10
HETATM   10  C   UNK N   1      28.337  16.898   5.217  0.00  0.00     0.145 C 
HETATM   11  C   UNK N   1      28.824  18.297   4.843  0.00  0.00     0.058 C 
HETATM   12  C   UNK N   1      28.698  15.946   4.086  0.00  0.00     0.058 C 
BRANCH  10  13
HETATM   13  C   UNK N   1      26.845  16.967   5.427  0.00  0.00     0.175 C 
HETATM   14  O   UNK N   1      26.081  17.122   4.486  0.00  0.00    -0.648 OA
BRANCH  13  15
HETATM   15  O   UNK N   1      26.343  16.813   6.668  0.00  0.00    -0.774 OA
HETATM   16  H   UNK N   1      26.893  16.606   7.398  0.00  0.00     0.167 HD
ENDBRANCH  13  15
ENDBRANCH  10  13
ENDBRANCH   9  10
ENDBRANCH   4   9
BRANCH   8  17
HETATM   17  C   UNK N   1      33.858  17.378   8.920  0.00  0.00     0.254 C 
HETATM   18  O   UNK N   1      34.539  18.356   8.625  0.00  0.00    -0.268 OA
HETATM   19  N   UNK N   1      34.258  16.562   9.924  0.00  0.00    -0.361 N 
HETATM   20  C   UNK N   1      35.460  16.806  10.680  0.00  0.00     0.149 C 
HETATM   21  H   UNK N   1      33.709  15.774  10.145  0.00  0.00     0.162 HD
ENDBRANCH   8  17
ENDBRANCH   1   2
BRANCH   1  22
HETATM   22  C   UNK N   1      33.492  13.967   7.074  0.00  0.00     0.209 C 
BRANCH  22  23
HETATM   23  C   UNK N   1      34.896  13.364   7.166  0.00  0.00     0.160 C 
BRANCH  23  24
HETATM   24  C   UNK N   1      35.673  13.740   8.431  0.00  0.00     0.150 C 
BRANCH  24  25
HETATM   25  N   UNK N   1      35.788  12.690   9.447  0.00  0.00    -0.410 N 
HETATM   26  C   UNK N   1      37.125  12.511  10.041  0.00  0.00     0.120 C 
HETATM   27  C   UNK N   1      37.302  13.224  11.390  0.00  0.00     0.058 C 
HETATM   28  C   UNK N   1      36.119  12.963  12.319  0.00  0.00     0.075 C 
HETATM   29  C   UNK N   1      34.839  13.391  11.620  0.00  0.00     0.058 C 
HETATM   30  C   UNK N   1      35.990  11.462  12.731  0.00  0.00     0.080 C 
HETATM   31  O   UNK N   1      36.227  13.679  13.504  0.00  0.00    -0.339 OA
HETATM   32  C   UNK N   1      34.640  12.571  10.349  0.00  0.00     0.120 C 
HETATM   33  C   UNK N   1      35.766  11.609  14.179  0.00  0.00    -0.020 A 
HETATM   34  C   UNK N   1      35.388  10.632  15.094  0.00  0.00     0.033 A 
HETATM   35  C   UNK N   1      35.952  12.899  14.547  0.00  0.00     0.076 A 
HETATM   36  C   UNK N   1      35.198  11.013  16.430  0.00  0.00     0.034 A 
HETATM   37  C   UNK N   1      35.410  12.353  16.821  0.00  0.00     0.026 A 
HETATM   38 Cl   UNK N   1      34.666   9.830  17.602  0.00  0.00    -0.084 Cl
HETATM   39  C   UNK N   1      35.795  13.313  15.869  0.00  0.00     0.039 A 
ENDBRANCH  24  25
ENDBRANCH  23  24
BRANCH  23  40
HETATM   40  O   UNK N   1      34.933  12.007   6.844  0.00  0.00    -0.392 OA
HETATM   41  H   UNK N   1      34.968  11.512   6.010  0.00  0.00     0.210 HD
ENDBRANCH  23  40
ENDBRANCH  22  23
ENDBRANCH   1  22
TORSDOF 11
ENDMDL
MODEL 6
REMARK VINA RESULT:      -7.3      8.729     13.555
REMARK  11 active torsions:
REMARK  status: ('A' for Active; 'I' for Inactive)
REMARK    1  A    between atoms: C_2  and  C_4 
REMARK    2  A    between atoms: C_2  and  O_7 
REMARK    3  A    between atoms: C_4  and  O_6 
REMARK    4  A    between atoms: O_7  and  C_8 
REMARK    5  A    between atoms: C_10  and  O_19 
REMARK    6  A    between atoms: C_11  and  C_15 
REMARK       I    between atoms: C_15  and  N_17 
REMARK    7  A    between atoms: O_19  and  C_20 
REMARK    8  A    between atoms: C_20  and  C_21 
REMARK    9  A    between atoms: C_21  and  C_22 
REMARK   10  A    between atoms: C_21  and  O_38 
REMARK   11  A    between atoms: C_22  and  N_23 
ROOT
HETATM    1  O   UNK N   1      34.701  13.083  10.070  0.00  0.00    -0.347 OA
ENDROOT
BRANCH   1   2
HETATM    2  C   UNK N   1      35.136  13.305  11.332  0.00  0.00     0.087 A 
HETATM    3  C   UNK N   1      35.292  12.214  12.202  0.00  0.00     0.076 A 
HETATM    4  C   UNK N   1      35.848  12.392  13.475  0.00  0.00     0.095 A 
HETATM    5  C   UNK N   1      36.241  13.672  13.878  0.00  0.00     0.068 A 
HETATM    6  C   UNK N   1      36.062  14.763  13.030  0.00  0.00     0.046 A 
HETATM    7 Cl   UNK N   1      36.961  13.923  15.458  0.00  0.00    -0.081 Cl
HETATM    8  C   UNK N   1      35.518  14.603  11.751  0.00  0.00     0.067 A 
BRANCH   4   9
HETATM    9  O   UNK N   1      36.063  11.347  14.316  0.00  0.00    -0.328 OA
BRANCH   9  10
HETATM   10  C   UNK N   1      35.147  10.456  14.856  0.00  0.00     0.145 C 
HETATM   11  C   UNK N   1      33.694  10.900  14.702  0.00  0.00     0.058 C 
HETATM   12  C   UNK N   1      35.310   9.102  14.180  0.00  0.00     0.058 C 
BRANCH  10  13
HETATM   13  C   UNK N   1      35.455  10.379  16.330  0.00  0.00     0.175 C 
HETATM   14  O   UNK N   1      36.483  10.857  16.787  0.00  0.00    -0.648 OA
BRANCH  13  15
HETATM   15  O   UNK N   1      34.562   9.813  17.166  0.00  0.00    -0.774 OA
HETATM   16  H   UNK N   1      34.102   9.030  16.936  0.00  0.00     0.167 HD
ENDBRANCH  13  15
ENDBRANCH  10  13
ENDBRANCH   9  10
ENDBRANCH   4   9
BRANCH   8  17
HETATM   17  C   UNK N   1      35.429  15.794  10.862  0.00  0.00     0.254 C 
HETATM   18  O   UNK N   1      36.406  16.527  10.741  0.00  0.00    -0.268 OA
HETATM   19  N   UNK N   1      34.298  16.064  10.167  0.00  0.00    -0.361 N 
HETATM   20  C   UNK N   1      34.200  17.185   9.267  0.00  0.00     0.149 C 
HETATM   21  H   UNK N   1      33.516  15.475  10.282  0.00  0.00     0.162 HD
ENDBRANCH   8  17
ENDBRANCH   1   2
BRANCH   1  22
HETATM   22  C   UNK N   1      35.457  12.387   9.133  0.00  0.00     0.209 C 
BRANCH  22  23
HETATM   23  C   UNK N   1      35.884  13.263   7.952  0.00  0.00     0.160 C 
BRANCH  23  24
HETATM   24  C   UNK N   1      34.832  13.407   6.849  0.00  0.00     0.150 C 
BRANCH  24  25
HETATM   25  N   UNK N   1      34.048  14.645   6.869  0.00  0.00    -0.410 N 
HETATM   26  C   UNK N   1      34.398  15.647   5.845  0.00  0.00     0.120 C 
HETATM   27  C   UNK N   1      33.487  15.610   4.608  0.00  0.00     0.058 C 
HETATM   28  C   UNK N   1      32.013  15.543   5.002  0.00  0.00     0.075 C 
HETATM   29  C   UNK N   1      31.795  14.336   5.899  0.00  0.00     0.058 C 
HETATM   30  C   UNK N   1      31.528  16.824   5.755  0.00  0.00     0.080 C 
HETATM   31  O   UNK N   1      31.188  15.416   3.892  0.00  0.00    -0.339 OA
HETATM   32  C   UNK N   1      32.625  14.474   7.170  0.00  0.00     0.120 C 
HETATM   33  C   UNK N   1      30.261  17.076   5.048  0.00  0.00    -0.020 A 
HETATM   34  C   UNK N   1      29.257  17.979   5.380  0.00  0.00     0.033 A 
HETATM   35  C   UNK N   1      30.157  16.253   3.977  0.00  0.00     0.076 A 
HETATM   36  C   UNK N   1      28.112  18.023   4.572  0.00  0.00     0.034 A 
HETATM   37  C   UNK N   1      28.009  17.181   3.443  0.00  0.00     0.026 A 
HETATM   38 Cl   UNK N   1      26.799  19.101   4.986  0.00  0.00    -0.084 Cl
HETATM   39  C   UNK N   1      29.046  16.282   3.136  0.00  0.00     0.039 A 
ENDBRANCH  24  25
ENDBRANCH  23  24
BRANCH  23  40
HETATM   40  O   UNK N   1      36.480  14.462   8.344  0.00  0.00    -0.392 OA
HETATM   41  H   UNK N   1      36.442  15.003   9.148  0.00  0.00     0.210 HD
ENDBRANCH  23  40
ENDBRANCH  22  23
ENDBRANCH   1  22
TORSDOF 11
ENDMDL
MODEL 7
REMARK VINA RESULT:      -7.3     13.376     16.223
REMARK  11 active torsions:
REMARK  status: ('A' for Active; 'I' for Inactive)
REMARK    1  A    between atoms: C_2  and  C_4 
REMARK    2  A    between atoms: C_2  and  O_7 
REMARK    3  A    between atoms: C_4  and  O_6 
REMARK    4  A    between atoms: O_7  and  C_8 
REMARK    5  A    between atoms: C_10  and  O_19 
REMARK    6  A    between atoms: C_11  and  C_15 
REMARK       I    between atoms: C_15  and  N_17 
REMARK    7  A    between atoms: O_19  and  C_20 
REMARK    8  A    between atoms: C_20  and  C_21 
REMARK    9  A    between atoms: C_21  and  C_22 
REMARK   10  A    between atoms: C_21  and  O_38 
REMARK   11  A    between atoms: C_22  and  N_23 
ROOT
HETATM    1  O   UNK N   1      28.152  23.585  -4.136  0.00  0.00    -0.347 OA
ENDROOT
BRANCH   1   2
HETATM    2  C   UNK N   1      27.203  24.507  -4.415  0.00  0.00     0.087 A 
HETATM    3  C   UNK N   1      27.207  25.724  -3.716  0.00  0.00     0.076 A 
HETATM    4  C   UNK N   1      26.312  26.746  -4.059  0.00  0.00     0.095 A 
HETATM    5  C   UNK N   1      25.405  26.541  -5.103  0.00  0.00     0.068 A 
HETATM    6  C   UNK N   1      25.377  25.324  -5.782  0.00  0.00     0.046 A 
HETATM    7 Cl   UNK N   1      24.287  27.809  -5.570  0.00  0.00    -0.081 Cl
HETATM    8  C   UNK N   1      26.270  24.296  -5.461  0.00  0.00     0.067 A 
BRANCH   4   9
HETATM    9  O   UNK N   1      26.330  27.953  -3.437  0.00  0.00    -0.328 OA
BRANCH   9  10
HETATM   10  C   UNK N   1      27.134  29.056  -3.691  0.00  0.00     0.145 C 
HETATM   11  C   UNK N   1      27.885  28.975  -5.018  0.00  0.00     0.058 C 
HETATM   12  C   UNK N   1      26.271  30.310  -3.703  0.00  0.00     0.058 C 
BRANCH  10  13
HETATM   13  C   UNK N   1      28.154  29.097  -2.582  0.00  0.00     0.175 C 
HETATM   14  O   UNK N   1      29.324  28.809  -2.789  0.00  0.00    -0.648 OA
BRANCH  13  15
HETATM   15  O   UNK N   1      27.781  29.498  -1.351  0.00  0.00    -0.774 OA
HETATM   16  H   UNK N   1      27.937  28.969  -0.594  0.00  0.00     0.167 HD
ENDBRANCH  13  15
ENDBRANCH  10  13
ENDBRANCH   9  10
ENDBRANCH   4   9
BRANCH   8  17
HETATM   17  C   UNK N   1      26.244  23.051  -6.277  0.00  0.00     0.254 C 
HETATM   18  O   UNK N   1      25.220  22.377  -6.311  0.00  0.00    -0.268 OA
HETATM   19  N   UNK N   1      27.323  22.669  -7.003  0.00  0.00    -0.361 N 
HETATM   20  C   UNK N   1      27.309  21.493  -7.836  0.00  0.00     0.149 C 
HETATM   21  H   UNK N   1      28.143  23.212  -6.959  0.00  0.00     0.162 HD
ENDBRANCH   8  17
ENDBRANCH   1   2
BRANCH   1  22
HETATM   22  C   UNK N   1      28.506  23.250  -2.834  0.00  0.00     0.209 C 
BRANCH  22  23
HETATM   23  C   UNK N   1      30.005  22.974  -2.683  0.00  0.00     0.160 C 
BRANCH  23  24
HETATM   24  C   UNK N   1      30.892  23.679  -3.712  0.00  0.00     0.150 C 
BRANCH  24  25
HETATM   25  N   UNK N   1      31.764  22.810  -4.508  0.00  0.00    -0.410 N 
HETATM   26  C   UNK N   1      31.908  21.424  -4.025  0.00  0.00     0.120 C 
HETATM   27  C   UNK N   1      30.991  20.422  -4.743  0.00  0.00     0.058 C 
HETATM   28  C   UNK N   1      31.035  20.610  -6.257  0.00  0.00     0.075 C 
HETATM   29  C   UNK N   1      30.667  22.047  -6.588  0.00  0.00     0.058 C 
HETATM   30  C   UNK N   1      32.439  20.297  -6.866  0.00  0.00     0.080 C 
HETATM   31  O   UNK N   1      30.140  19.771  -6.907  0.00  0.00    -0.339 OA
HETATM   32  C   UNK N   1      31.675  23.001  -5.957  0.00  0.00     0.120 C 
HETATM   33  C   UNK N   1      32.043  19.469  -8.019  0.00  0.00    -0.020 A 
HETATM   34  C   UNK N   1      32.836  19.030  -9.073  0.00  0.00     0.033 A 
HETATM   35  C   UNK N   1      30.721  19.185  -7.951  0.00  0.00     0.076 A 
HETATM   36  C   UNK N   1      32.230  18.274 -10.088  0.00  0.00     0.034 A 
HETATM   37  C   UNK N   1      30.856  17.959 -10.010  0.00  0.00     0.026 A 
HETATM   38 Cl   UNK N   1      33.175  17.751 -11.462  0.00  0.00    -0.084 Cl
HETATM   39  C   UNK N   1      30.086  18.418  -8.927  0.00  0.00     0.039 A 
ENDBRANCH  24  25
ENDBRANCH  23  24
BRANCH  23  40
HETATM   40  O   UNK N   1      30.452  23.075  -1.365  0.00  0.00    -0.392 OA
HETATM   41  H   UNK N   1      30.748  22.432  -0.702  0.00  0.00     0.210 HD
ENDBRANCH  23  40
ENDBRANCH  22  23
ENDBRANCH   1  22
TORSDOF 11
ENDMDL
MODEL 8
REMARK VINA RESULT:      -7.2      7.761     11.532
REMARK  11 active torsions:
REMARK  status: ('A' for Active; 'I' for Inactive)
REMARK    1  A    between atoms: C_2  and  C_4 
REMARK    2  A    between atoms: C_2  and  O_7 
REMARK    3  A    between atoms: C_4  and  O_6 
REMARK    4  A    between atoms: O_7  and  C_8 
REMARK    5  A    between atoms: C_10  and  O_19 
REMARK    6  A    between atoms: C_11  and  C_15 
REMARK       I    between atoms: C_15  and  N_17 
REMARK    7  A    between atoms: O_19  and  C_20 
REMARK    8  A    between atoms: C_20  and  C_21 
REMARK    9  A    between atoms: C_21  and  C_22 
REMARK   10  A    between atoms: C_21  and  O_38 
REMARK   11  A    between atoms: C_22  and  N_23 
ROOT
HETATM    1  O   UNK N   1      32.099  17.172   6.820  0.00  0.00    -0.347 OA
ENDROOT
BRANCH   1   2
HETATM    2  C   UNK N   1      30.853  16.760   6.492  0.00  0.00     0.087 A 
HETATM    3  C   UNK N   1      29.769  17.628   6.700  0.00  0.00     0.076 A 
HETATM    4  C   UNK N   1      28.484  17.280   6.266  0.00  0.00     0.095 A 
HETATM    5  C   UNK N   1      28.285  16.051   5.628  0.00  0.00     0.068 A 
HETATM    6  C   UNK N   1      29.351  15.173   5.444  0.00  0.00     0.046 A 
HETATM    7 Cl   UNK N   1      26.692  15.597   5.053  0.00  0.00    -0.081 Cl
HETATM    8  C   UNK N   1      30.644  15.508   5.861  0.00  0.00     0.067 A 
BRANCH   4   9
HETATM    9  O   UNK N   1      27.428  18.123   6.403  0.00  0.00    -0.328 OA
BRANCH   9  10
HETATM   10  C   UNK N   1      27.113  19.257   5.668  0.00  0.00     0.145 C 
HETATM   11  C   UNK N   1      28.159  19.616   4.614  0.00  0.00     0.058 C 
HETATM   12  C   UNK N   1      25.779  19.044   4.967  0.00  0.00     0.058 C 
BRANCH  10  13
HETATM   13  C   UNK N   1      27.043  20.393   6.658  0.00  0.00     0.175 C 
HETATM   14  O   UNK N   1      26.991  21.555   6.283  0.00  0.00    -0.648 OA
BRANCH  13  15
HETATM   15  O   UNK N   1      26.994  20.121   7.977  0.00  0.00    -0.774 OA
HETATM   16  H   UNK N   1      26.692  20.755   8.597  0.00  0.00     0.167 HD
ENDBRANCH  13  15
ENDBRANCH  10  13
ENDBRANCH   9  10
ENDBRANCH   4   9
BRANCH   8  17
HETATM   17  C   UNK N   1      31.755  14.562   5.563  0.00  0.00     0.254 C 
HETATM   18  O   UNK N   1      32.176  14.475   4.414  0.00  0.00    -0.268 OA
HETATM   19  N   UNK N   1      32.323  13.820   6.544  0.00  0.00    -0.361 N 
HETATM   20  C   UNK N   1      33.427  12.930   6.290  0.00  0.00     0.149 C 
HETATM   21  H   UNK N   1      31.969  13.890   7.460  0.00  0.00     0.162 HD
ENDBRANCH   8  17
ENDBRANCH   1   2
BRANCH   1  22
HETATM   22  C   UNK N   1      32.504  17.344   8.139  0.00  0.00     0.209 C 
BRANCH  22  23
HETATM   23  C   UNK N   1      34.007  17.608   8.264  0.00  0.00     0.160 C 
BRANCH  23  24
HETATM   24  C   UNK N   1      34.840  16.387   8.665  0.00  0.00     0.150 C 
BRANCH  24  25
HETATM   25  N   UNK N   1      34.400  15.681   9.871  0.00  0.00    -0.410 N 
HETATM   26  C   UNK N   1      33.926  14.299   9.673  0.00  0.00     0.120 C 
HETATM   27  C   UNK N   1      34.991  13.232   9.969  0.00  0.00     0.058 C 
HETATM   28  C   UNK N   1      35.708  13.510  11.288  0.00  0.00     0.075 C 
HETATM   29  C   UNK N   1      36.307  14.905  11.241  0.00  0.00     0.058 C 
HETATM   30  C   UNK N   1      34.760  13.410  12.526  0.00  0.00     0.080 C 
HETATM   31  O   UNK N   1      36.735  12.603  11.517  0.00  0.00    -0.339 OA
HETATM   32  C   UNK N   1      35.202  15.941  11.069  0.00  0.00     0.120 C 
HETATM   33  C   UNK N   1      35.600  12.606  13.431  0.00  0.00    -0.020 A 
HETATM   34  C   UNK N   1      35.391  12.330  14.778  0.00  0.00     0.033 A 
HETATM   35  C   UNK N   1      36.692  12.155  12.770  0.00  0.00     0.076 A 
HETATM   36  C   UNK N   1      36.351  11.563  15.453  0.00  0.00     0.034 A 
HETATM   37  C   UNK N   1      37.481  11.074  14.762  0.00  0.00     0.026 A 
HETATM   38 Cl   UNK N   1      36.159  11.241  17.161  0.00  0.00    -0.084 Cl
HETATM   39  C   UNK N   1      37.657  11.370  13.400  0.00  0.00     0.039 A 
ENDBRANCH  24  25
ENDBRANCH  23  24
BRANCH  23  40
HETATM   40  O   UNK N   1      34.527  18.340   7.197  0.00  0.00    -0.392 OA
HETATM   41  H   UNK N   1      34.163  19.008   6.595  0.00  0.00     0.210 HD
ENDBRANCH  23  40
ENDBRANCH  22  23
ENDBRANCH   1  22
TORSDOF 11
ENDMDL
MODEL 9
REMARK VINA RESULT:      -7.2     11.130     14.933
REMARK  11 active torsions:
REMARK  status: ('A' for Active; 'I' for Inactive)
REMARK    1  A    between atoms: C_2  and  C_4 
REMARK    2  A    between atoms: C_2  and  O_7 
REMARK    3  A    between atoms: C_4  and  O_6 
REMARK    4  A    between atoms: O_7  and  C_8 
REMARK    5  A    between atoms: C_10  and  O_19 
REMARK    6  A    between atoms: C_11  and  C_15 
REMARK       I    between atoms: C_15  and  N_17 
REMARK    7  A    between atoms: O_19  and  C_20 
REMARK    8  A    between atoms: C_20  and  C_21 
REMARK    9  A    between atoms: C_21  and  C_22 
REMARK   10  A    between atoms: C_21  and  O_38 
REMARK   11  A    between atoms: C_22  and  N_23 
ROOT
HETATM    1  O   UNK N   1      36.810  12.490  10.722  0.00  0.00    -0.347 OA
ENDROOT
BRANCH   1   2
HETATM    2  C   UNK N   1      36.220  13.660  10.386  0.00  0.00     0.087 A 
HETATM    3  C   UNK N   1      36.116  14.008   9.030  0.00  0.00     0.076 A 
HETATM    4  C   UNK N   1      35.410  15.154   8.641  0.00  0.00     0.095 A 
HETATM    5  C   UNK N   1      34.813  15.956   9.618  0.00  0.00     0.068 A 
HETATM    6  C   UNK N   1      34.937  15.631  10.967  0.00  0.00     0.046 A 
HETATM    7 Cl   UNK N   1      33.904  17.384   9.161  0.00  0.00    -0.081 Cl
HETATM    8  C   UNK N   1      35.629  14.485  11.375  0.00  0.00     0.067 A 
BRANCH   4   9
HETATM    9  O   UNK N   1      35.246  15.485   7.334  0.00  0.00    -0.328 OA
BRANCH   9  10
HETATM   10  C   UNK N   1      34.289  15.040   6.433  0.00  0.00     0.145 C 
HETATM   11  C   UNK N   1      34.872  14.285   5.241  0.00  0.00     0.058 C 
HETATM   12  C   UNK N   1      33.312  14.122   7.153  0.00  0.00     0.058 C 
BRANCH  10  13
HETATM   13  C   UNK N   1      33.602  16.276   5.907  0.00  0.00     0.175 C 
HETATM   14  O   UNK N   1      32.418  16.259   5.602  0.00  0.00    -0.648 OA
BRANCH  13  15
HETATM   15  O   UNK N   1      34.292  17.429   5.813  0.00  0.00    -0.774 OA
HETATM   16  H   UNK N   1      33.857  18.257   5.753  0.00  0.00     0.167 HD
ENDBRANCH  13  15
ENDBRANCH  10  13
ENDBRANCH   9  10
ENDBRANCH   4   9
BRANCH   8  17
HETATM   17  C   UNK N   1      35.656  14.149  12.825  0.00  0.00     0.254 C 
HETATM   18  O   UNK N   1      34.677  13.612  13.335  0.00  0.00    -0.268 OA
HETATM   19  N   UNK N   1      36.751  14.400  13.581  0.00  0.00    -0.361 N 
HETATM   20  C   UNK N   1      36.820  14.045  14.975  0.00  0.00     0.149 C 
HETATM   21  H   UNK N   1      37.527  14.841  13.163  0.00  0.00     0.162 HD
ENDBRANCH   8  17
ENDBRANCH   1   2
BRANCH   1  22
HETATM   22  C   UNK N   1      36.246  11.256  10.417  0.00  0.00     0.209 C 
BRANCH  22  23
HETATM   23  C   UNK N   1      35.465  10.658  11.591  0.00  0.00     0.160 C 
BRANCH  23  24
HETATM   24  C   UNK N   1      36.222  10.645  12.922  0.00  0.00     0.150 C 
BRANCH  24  25
HETATM   25  N   UNK N   1      35.673   9.770  13.961  0.00  0.00    -0.410 N 
HETATM   26  C   UNK N   1      36.660   9.056  14.792  0.00  0.00     0.120 C 
HETATM   27  C   UNK N   1      36.946   9.740  16.138  0.00  0.00     0.058 C 
HETATM   28  C   UNK N   1      35.654  10.151  16.840  0.00  0.00     0.075 C 
HETATM   29  C   UNK N   1      34.850  11.046  15.912  0.00  0.00     0.058 C 
HETATM   30  C   UNK N   1      34.772   8.929  17.250  0.00  0.00     0.080 C 
HETATM   31  O   UNK N   1      35.906  10.853  18.012  0.00  0.00    -0.339 OA
HETATM   32  C   UNK N   1      34.483  10.286  14.643  0.00  0.00     0.120 C 
HETATM   33  C   UNK N   1      34.427   9.310  18.630  0.00  0.00    -0.020 A 
HETATM   34  C   UNK N   1      33.499   8.715  19.479  0.00  0.00     0.033 A 
HETATM   35  C   UNK N   1      35.141  10.399  19.002  0.00  0.00     0.076 A 
HETATM   36  C   UNK N   1      33.312   9.276  20.751  0.00  0.00     0.034 A 
HETATM   37  C   UNK N   1      34.069  10.398  21.149  0.00  0.00     0.026 A 
HETATM   38 Cl   UNK N   1      32.114   8.597  21.829  0.00  0.00    -0.084 Cl
HETATM   39  C   UNK N   1      35.000  10.971  20.265  0.00  0.00     0.039 A 
ENDBRANCH  24  25
ENDBRANCH  23  24
BRANCH  23  40
HETATM   40  O   UNK N   1      34.154  11.126  11.674  0.00  0.00    -0.392 OA
HETATM   41  H   UNK N   1      33.594  11.672  11.098  0.00  0.00     0.210 HD
ENDBRANCH  23  40
ENDBRANCH  22  23
ENDBRANCH   1  22
TORSDOF 11
ENDMDL
