REMARK  3 active torsions:
REMARK  status: ('A' for Active; 'I' for Inactive)
REMARK    1  A    between atoms: O_12  and  C_6 
REMARK    2  A    between atoms: N_10  and  C_7 
REMARK    3  A    between atoms: S_15  and  C_8 
ROOT
HETATM    1  C   UNK N   1       1.906  -0.465  -0.124  0.00  0.00     0.031 A 
HETATM    2  C   UNK N   1      -0.488  -0.352   0.185  0.00  0.00     0.031 A 
HETATM    3  C   UNK N   1       1.976   0.930  -0.089  0.00  0.00     0.027 A 
HETATM    4  C   UNK N   1      -0.420   1.042   0.221  0.00  0.00     0.027 A 
HETATM    5  C   UNK N   1       0.675  -1.119   0.002  0.00  0.00     0.033 A 
HETATM    6  C   UNK N   1       0.812   1.695   0.074  0.00  0.00     0.074 A 
ENDROOT
BRANCH   5   7
HETATM    7  N   UNK N   1       0.650  -2.545  -0.056  0.00  0.00    -0.341 N 
HETATM    8  C   UNK N   1      -0.400  -3.298  -0.009  0.00  0.00     0.111 C 
HETATM    9  C   UNK N   1      -0.236  -4.776  -0.075  0.00  0.00     0.097 C 
ATOM     10  HN  UNK N   1       1.550  -3.016  -0.143  1.00  0.00     0.167 HD
BRANCH   8  11
HETATM   11  O   UNK N   1      -1.642  -2.782   0.094  0.00  0.00    -0.350 OA
HETATM   12  H   UNK N   1      -1.763  -1.856   0.166  0.00  0.00     0.219 HD
ENDBRANCH   8  11
ENDBRANCH   5   7
BRANCH   6  13
HETATM   13  S   UNK N   1       0.876   3.504   0.021  0.00  0.00     0.262 S 
HETATM   14 Cl   UNK N   1       0.947   5.603  -0.069  0.00  0.00     0.024 Cl
HETATM   15  O   UNK N   1       1.886   3.465  -1.135  0.00  0.00    -0.206 OA
HETATM   16  O   UNK N   1      -0.314   3.542  -0.948  0.00  0.00    -0.206 OA
ENDBRANCH   6  13
TORSDOF 3
