MODEL 1
REMARK VINA RESULT:      -4.5      0.000      0.000
REMARK  2 active torsions:
REMARK  status: ('A' for Active; 'I' for Inactive)
REMARK    1  A    between atoms: C_2  and  C_7 
REMARK    2  A    between atoms: C_7  and  O_9 
ROOT
HETATM    1  C   UNK N   1      33.770  15.863   8.898  0.00  0.00     0.120 A 
HETATM    2  C   UNK N   1      34.622  17.106   9.113  0.00  0.00     0.193 A 
HETATM    3  N   UNK N   1      35.346  17.088  10.339  0.00  0.00    -0.337 N 
HETATM    4  C   UNK N   1      35.137  15.986  11.060  0.00  0.00     0.280 A 
HETATM    5  O   UNK N   1      35.685  15.821  12.135  0.00  0.00    -0.260 OA
HETATM    6  S   UNK N   1      34.017  14.777  10.363  0.00  0.00    -0.067 SA
HETATM    7  H   UNK N   1      35.942  17.818  10.626  0.00  0.00     0.164 HD
ENDROOT
BRANCH   2   8
HETATM    8  C   UNK N   1      34.756  18.276   8.202  0.00  0.00     0.164 C 
HETATM    9  O   UNK N   1      34.335  18.216   7.059  0.00  0.00    -0.648 OA
BRANCH   8  10
HETATM   10  O   UNK N   1      35.344  19.405   8.642  0.00  0.00    -0.775 OA
HETATM   11  H   UNK N   1      35.230  19.675   9.532  0.00  0.00     0.167 HD
ENDBRANCH   8  10
ENDBRANCH   2   8
TORSDOF 2
ENDMDL
MODEL 2
REMARK VINA RESULT:      -4.4      2.010      3.864
REMARK  2 active torsions:
REMARK  status: ('A' for Active; 'I' for Inactive)
REMARK    1  A    between atoms: C_2  and  C_7 
REMARK    2  A    between atoms: C_7  and  O_9 
ROOT
HETATM    1  C   UNK N   1      33.547  15.946   7.913  0.00  0.00     0.120 A 
HETATM    2  C   UNK N   1      34.173  16.117   9.291  0.00  0.00     0.193 A 
HETATM    3  N   UNK N   1      34.777  17.393   9.480  0.00  0.00    -0.337 N 
HETATM    4  C   UNK N   1      34.677  18.188   8.414  0.00  0.00     0.280 A 
HETATM    5  O   UNK N   1      35.145  19.313   8.420  0.00  0.00    -0.260 OA
HETATM    6  S   UNK N   1      33.826  17.515   6.993  0.00  0.00    -0.067 SA
HETATM    7  H   UNK N   1      35.224  17.660  10.315  0.00  0.00     0.164 HD
ENDROOT
BRANCH   2   8
HETATM    8  C   UNK N   1      34.205  15.121  10.396  0.00  0.00     0.164 C 
HETATM    9  O   UNK N   1      35.214  14.470  10.607  0.00  0.00    -0.648 OA
BRANCH   8  10
HETATM   10  O   UNK N   1      33.115  14.939  11.166  0.00  0.00    -0.775 OA
HETATM   11  H   UNK N   1      32.430  15.578  11.166  0.00  0.00     0.167 HD
ENDBRANCH   8  10
ENDBRANCH   2   8
TORSDOF 2
ENDMDL
MODEL 3
REMARK VINA RESULT:      -4.4     16.003     16.518
REMARK  2 active torsions:
REMARK  status: ('A' for Active; 'I' for Inactive)
REMARK    1  A    between atoms: C_2  and  C_7 
REMARK    2  A    between atoms: C_7  and  O_9 
ROOT
HETATM    1  C   UNK N   1      20.543  17.834   3.354  0.00  0.00     0.120 A 
HETATM    2  C   UNK N   1      20.490  19.047   2.436  0.00  0.00     0.193 A 
HETATM    3  N   UNK N   1      20.307  18.708   1.065  0.00  0.00    -0.337 N 
HETATM    4  C   UNK N   1      20.218  17.395   0.852  0.00  0.00     0.280 A 
HETATM    5  O   UNK N   1      20.060  16.946  -0.269  0.00  0.00    -0.260 OA
HETATM    6  S   UNK N   1      20.343  16.343   2.294  0.00  0.00    -0.067 SA
HETATM    7  H   UNK N   1      20.252  19.378   0.346  0.00  0.00     0.164 HD
ENDROOT
BRANCH   2   8
HETATM    8  C   UNK N   1      20.606  20.479   2.827  0.00  0.00     0.164 C 
HETATM    9  O   UNK N   1      20.286  20.838   3.947  0.00  0.00    -0.648 OA
BRANCH   8  10
HETATM   10  O   UNK N   1      21.068  21.380   1.939  0.00  0.00    -0.775 OA
HETATM   11  H   UNK N   1      21.975  21.384   1.705  0.00  0.00     0.167 HD
ENDBRANCH   8  10
ENDBRANCH   2   8
TORSDOF 2
ENDMDL
MODEL 4
REMARK VINA RESULT:      -4.2     11.480     12.309
REMARK  2 active torsions:
REMARK  status: ('A' for Active; 'I' for Inactive)
REMARK    1  A    between atoms: C_2  and  C_7 
REMARK    2  A    between atoms: C_7  and  O_9 
ROOT
HETATM    1  C   UNK N   1      42.502  21.052   2.962  0.00  0.00     0.120 A 
HETATM    2  C   UNK N   1      43.200  22.302   3.479  0.00  0.00     0.193 A 
HETATM    3  N   UNK N   1      42.745  23.499   2.855  0.00  0.00    -0.337 N 
HETATM    4  C   UNK N   1      41.798  23.291   1.940  0.00  0.00     0.280 A 
HETATM    5  O   UNK N   1      41.306  24.216   1.319  0.00  0.00    -0.260 OA
HETATM    6  S   UNK N   1      41.296  21.594   1.682  0.00  0.00    -0.067 SA
HETATM    7  H   UNK N   1      43.097  24.391   3.078  0.00  0.00     0.164 HD
ENDROOT
BRANCH   2   8
HETATM    8  C   UNK N   1      44.258  22.377   4.523  0.00  0.00     0.164 C 
HETATM    9  O   UNK N   1      43.966  22.648   5.675  0.00  0.00    -0.648 OA
BRANCH   8  10
HETATM   10  O   UNK N   1      45.543  22.145   4.192  0.00  0.00    -0.775 OA
HETATM   11  H   UNK N   1      46.212  22.200   4.847  0.00  0.00     0.167 HD
ENDBRANCH   8  10
ENDBRANCH   2   8
TORSDOF 2
ENDMDL
MODEL 5
REMARK VINA RESULT:      -4.1     14.986     15.761
REMARK  2 active torsions:
REMARK  status: ('A' for Active; 'I' for Inactive)
REMARK    1  A    between atoms: C_2  and  C_7 
REMARK    2  A    between atoms: C_7  and  O_9 
ROOT
HETATM    1  C   UNK N   1      19.856  18.030   2.187  0.00  0.00     0.120 A 
HETATM    2  C   UNK N   1      20.661  19.317   2.300  0.00  0.00     0.193 A 
HETATM    3  N   UNK N   1      21.294  19.475   3.566  0.00  0.00    -0.337 N 
HETATM    4  C   UNK N   1      21.058  18.466   4.405  0.00  0.00     0.280 A 
HETATM    5  O   UNK N   1      21.530  18.455   5.528  0.00  0.00    -0.260 OA
HETATM    6  S   UNK N   1      20.019  17.145   3.792  0.00  0.00    -0.067 SA
HETATM    7  H   UNK N   1      21.851  20.254   3.798  0.00  0.00     0.164 HD
ENDROOT
BRANCH   2   8
HETATM    8  C   UNK N   1      20.835  20.367   1.259  0.00  0.00     0.164 C 
HETATM    9  O   UNK N   1      21.117  21.509   1.579  0.00  0.00    -0.648 OA
BRANCH   8  10
HETATM   10  O   UNK N   1      20.679  20.053  -0.042  0.00  0.00    -0.775 OA
HETATM   11  H   UNK N   1      20.499  19.167  -0.291  0.00  0.00     0.167 HD
ENDBRANCH   8  10
ENDBRANCH   2   8
TORSDOF 2
ENDMDL
MODEL 6
REMARK VINA RESULT:      -4.0     12.571     13.455
REMARK  2 active torsions:
REMARK  status: ('A' for Active; 'I' for Inactive)
REMARK    1  A    between atoms: C_2  and  C_7 
REMARK    2  A    between atoms: C_7  and  O_9 
ROOT
HETATM    1  C   UNK N   1      23.533  13.176   9.079  0.00  0.00     0.120 A 
HETATM    2  C   UNK N   1      22.944  12.804  10.432  0.00  0.00     0.193 A 
HETATM    3  N   UNK N   1      21.552  13.084  10.538  0.00  0.00    -0.337 N 
HETATM    4  C   UNK N   1      21.035  13.618   9.431  0.00  0.00     0.280 A 
HETATM    5  O   UNK N   1      19.856  13.914   9.363  0.00  0.00    -0.260 OA
HETATM    6  S   UNK N   1      22.163  13.871   8.065  0.00  0.00    -0.067 SA
HETATM    7  H   UNK N   1      21.024  12.902  11.349  0.00  0.00     0.164 HD
ENDROOT
BRANCH   2   8
HETATM    8  C   UNK N   1      23.660  12.205  11.593  0.00  0.00     0.164 C 
HETATM    9  O   UNK N   1      23.032  11.691  12.503  0.00  0.00    -0.648 OA
BRANCH   8  10
HETATM   10  O   UNK N   1      25.006  12.231  11.636  0.00  0.00    -0.775 OA
HETATM   11  H   UNK N   1      25.465  13.027  11.451  0.00  0.00     0.167 HD
ENDBRANCH   8  10
ENDBRANCH   2   8
TORSDOF 2
ENDMDL
MODEL 7
REMARK VINA RESULT:      -3.8      3.456      4.257
REMARK  2 active torsions:
REMARK  status: ('A' for Active; 'I' for Inactive)
REMARK    1  A    between atoms: C_2  and  C_7 
REMARK    2  A    between atoms: C_7  and  O_9 
ROOT
HETATM    1  C   UNK N   1      35.825  13.180  11.987  0.00  0.00     0.120 A 
HETATM    2  C   UNK N   1      35.960  14.681  12.208  0.00  0.00     0.193 A 
HETATM    3  N   UNK N   1      36.425  15.018  13.512  0.00  0.00    -0.337 N 
HETATM    4  C   UNK N   1      36.652  13.955  14.283  0.00  0.00     0.280 A 
HETATM    5  O   UNK N   1      37.053  14.078  15.427  0.00  0.00    -0.260 OA
HETATM    6  S   UNK N   1      36.336  12.354  13.549  0.00  0.00    -0.067 SA
HETATM    7  H   UNK N   1      36.564  15.945  13.812  0.00  0.00     0.164 HD
ENDROOT
BRANCH   2   8
HETATM    8  C   UNK N   1      35.663  15.766  11.233  0.00  0.00     0.164 C 
HETATM    9  O   UNK N   1      36.572  16.403  10.728  0.00  0.00    -0.648 OA
BRANCH   8  10
HETATM   10  O   UNK N   1      34.386  16.045  10.909  0.00  0.00    -0.775 OA
HETATM   11  H   UNK N   1      34.171  16.871  10.523  0.00  0.00     0.167 HD
ENDBRANCH   8  10
ENDBRANCH   2   8
TORSDOF 2
ENDMDL
MODEL 8
REMARK VINA RESULT:      -3.8      7.428      8.466
REMARK  2 active torsions:
REMARK  status: ('A' for Active; 'I' for Inactive)
REMARK    1  A    between atoms: C_2  and  C_7 
REMARK    2  A    between atoms: C_7  and  O_9 
ROOT
HETATM    1  C   UNK N   1      28.676  17.996   6.319  0.00  0.00     0.120 A 
HETATM    2  C   UNK N   1      28.129  18.658   7.575  0.00  0.00     0.193 A 
HETATM    3  N   UNK N   1      27.387  19.844   7.309  0.00  0.00    -0.337 N 
HETATM    4  C   UNK N   1      27.316  20.143   6.011  0.00  0.00     0.280 A 
HETATM    5  O   UNK N   1      26.715  21.128   5.622  0.00  0.00    -0.260 OA
HETATM    6  S   UNK N   1      28.145  19.024   4.889  0.00  0.00    -0.067 SA
HETATM    7  H   UNK N   1      26.968  20.389   8.014  0.00  0.00     0.164 HD
ENDROOT
BRANCH   2   8
HETATM    8  C   UNK N   1      28.295  18.199   8.982  0.00  0.00     0.164 C 
HETATM    9  O   UNK N   1      29.190  18.651   9.675  0.00  0.00    -0.648 OA
BRANCH   8  10
HETATM   10  O   UNK N   1      27.451  17.280   9.490  0.00  0.00    -0.775 OA
HETATM   11  H   UNK N   1      26.593  17.182   9.127  0.00  0.00     0.167 HD
ENDBRANCH   8  10
ENDBRANCH   2   8
TORSDOF 2
ENDMDL
MODEL 9
REMARK VINA RESULT:      -3.6      5.265      5.965
REMARK  2 active torsions:
REMARK  status: ('A' for Active; 'I' for Inactive)
REMARK    1  A    between atoms: C_2  and  C_7 
REMARK    2  A    between atoms: C_7  and  O_9 
ROOT
HETATM    1  C   UNK N   1      29.036  17.637   6.700  0.00  0.00     0.120 A 
HETATM    2  C   UNK N   1      29.551  17.684   8.131  0.00  0.00     0.193 A 
HETATM    3  N   UNK N   1      30.839  17.096   8.286  0.00  0.00    -0.337 N 
HETATM    4  C   UNK N   1      31.343  16.619   7.146  0.00  0.00     0.280 A 
HETATM    5  O   UNK N   1      32.437  16.086   7.114  0.00  0.00    -0.260 OA
HETATM    6  S   UNK N   1      30.328  16.808   5.685  0.00  0.00    -0.067 SA
HETATM    7  H   UNK N   1      31.310  17.047   9.149  0.00  0.00     0.164 HD
ENDROOT
BRANCH   2   8
HETATM    8  C   UNK N   1      28.862  18.259   9.319  0.00  0.00     0.164 C 
HETATM    9  O   UNK N   1      29.511  18.755  10.225  0.00  0.00    -0.648 OA
BRANCH   8  10
HETATM   10  O   UNK N   1      27.518  18.232   9.393  0.00  0.00    -0.775 OA
HETATM   11  H   UNK N   1      27.009  18.822   8.872  0.00  0.00     0.167 HD
ENDBRANCH   8  10
ENDBRANCH   2   8
TORSDOF 2
ENDMDL
