REMARK  19 active torsions:
REMARK  status: ('A' for Active; 'I' for Inactive)
REMARK    1  A    between atoms: C_3  and  C_2 
REMARK    2  A    between atoms: C_5  and  C_6 
REMARK    3  A    between atoms: C_5  and  N_9 
REMARK    4  A    between atoms: C_6  and  O_8 
REMARK       I    between atoms: N_9  and  C_10 
REMARK    5  A    between atoms: C_12  and  C_10 
REMARK    6  A    between atoms: C_14  and  O_34 
REMARK       I    between atoms: N_16  and  C_17 
REMARK    7  A    between atoms: C_17  and  C_19 
REMARK    8  A    between atoms: C_19  and  C_20 
REMARK    9  A    between atoms: C_19  and  N_24 
REMARK       I    between atoms: N_24  and  C_25 
REMARK   10  A    between atoms: C_25  and  O_27 
REMARK   11  A    between atoms: C_28  and  O_27 
REMARK   12  A    between atoms: O_34  and  C_35 
REMARK   13  A    between atoms: C_37  and  C_56 
REMARK   14  A    between atoms: C_44  and  O_47 
REMARK   15  A    between atoms: O_47  and  C_48 
REMARK   16  A    between atoms: C_48  and  C_49 
REMARK   17  A    between atoms: C_49  and  N_50 
REMARK   18  A    between atoms: C_59  and  N_62 
REMARK   19  A    between atoms: N_62  and  C_63 
ROOT
HETATM    1  C   UNK N   1      -1.468   3.252   0.309  0.00  0.00     0.181 A 
HETATM    2  C   UNK N   1      -0.089   3.157  -0.311  0.00  0.00     0.069 A 
HETATM    3  C   UNK N   1      -0.133   1.982  -1.286  0.00  0.00     0.149 A 
HETATM    4  C   UNK N   1      -1.575   1.465  -1.295  0.00  0.00     0.159 A 
HETATM    5  N   UNK N   1      -2.269   2.230  -0.304  0.00  0.00    -0.334 N 
HETATM    6  C   UNK N   1      -3.393   1.774   0.315  0.00  0.00     0.244 C 
HETATM    7  O   UNK N   1      -3.948   2.470   1.155  0.00  0.00    -0.271 OA
ENDROOT
BRANCH   3   8
HETATM    8  O   UNK N   1       0.847   1.059  -0.932  0.00  0.00    -0.343 OA
BRANCH   8   9
HETATM    9  C   UNK N   1       0.757  -0.290  -0.744  0.00  0.00     0.084 A 
HETATM   10  C   UNK N   1      -0.402  -1.008  -1.045  0.00  0.00     0.069 A 
HETATM   11  C   UNK N   1      -0.470  -2.383  -0.821  0.00  0.00     0.062 A 
HETATM   12  N   UNK N   1       0.610  -3.039  -0.319  0.00  0.00    -0.352 N 
HETATM   13  C   UNK N   1       1.776  -2.388  -0.046  0.00  0.00     0.070 A 
ATOM     14  HN  UNK N   1       0.547  -4.042  -0.142  1.00  0.00     0.166 HD
HETATM   15  C   UNK N   1       1.863  -0.989  -0.246  0.00  0.00     0.026 A 
HETATM   16  C   UNK N   1       2.895  -3.097   0.422  0.00  0.00     0.095 A 
HETATM   17  C   UNK N   1       3.052  -0.317   0.049  0.00  0.00     0.019 A 
HETATM   18  C   UNK N   1       4.156  -1.024   0.512  0.00  0.00     0.039 A 
HETATM   19  C   UNK N   1       4.094  -2.409   0.686  0.00  0.00     0.092 A 
HETATM   20 Cl   UNK N   1       2.806  -4.841   0.658  0.00  0.00    -0.079 Cl
BRANCH  11  21
HETATM   21  C   UNK N   1      -1.732  -3.094  -1.061  0.00  0.00     0.067 A 
HETATM   22  C   UNK N   1      -2.836  -2.486  -1.699  0.00  0.00     0.085 A 
HETATM   23  S   UNK N   1      -4.053  -3.598  -1.587  0.00  0.00    -0.064 SA
HETATM   24  C   UNK N   1      -3.227  -4.768  -0.772  0.00  0.00     0.145 A 
HETATM   25  N   UNK N   1      -1.955  -4.361  -0.561  0.00  0.00    -0.335 N 
ATOM     26  HN  UNK N   1      -1.246  -4.922  -0.089  1.00  0.00     0.168 HD
BRANCH  24  27
HETATM   27  N   UNK N   1      -3.764  -5.952  -0.206  0.00  0.00    -0.367 N 
HETATM   28  H   UNK N   1      -3.194  -6.753  -0.165  0.00  0.00     0.162 HD
BRANCH  27  29
HETATM   29  C   UNK N   1      -5.113  -6.037   0.316  0.00  0.00     0.075 C 
HETATM   30  C   UNK N   1      -6.172  -5.732  -0.726  0.00  0.00     0.032 C 
HETATM   31  C   UNK N   1      -5.348  -7.426   0.869  0.00  0.00     0.032 C 
ENDBRANCH  27  29
ENDBRANCH  24  27
ENDBRANCH  11  21
BRANCH  19  32
HETATM   32  O   UNK N   1       5.193  -3.070   1.101  0.00  0.00    -0.348 OA
BRANCH  32  33
HETATM   33  C   UNK N   1       6.046  -3.648   0.188  0.00  0.00     0.206 C 
BRANCH  33  34
HETATM   34  C   UNK N   1       7.471  -3.146   0.397  0.00  0.00     0.299 C 
BRANCH  34  35
HETATM   35  N   UNK N   1       7.684  -1.852  -0.239  0.00  0.00     0.094 N 
HETATM   36  C   UNK N   1       7.201  -0.805   0.666  0.00  0.00     0.298 C 
HETATM   37  C   UNK N   1       7.593   0.564   0.110  0.00  0.00     0.198 C 
HETATM   38  O   UNK N   1       8.995   0.656   0.076  0.00  0.00    -0.388 OA
HETATM   39  C   UNK N   1       9.437  -0.267  -0.890  0.00  0.00     0.198 C 
HETATM   40  C   UNK N   1       9.130  -1.693  -0.417  0.00  0.00     0.298 C 
ENDBRANCH  34  35
ENDBRANCH  33  34
ENDBRANCH  32  33
ENDBRANCH  19  32
ENDBRANCH   8   9
ENDBRANCH   3   8
BRANCH   1  41
HETATM   41  C   UNK N   1      -1.986   4.652   0.376  0.00  0.00     0.241 C 
HETATM   42  N   UNK N   1      -1.717   5.516  -0.633  0.00  0.00    -0.340 N 
HETATM   43  H   UNK N   1      -1.483   5.164  -1.522  0.00  0.00     0.163 HD
HETATM   44  O   UNK N   1      -2.410   5.066   1.446  0.00  0.00    -0.271 OA
BRANCH  42  45
HETATM   45  C   UNK N   1      -1.768   6.947  -0.427  0.00  0.00     0.122 A 
HETATM   46  C   UNK N   1      -2.321   7.686  -1.627  0.00  0.00     0.050 A 
HETATM   47  C   UNK N   1      -3.110   7.667  -0.326  0.00  0.00     0.027 A 
BRANCH  47  48
HETATM   48  C   UNK N   1      -4.313   6.766  -0.543  0.00  0.00     0.003 C 
HETATM   49  C   UNK N   1      -5.087   6.632   0.753  0.00  0.00     0.005 C 
ENDBRANCH  47  48
BRANCH  45  50
HETATM   50  C   UNK N   1      -0.539   7.567   0.184  0.00  0.00     0.169 C 
HETATM   51  O   UNK N   1      -0.043   8.579  -0.285  0.00  0.00    -0.648 OA
BRANCH  50  52
HETATM   52  O   UNK N   1       0.039   6.977   1.249  0.00  0.00    -0.775 OA
HETATM   53  H   UNK N   1      -0.115   6.424   1.990  0.00  0.00     0.167 HD
ENDBRANCH  50  52
ENDBRANCH  45  50
ENDBRANCH  42  45
ENDBRANCH   1  41
BRANCH   6  54
HETATM   54  C   UNK N   1      -3.813   0.317   0.180  0.00  0.00     0.186 C 
BRANCH  54  55
HETATM   55  C   UNK N   1      -3.381  -0.398   1.514  0.00  0.00    -0.022 C 
HETATM   56  C   UNK N   1      -4.238   0.045   2.690  0.00  0.00     0.017 C 
HETATM   57  C   UNK N   1      -1.926  -0.088   1.848  0.00  0.00     0.017 C 
HETATM   58  C   UNK N   1      -3.434  -1.905   1.435  0.00  0.00     0.017 C 
ENDBRANCH  54  55
BRANCH  54  59
HETATM   59  N   UNK N   1      -5.246   0.303  -0.069  0.00  0.00    -0.323 N 
HETATM   60  C   UNK N   1      -6.113  -0.752  -0.078  0.00  0.00     0.361 C 
HETATM   61  O   UNK N   1      -5.733  -1.885   0.136  0.00  0.00    -0.238 OA
HETATM   62  H   UNK N   1      -5.649   1.181  -0.257  0.00  0.00     0.165 HD
BRANCH  60  63
HETATM   63  O   UNK N   1      -7.438  -0.530  -0.263  0.00  0.00    -0.299 OA
BRANCH  63  64
HETATM   64  C   UNK N   1      -7.948   0.701  -0.617  0.00  0.00     0.134 C 
HETATM   65  C   UNK N   1      -9.453   0.690  -0.598  0.00  0.00     0.037 C 
HETATM   66  C   UNK N   1      -9.841   2.157  -0.464  0.00  0.00    -0.008 A 
HETATM   67  C   UNK N   1      -9.832   2.575   0.993  0.00  0.00     0.010 A 
HETATM   68  C   UNK N   1      -8.626   2.866   0.131  0.00  0.00    -0.008 A 
HETATM   69  C   UNK N   1      -7.593   1.791   0.370  0.00  0.00     0.037 C 
ENDBRANCH  63  64
ENDBRANCH  60  63
ENDBRANCH  54  59
ENDBRANCH   6  54
TORSDOF 19
