MODEL 1
REMARK VINA RESULT:      -9.0      0.000      0.000
REMARK  3 active torsions:
REMARK  status: ('A' for Active; 'I' for Inactive)
REMARK    1  A    between atoms: C_3  and  N_8 
REMARK    2  A    between atoms: C_11  and  N_14 
REMARK       I    between atoms: N_14  and  C_15 
REMARK    3  A    between atoms: C_17  and  C_15 
ROOT
HETATM    1  N   UNK N   1      35.450  14.280  10.627  0.00  0.00    -0.312 N 
HETATM    2  C   UNK N   1      35.693  15.509  10.068  0.00  0.00     0.227 C 
HETATM    3  O   UNK N   1      36.441  16.310  10.613  0.00  0.00    -0.273 OA
HETATM    4  H   UNK N   1      34.768  13.679  10.249  0.00  0.00     0.170 HD
ENDROOT
BRANCH   2   5
HETATM    5  C   UNK N   1      35.091  15.933   8.796  0.00  0.00     0.078 C 
HETATM    6  C   UNK N   1      34.177  14.863   8.202  0.00  0.00     0.017 C 
HETATM    7  C   UNK N   1      32.719  15.096   8.566  0.00  0.00     0.045 C 
HETATM    8  C   UNK N   1      32.319  16.521   8.190  0.00  0.00     0.100 A 
HETATM    9  O   UNK N   1      30.948  16.702   8.380  0.00  0.00    -0.301 OA
HETATM   10  C   UNK N   1      32.478  16.774   6.696  0.00  0.00     0.009 A 
HETATM   11  C   UNK N   1      33.107  17.508   9.050  0.00  0.00     0.045 C 
HETATM   12  C   UNK N   1      30.330  17.008   7.219  0.00  0.00     0.295 A 
HETATM   13  O   UNK N   1      29.129  17.206   7.122  0.00  0.00    -0.259 OA
HETATM   14  C   UNK N   1      31.271  17.052   6.146  0.00  0.00     0.051 A 
HETATM   15  C   UNK N   1      31.122  17.304   4.787  0.00  0.00     0.035 A 
HETATM   16  C   UNK N   1      32.279  17.260   3.991  0.00  0.00     0.088 A 
HETATM   17  N   UNK N   1      33.495  16.982   4.555  0.00  0.00    -0.375 N 
HETATM   18  C   UNK N   1      33.621  16.737   5.891  0.00  0.00     0.099 A 
ATOM     19  HN  UNK N   1      34.326  16.956   3.963  1.00  0.00     0.164 HD
HETATM   20  C   UNK N   1      34.599  17.384   8.773  0.00  0.00     0.017 C 
ENDBRANCH   2   5
BRANCH   1  21
HETATM   21  C   UNK N   1      36.204  13.898  11.765  0.00  0.00     0.124 A 
HETATM   22  N   UNK N   1      35.969  14.452  12.949  0.00  0.00    -0.279 N 
HETATM   23  N   UNK N   1      36.489  13.697  13.881  0.00  0.00    -0.263 N 
ATOM     24  HN  UNK N   1      35.463  15.324  13.106  1.00  0.00     0.189 HD
HETATM   25  C   UNK N   1      37.111  12.640  13.309  0.00  0.00     0.120 A 
HETATM   26  C   UNK N   1      36.948  12.742  11.921  0.00  0.00     0.069 A 
BRANCH  23  27
HETATM   27  C   UNK N   1      36.113  13.926  15.245  0.00  0.00     0.094 A 
HETATM   28  C   UNK N   1      35.165  13.063  15.826  0.00  0.00     0.035 A 
HETATM   29  C   UNK N   1      34.856  13.144  17.179  0.00  0.00     0.002 A 
HETATM   30  C   UNK N   1      35.504  14.083  17.977  0.00  0.00     0.003 A 
HETATM   31  C   UNK N   1      36.448  14.949  17.416  0.00  0.00     0.045 A 
HETATM   32  C   UNK N   1      36.755  14.879  16.051  0.00  0.00     0.144 A 
HETATM   33  F   UNK N   1      37.713  15.691  15.543  0.00  0.00    -0.204 F 
ENDBRANCH  23  27
ENDBRANCH   1  21
TORSDOF 3
ENDMDL
MODEL 2
REMARK VINA RESULT:      -8.9      2.708      3.594
REMARK  3 active torsions:
REMARK  status: ('A' for Active; 'I' for Inactive)
REMARK    1  A    between atoms: C_3  and  N_8 
REMARK    2  A    between atoms: C_11  and  N_14 
REMARK       I    between atoms: N_14  and  C_15 
REMARK    3  A    between atoms: C_17  and  C_15 
ROOT
HETATM    1  N   UNK N   1      34.347  12.361  12.353  0.00  0.00    -0.312 N 
HETATM    2  C   UNK N   1      35.301  12.527  11.381  0.00  0.00     0.227 C 
HETATM    3  O   UNK N   1      36.443  12.121  11.547  0.00  0.00    -0.273 OA
HETATM    4  H   UNK N   1      33.460  12.780  12.268  0.00  0.00     0.170 HD
ENDROOT
BRANCH   2   5
HETATM    5  C   UNK N   1      35.016  13.182  10.097  0.00  0.00     0.078 C 
HETATM    6  C   UNK N   1      33.717  13.986  10.131  0.00  0.00     0.017 C 
HETATM    7  C   UNK N   1      33.968  15.457  10.426  0.00  0.00     0.045 C 
HETATM    8  C   UNK N   1      35.002  16.006   9.447  0.00  0.00     0.100 A 
HETATM    9  O   UNK N   1      35.133  17.387   9.608  0.00  0.00    -0.301 OA
HETATM   10  C   UNK N   1      34.529  15.889   8.003  0.00  0.00     0.009 A 
HETATM   11  C   UNK N   1      36.344  15.317   9.692  0.00  0.00     0.045 C 
HETATM   12  C   UNK N   1      34.796  18.045   8.478  0.00  0.00     0.295 A 
HETATM   13  O   UNK N   1      34.819  19.260   8.368  0.00  0.00    -0.259 OA
HETATM   14  C   UNK N   1      34.407  17.123   7.458  0.00  0.00     0.051 A 
HETATM   15  C   UNK N   1      33.969  17.311   6.152  0.00  0.00     0.035 A 
HETATM   16  C   UNK N   1      33.653  16.163   5.405  0.00  0.00     0.088 A 
HETATM   17  N   UNK N   1      33.783  14.920   5.963  0.00  0.00    -0.375 N 
HETATM   18  C   UNK N   1      34.213  14.757   7.246  0.00  0.00     0.099 A 
ATOM     19  HN  UNK N   1      33.551  14.096   5.405  1.00  0.00     0.164 HD
HETATM   20  C   UNK N   1      36.234  13.822   9.421  0.00  0.00     0.017 C 
ENDBRANCH   2   5
BRANCH   1  21
HETATM   21  C   UNK N   1      34.671  11.571  13.485  0.00  0.00     0.124 A 
HETATM   22  N   UNK N   1      35.172  12.132  14.579  0.00  0.00    -0.279 N 
HETATM   23  N   UNK N   1      35.029  11.306  15.582  0.00  0.00    -0.263 N 
ATOM     24  HN  UNK N   1      35.599  13.057  14.629  1.00  0.00     0.189 HD
HETATM   25  C   UNK N   1      34.453  10.162  15.145  0.00  0.00     0.120 A 
HETATM   26  C   UNK N   1      34.208  10.299  13.772  0.00  0.00     0.069 A 
BRANCH  23  27
HETATM   27  C   UNK N   1      35.221  11.799  16.915  0.00  0.00     0.094 A 
HETATM   28  C   UNK N   1      35.102  13.185  17.132  0.00  0.00     0.035 A 
HETATM   29  C   UNK N   1      35.142  13.715  18.417  0.00  0.00     0.002 A 
HETATM   30  C   UNK N   1      35.286  12.862  19.509  0.00  0.00     0.003 A 
HETATM   31  C   UNK N   1      35.405  11.483  19.310  0.00  0.00     0.045 A 
HETATM   32  C   UNK N   1      35.377  10.945  18.017  0.00  0.00     0.144 A 
HETATM   33  F   UNK N   1      35.439   9.601  17.855  0.00  0.00    -0.204 F 
ENDBRANCH  23  27
ENDBRANCH   1  21
TORSDOF 3
ENDMDL
MODEL 3
REMARK VINA RESULT:      -8.7      3.452     10.012
REMARK  3 active torsions:
REMARK  status: ('A' for Active; 'I' for Inactive)
REMARK    1  A    between atoms: C_3  and  N_8 
REMARK    2  A    between atoms: C_11  and  N_14 
REMARK       I    between atoms: N_14  and  C_15 
REMARK    3  A    between atoms: C_17  and  C_15 
ROOT
HETATM    1  N   UNK N   1      34.789  13.957  12.107  0.00  0.00    -0.312 N 
HETATM    2  C   UNK N   1      35.901  13.236  12.459  0.00  0.00     0.227 C 
HETATM    3  O   UNK N   1      36.929  13.306  11.800  0.00  0.00    -0.273 OA
HETATM    4  H   UNK N   1      33.931  13.821  12.570  0.00  0.00     0.170 HD
ENDROOT
BRANCH   2   5
HETATM    5  C   UNK N   1      35.934  12.358  13.637  0.00  0.00     0.078 C 
HETATM    6  C   UNK N   1      37.078  12.705  14.588  0.00  0.00     0.017 C 
HETATM    7  C   UNK N   1      36.621  13.616  15.717  0.00  0.00     0.045 C 
HETATM    8  C   UNK N   1      35.411  12.999  16.414  0.00  0.00     0.100 A 
HETATM    9  O   UNK N   1      35.072  13.748  17.543  0.00  0.00    -0.301 OA
HETATM   10  C   UNK N   1      35.740  11.636  17.012  0.00  0.00     0.009 A 
HETATM   11  C   UNK N   1      34.236  12.954  15.438  0.00  0.00     0.045 C 
HETATM   12  C   UNK N   1      35.173  13.007  18.668  0.00  0.00     0.295 A 
HETATM   13  O   UNK N   1      34.937  13.437  19.785  0.00  0.00    -0.259 OA
HETATM   14  C   UNK N   1      35.597  11.679  18.358  0.00  0.00     0.051 A 
HETATM   15  C   UNK N   1      35.856  10.574  19.161  0.00  0.00     0.035 A 
HETATM   16  C   UNK N   1      36.276   9.395  18.522  0.00  0.00     0.088 A 
HETATM   17  N   UNK N   1      36.414   9.360  17.160  0.00  0.00    -0.375 N 
HETATM   18  C   UNK N   1      36.156  10.455  16.390  0.00  0.00     0.099 A 
ATOM     19  HN  UNK N   1      36.717   8.495  16.712  1.00  0.00     0.164 HD
HETATM   20  C   UNK N   1      34.563  12.058  14.251  0.00  0.00     0.017 C 
ENDBRANCH   2   5
BRANCH   1  21
HETATM   21  C   UNK N   1      34.905  14.902  11.056  0.00  0.00     0.124 A 
HETATM   22  N   UNK N   1      34.155  14.796   9.966  0.00  0.00    -0.279 N 
HETATM   23  N   UNK N   1      34.151  15.944   9.341  0.00  0.00    -0.263 N 
ATOM     24  HN  UNK N   1      33.661  13.955   9.665  1.00  0.00     0.189 HD
HETATM   25  C   UNK N   1      34.938  16.822  10.006  0.00  0.00     0.120 A 
HETATM   26  C   UNK N   1      35.453  16.171  11.135  0.00  0.00     0.069 A 
BRANCH  23  27
HETATM   27  C   UNK N   1      33.183  16.164   8.307  0.00  0.00     0.094 A 
HETATM   28  C   UNK N   1      31.850  16.406   8.688  0.00  0.00     0.035 A 
HETATM   29  C   UNK N   1      30.888  16.759   7.747  0.00  0.00     0.002 A 
HETATM   30  C   UNK N   1      31.251  16.890   6.409  0.00  0.00     0.003 A 
HETATM   31  C   UNK N   1      32.572  16.653   6.014  0.00  0.00     0.045 A 
HETATM   32  C   UNK N   1      33.541  16.286   6.955  0.00  0.00     0.144 A 
HETATM   33  F   UNK N   1      34.824  16.115   6.556  0.00  0.00    -0.204 F 
ENDBRANCH  23  27
ENDBRANCH   1  21
TORSDOF 3
ENDMDL
MODEL 4
REMARK VINA RESULT:      -8.6      3.988      6.558
REMARK  3 active torsions:
REMARK  status: ('A' for Active; 'I' for Inactive)
REMARK    1  A    between atoms: C_3  and  N_8 
REMARK    2  A    between atoms: C_11  and  N_14 
REMARK       I    between atoms: N_14  and  C_15 
REMARK    3  A    between atoms: C_17  and  C_15 
ROOT
HETATM    1  N   UNK N   1      31.489  17.041   7.525  0.00  0.00    -0.312 N 
HETATM    2  C   UNK N   1      30.284  17.414   8.064  0.00  0.00     0.227 C 
HETATM    3  O   UNK N   1      30.221  17.889   9.190  0.00  0.00    -0.273 OA
HETATM    4  H   UNK N   1      31.531  16.561   6.667  0.00  0.00     0.170 HD
ENDROOT
BRANCH   2   5
HETATM    5  C   UNK N   1      29.015  17.280   7.336  0.00  0.00     0.078 C 
HETATM    6  C   UNK N   1      28.031  18.399   7.673  0.00  0.00     0.017 C 
HETATM    7  C   UNK N   1      28.090  19.530   6.658  0.00  0.00     0.045 C 
HETATM    8  C   UNK N   1      27.915  18.965   5.251  0.00  0.00     0.100 A 
HETATM    9  O   UNK N   1      27.818  20.005   4.324  0.00  0.00    -0.301 OA
HETATM   10  C   UNK N   1      26.575  18.258   5.090  0.00  0.00     0.009 A 
HETATM   11  C   UNK N   1      29.107  18.069   4.917  0.00  0.00     0.045 C 
HETATM   12  C   UNK N   1      26.628  19.980   3.685  0.00  0.00     0.295 A 
HETATM   13  O   UNK N   1      26.299  20.789   2.833  0.00  0.00    -0.259 OA
HETATM   14  C   UNK N   1      25.829  18.894   4.156  0.00  0.00     0.051 A 
HETATM   15  C   UNK N   1      24.547  18.470   3.825  0.00  0.00     0.035 A 
HETATM   16  C   UNK N   1      24.044  17.345   4.500  0.00  0.00     0.088 A 
HETATM   17  N   UNK N   1      24.807  16.705   5.440  0.00  0.00    -0.375 N 
HETATM   18  C   UNK N   1      26.062  17.137   5.751  0.00  0.00     0.099 A 
ATOM     19  HN  UNK N   1      24.428  15.888   5.919  1.00  0.00     0.164 HD
HETATM   20  C   UNK N   1      29.162  16.878   5.864  0.00  0.00     0.017 C 
ENDBRANCH   2   5
BRANCH   1  21
HETATM   21  C   UNK N   1      32.672  17.363   8.236  0.00  0.00     0.124 A 
HETATM   22  N   UNK N   1      33.169  16.523   9.137  0.00  0.00    -0.279 N 
HETATM   23  N   UNK N   1      34.417  16.838   9.366  0.00  0.00    -0.263 N 
ATOM     24  HN  UNK N   1      32.660  15.757   9.577  1.00  0.00     0.189 HD
HETATM   25  C   UNK N   1      34.750  17.924   8.632  0.00  0.00     0.120 A 
HETATM   26  C   UNK N   1      33.628  18.299   7.881  0.00  0.00     0.069 A 
BRANCH  23  27
HETATM   27  C   UNK N   1      35.245  15.904  10.071  0.00  0.00     0.094 A 
HETATM   28  C   UNK N   1      35.282  15.979  11.477  0.00  0.00     0.035 A 
HETATM   29  C   UNK N   1      35.955  15.023  12.229  0.00  0.00     0.002 A 
HETATM   30  C   UNK N   1      36.590  13.964  11.585  0.00  0.00     0.003 A 
HETATM   31  C   UNK N   1      36.564  13.874  10.189  0.00  0.00     0.045 A 
HETATM   32  C   UNK N   1      35.897  14.841   9.426  0.00  0.00     0.144 A 
HETATM   33  F   UNK N   1      35.839  14.701   8.080  0.00  0.00    -0.204 F 
ENDBRANCH  23  27
ENDBRANCH   1  21
TORSDOF 3
ENDMDL
MODEL 5
REMARK VINA RESULT:      -8.5      4.020      9.567
REMARK  3 active torsions:
REMARK  status: ('A' for Active; 'I' for Inactive)
REMARK    1  A    between atoms: C_3  and  N_8 
REMARK    2  A    between atoms: C_11  and  N_14 
REMARK       I    between atoms: N_14  and  C_15 
REMARK    3  A    between atoms: C_17  and  C_15 
ROOT
HETATM    1  N   UNK N   1      31.345  16.487   8.822  0.00  0.00    -0.312 N 
HETATM    2  C   UNK N   1      32.610  16.948   8.555  0.00  0.00     0.227 C 
HETATM    3  O   UNK N   1      32.797  18.109   8.216  0.00  0.00    -0.273 OA
HETATM    4  H   UNK N   1      31.181  15.531   8.989  0.00  0.00     0.170 HD
ENDROOT
BRANCH   2   5
HETATM    5  C   UNK N   1      33.802  16.096   8.668  0.00  0.00     0.078 C 
HETATM    6  C   UNK N   1      34.936  16.783   9.427  0.00  0.00     0.017 C 
HETATM    7  C   UNK N   1      34.951  16.395  10.897  0.00  0.00     0.045 C 
HETATM    8  C   UNK N   1      34.962  14.874  11.025  0.00  0.00     0.100 A 
HETATM    9  O   UNK N   1      35.126  14.504  12.361  0.00  0.00    -0.301 OA
HETATM   10  C   UNK N   1      36.192  14.263  10.364  0.00  0.00     0.009 A 
HETATM   11  C   UNK N   1      33.650  14.313  10.478  0.00  0.00     0.045 C 
HETATM   12  C   UNK N   1      36.259  13.791  12.536  0.00  0.00     0.295 A 
HETATM   13  O   UNK N   1      36.629  13.359  13.615  0.00  0.00    -0.259 OA
HETATM   14  C   UNK N   1      36.948  13.633  11.295  0.00  0.00     0.051 A 
HETATM   15  C   UNK N   1      38.144  13.003  10.968  0.00  0.00     0.035 A 
HETATM   16  C   UNK N   1      38.548  13.042   9.622  0.00  0.00     0.088 A 
HETATM   17  N   UNK N   1      37.775  13.678   8.687  0.00  0.00    -0.375 N 
HETATM   18  C   UNK N   1      36.605  14.290   9.029  0.00  0.00     0.099 A 
ATOM     19  HN  UNK N   1      38.082  13.694   7.714  1.00  0.00     0.164 HD
HETATM   20  C   UNK N   1      33.512  14.628   8.995  0.00  0.00     0.017 C 
ENDBRANCH   2   5
BRANCH   1  21
HETATM   21  C   UNK N   1      30.281  17.423   8.849  0.00  0.00     0.124 A 
HETATM   22  N   UNK N   1      29.930  18.079   7.749  0.00  0.00    -0.279 N 
HETATM   23  N   UNK N   1      28.729  18.569   7.913  0.00  0.00    -0.263 N 
ATOM     24  HN  UNK N   1      30.504  18.182   6.912  1.00  0.00     0.189 HD
HETATM   25  C   UNK N   1      28.284  18.264   9.154  0.00  0.00     0.120 A 
HETATM   26  C   UNK N   1      29.278  17.517   9.798  0.00  0.00     0.069 A 
BRANCH  23  27
HETATM   27  C   UNK N   1      28.021  19.059   6.766  0.00  0.00     0.094 A 
HETATM   28  C   UNK N   1      27.684  20.425   6.729  0.00  0.00     0.035 A 
HETATM   29  C   UNK N   1      27.119  20.993   5.592  0.00  0.00     0.002 A 
HETATM   30  C   UNK N   1      26.897  20.204   4.467  0.00  0.00     0.003 A 
HETATM   31  C   UNK N   1      27.227  18.844   4.487  0.00  0.00     0.045 A 
HETATM   32  C   UNK N   1      27.785  18.264   5.633  0.00  0.00     0.144 A 
HETATM   33  F   UNK N   1      28.146  16.959   5.609  0.00  0.00    -0.204 F 
ENDBRANCH  23  27
ENDBRANCH   1  21
TORSDOF 3
ENDMDL
MODEL 6
REMARK VINA RESULT:      -8.5      5.954     11.625
REMARK  3 active torsions:
REMARK  status: ('A' for Active; 'I' for Inactive)
REMARK    1  A    between atoms: C_3  and  N_8 
REMARK    2  A    between atoms: C_11  and  N_14 
REMARK       I    between atoms: N_14  and  C_15 
REMARK    3  A    between atoms: C_17  and  C_15 
ROOT
HETATM    1  N   UNK N   1      28.752  18.142   5.012  0.00  0.00    -0.312 N 
HETATM    2  C   UNK N   1      28.564  17.747   6.312  0.00  0.00     0.227 C 
HETATM    3  O   UNK N   1      27.564  18.084   6.932  0.00  0.00    -0.273 OA
HETATM    4  H   UNK N   1      29.601  17.963   4.547  0.00  0.00     0.170 HD
ENDROOT
BRANCH   2   5
HETATM    5  C   UNK N   1      29.527  16.900   7.029  0.00  0.00     0.078 C 
HETATM    6  C   UNK N   1      30.772  16.603   6.195  0.00  0.00     0.017 C 
HETATM    7  C   UNK N   1      31.910  17.560   6.513  0.00  0.00     0.045 C 
HETATM    8  C   UNK N   1      32.168  17.566   8.017  0.00  0.00     0.100 A 
HETATM    9  O   UNK N   1      33.304  18.325   8.307  0.00  0.00    -0.301 OA
HETATM   10  C   UNK N   1      32.559  16.184   8.527  0.00  0.00     0.009 A 
HETATM   11  C   UNK N   1      30.950  18.144   8.735  0.00  0.00     0.045 C 
HETATM   12  C   UNK N   1      34.260  17.570   8.890  0.00  0.00     0.295 A 
HETATM   13  O   UNK N   1      35.349  18.000   9.232  0.00  0.00    -0.259 OA
HETATM   14  C   UNK N   1      33.816  16.220   9.032  0.00  0.00     0.051 A 
HETATM   15  C   UNK N   1      34.434  15.086   9.548  0.00  0.00     0.035 A 
HETATM   16  C   UNK N   1      33.702  13.886   9.528  0.00  0.00     0.088 A 
HETATM   17  N   UNK N   1      32.431  13.860   9.019  0.00  0.00    -0.375 N 
HETATM   18  C   UNK N   1      31.843  14.984   8.517  0.00  0.00     0.099 A 
ATOM     19  HN  UNK N   1      31.913  12.981   9.014  1.00  0.00     0.164 HD
HETATM   20  C   UNK N   1      29.728  17.266   8.504  0.00  0.00     0.017 C 
ENDBRANCH   2   5
BRANCH   1  21
HETATM   21  C   UNK N   1      27.691  18.815   4.354  0.00  0.00     0.124 A 
HETATM   22  N   UNK N   1      26.490  18.255   4.261  0.00  0.00    -0.279 N 
HETATM   23  N   UNK N   1      25.612  19.180   3.976  0.00  0.00    -0.263 N 
ATOM     24  HN  UNK N   1      26.287  17.264   4.392  1.00  0.00     0.189 HD
HETATM   25  C   UNK N   1      26.240  20.372   3.844  0.00  0.00     0.120 A 
HETATM   26  C   UNK N   1      27.606  20.169   4.081  0.00  0.00     0.069 A 
BRANCH  23  27
HETATM   27  C   UNK N   1      24.219  18.875   4.117  0.00  0.00     0.094 A 
HETATM   28  C   UNK N   1      23.842  17.922   5.082  0.00  0.00     0.035 A 
HETATM   29  C   UNK N   1      22.503  17.678   5.364  0.00  0.00     0.002 A 
HETATM   30  C   UNK N   1      21.517  18.397   4.694  0.00  0.00     0.003 A 
HETATM   31  C   UNK N   1      21.874  19.348   3.732  0.00  0.00     0.045 A 
HETATM   32  C   UNK N   1      23.221  19.589   3.435  0.00  0.00     0.144 A 
HETATM   33  F   UNK N   1      23.541  20.554   2.540  0.00  0.00    -0.204 F 
ENDBRANCH  23  27
ENDBRANCH   1  21
TORSDOF 3
ENDMDL
MODEL 7
REMARK VINA RESULT:      -8.0      7.616     13.039
REMARK  3 active torsions:
REMARK  status: ('A' for Active; 'I' for Inactive)
REMARK    1  A    between atoms: C_3  and  N_8 
REMARK    2  A    between atoms: C_11  and  N_14 
REMARK       I    between atoms: N_14  and  C_15 
REMARK    3  A    between atoms: C_17  and  C_15 
ROOT
HETATM    1  N   UNK N   1      25.056  16.149   6.257  0.00  0.00    -0.312 N 
HETATM    2  C   UNK N   1      26.087  16.847   5.680  0.00  0.00     0.227 C 
HETATM    3  O   UNK N   1      25.950  17.378   4.586  0.00  0.00    -0.273 OA
HETATM    4  H   UNK N   1      25.196  15.632   7.083  0.00  0.00     0.170 HD
ENDROOT
BRANCH   2   5
HETATM    5  C   UNK N   1      27.395  17.008   6.330  0.00  0.00     0.078 C 
HETATM    6  C   UNK N   1      28.277  15.771   6.173  0.00  0.00     0.017 C 
HETATM    7  C   UNK N   1      29.236  15.903   5.000  0.00  0.00     0.045 C 
HETATM    8  C   UNK N   1      30.024  17.204   5.126  0.00  0.00     0.100 A 
HETATM    9  O   UNK N   1      31.010  17.268   4.140  0.00  0.00    -0.301 OA
HETATM   10  C   UNK N   1      30.843  17.244   6.411  0.00  0.00     0.009 A 
HETATM   11  C   UNK N   1      29.066  18.388   4.993  0.00  0.00     0.045 C 
HETATM   12  C   UNK N   1      32.244  17.328   4.686  0.00  0.00     0.295 A 
HETATM   13  O   UNK N   1      33.273  17.383   4.033  0.00  0.00    -0.259 OA
HETATM   14  C   UNK N   1      32.162  17.308   6.112  0.00  0.00     0.051 A 
HETATM   15  C   UNK N   1      33.140  17.334   7.100  0.00  0.00     0.035 A 
HETATM   16  C   UNK N   1      32.709  17.292   8.437  0.00  0.00     0.088 A 
HETATM   17  N   UNK N   1      31.372  17.230   8.730  0.00  0.00    -0.375 N 
HETATM   18  C   UNK N   1      30.429  17.205   7.746  0.00  0.00     0.099 A 
ATOM     19  HN  UNK N   1      31.076  17.203   9.706  1.00  0.00     0.164 HD
HETATM   20  C   UNK N   1      28.047  18.380   6.124  0.00  0.00     0.017 C 
ENDBRANCH   2   5
BRANCH   1  21
HETATM   21  C   UNK N   1      23.784  16.191   5.633  0.00  0.00     0.124 A 
HETATM   22  N   UNK N   1      23.187  17.353   5.393  0.00  0.00    -0.279 N 
HETATM   23  N   UNK N   1      22.251  17.171   4.498  0.00  0.00    -0.263 N 
ATOM     24  HN  UNK N   1      23.422  18.242   5.834  1.00  0.00     0.189 HD
HETATM   25  C   UNK N   1      22.200  15.862   4.160  0.00  0.00     0.120 A 
HETATM   26  C   UNK N   1      23.188  15.188   4.889  0.00  0.00     0.069 A 
BRANCH  23  27
HETATM   27  C   UNK N   1      21.673  18.318   3.862  0.00  0.00     0.094 A 
HETATM   28  C   UNK N   1      22.534  19.355   3.454  0.00  0.00     0.035 A 
HETATM   29  C   UNK N   1      22.059  20.432   2.714  0.00  0.00     0.002 A 
HETATM   30  C   UNK N   1      20.715  20.480   2.355  0.00  0.00     0.003 A 
HETATM   31  C   UNK N   1      19.846  19.458   2.752  0.00  0.00     0.045 A 
HETATM   32  C   UNK N   1      20.316  18.377   3.508  0.00  0.00     0.144 A 
HETATM   33  F   UNK N   1      19.467  17.374   3.833  0.00  0.00    -0.204 F 
ENDBRANCH  23  27
ENDBRANCH   1  21
TORSDOF 3
ENDMDL
MODEL 8
REMARK VINA RESULT:      -7.9      8.276     13.840
REMARK  3 active torsions:
REMARK  status: ('A' for Active; 'I' for Inactive)
REMARK    1  A    between atoms: C_3  and  N_8 
REMARK    2  A    between atoms: C_11  and  N_14 
REMARK       I    between atoms: N_14  and  C_15 
REMARK    3  A    between atoms: C_17  and  C_15 
ROOT
HETATM    1  N   UNK N   1      24.697  16.728   4.943  0.00  0.00    -0.312 N 
HETATM    2  C   UNK N   1      25.756  17.443   4.445  0.00  0.00     0.227 C 
HETATM    3  O   UNK N   1      25.598  18.255   3.543  0.00  0.00    -0.273 OA
HETATM    4  H   UNK N   1      24.838  16.001   5.591  0.00  0.00     0.170 HD
ENDROOT
BRANCH   2   5
HETATM    5  C   UNK N   1      27.125  17.292   4.959  0.00  0.00     0.078 C 
HETATM    6  C   UNK N   1      27.821  18.637   5.159  0.00  0.00     0.017 C 
HETATM    7  C   UNK N   1      27.711  19.124   6.596  0.00  0.00     0.045 C 
HETATM    8  C   UNK N   1      28.200  18.034   7.546  0.00  0.00     0.100 A 
HETATM    9  O   UNK N   1      28.245  18.520   8.854  0.00  0.00    -0.301 OA
HETATM   10  C   UNK N   1      29.657  17.670   7.282  0.00  0.00     0.009 A 
HETATM   11  C   UNK N   1      27.260  16.832   7.460  0.00  0.00     0.045 C 
HETATM   12  C   UNK N   1      29.503  18.485   9.345  0.00  0.00     0.295 A 
HETATM   13  O   UNK N   1      29.803  18.863  10.466  0.00  0.00    -0.259 OA
HETATM   14  C   UNK N   1      30.407  17.960   8.372  0.00  0.00     0.051 A 
HETATM   15  C   UNK N   1      31.780  17.747   8.398  0.00  0.00     0.035 A 
HETATM   16  C   UNK N   1      32.373  17.213   7.241  0.00  0.00     0.088 A 
HETATM   17  N   UNK N   1      31.607  16.919   6.145  0.00  0.00    -0.375 N 
HETATM   18  C   UNK N   1      30.260  17.136   6.140  0.00  0.00     0.099 A 
ATOM     19  HN  UNK N   1      32.052  16.529   5.314  1.00  0.00     0.164 HD
HETATM   20  C   UNK N   1      27.282  16.236   6.059  0.00  0.00     0.017 C 
ENDBRANCH   2   5
BRANCH   1  21
HETATM   21  C   UNK N   1      23.392  17.064   4.501  0.00  0.00     0.124 A 
HETATM   22  N   UNK N   1      22.937  16.614   3.337  0.00  0.00    -0.279 N 
HETATM   23  N   UNK N   1      21.634  16.719   3.322  0.00  0.00    -0.263 N 
ATOM     24  HN  UNK N   1      23.512  16.246   2.578  1.00  0.00     0.189 HD
HETATM   25  C   UNK N   1      21.214  17.278   4.481  0.00  0.00     0.120 A 
HETATM   26  C   UNK N   1      22.341  17.522   5.277  0.00  0.00     0.069 A 
BRANCH  23  27
HETATM   27  C   UNK N   1      20.898  16.031   2.303  0.00  0.00     0.094 A 
HETATM   28  C   UNK N   1      20.678  14.649   2.462  0.00  0.00     0.035 A 
HETATM   29  C   UNK N   1      19.860  13.948   1.583  0.00  0.00     0.002 A 
HETATM   30  C   UNK N   1      19.236  14.623   0.537  0.00  0.00     0.003 A 
HETATM   31  C   UNK N   1      19.445  15.995   0.365  0.00  0.00     0.045 A 
HETATM   32  C   UNK N   1      20.277  16.704   1.240  0.00  0.00     0.144 A 
HETATM   33  F   UNK N   1      20.419  18.043   1.084  0.00  0.00    -0.204 F 
ENDBRANCH  23  27
ENDBRANCH   1  21
TORSDOF 3
ENDMDL
MODEL 9
REMARK VINA RESULT:      -7.9      4.592      7.722
REMARK  3 active torsions:
REMARK  status: ('A' for Active; 'I' for Inactive)
REMARK    1  A    between atoms: C_3  and  N_8 
REMARK    2  A    between atoms: C_11  and  N_14 
REMARK       I    between atoms: N_14  and  C_15 
REMARK    3  A    between atoms: C_17  and  C_15 
ROOT
HETATM    1  N   UNK N   1      30.849  17.567   5.637  0.00  0.00    -0.312 N 
HETATM    2  C   UNK N   1      29.947  16.572   5.918  0.00  0.00     0.227 C 
HETATM    3  O   UNK N   1      30.319  15.498   6.371  0.00  0.00    -0.273 OA
HETATM    4  H   UNK N   1      30.567  18.389   5.174  0.00  0.00     0.170 HD
ENDROOT
BRANCH   2   5
HETATM    5  C   UNK N   1      28.502  16.732   5.708  0.00  0.00     0.078 C 
HETATM    6  C   UNK N   1      27.963  18.018   6.332  0.00  0.00     0.017 C 
HETATM    7  C   UNK N   1      27.880  19.149   5.319  0.00  0.00     0.045 C 
HETATM    8  C   UNK N   1      27.091  18.684   4.097  0.00  0.00     0.100 A 
HETATM    9  O   UNK N   1      26.880  19.754   3.226  0.00  0.00    -0.301 OA
HETATM   10  C   UNK N   1      25.670  18.277   4.466  0.00  0.00     0.009 A 
HETATM   11  C   UNK N   1      27.866  17.573   3.390  0.00  0.00     0.045 C 
HETATM   12  C   UNK N   1      25.561  20.001   3.066  0.00  0.00     0.295 A 
HETATM   13  O   UNK N   1      25.119  20.892   2.359  0.00  0.00    -0.259 OA
HETATM   14  C   UNK N   1      24.783  19.089   3.842  0.00  0.00     0.051 A 
HETATM   15  C   UNK N   1      23.411  18.953   4.019  0.00  0.00     0.035 A 
HETATM   16  C   UNK N   1      22.968  17.933   4.878  0.00  0.00     0.088 A 
HETATM   17  N   UNK N   1      23.871  17.115   5.502  0.00  0.00    -0.375 N 
HETATM   18  C   UNK N   1      25.213  17.265   5.315  0.00  0.00     0.099 A 
ATOM     19  HN  UNK N   1      23.532  16.377   6.120  1.00  0.00     0.164 HD
HETATM   20  C   UNK N   1      28.015  16.363   4.303  0.00  0.00     0.017 C 
ENDBRANCH   2   5
BRANCH   1  21
HETATM   21  C   UNK N   1      32.198  17.382   6.030  0.00  0.00     0.124 A 
HETATM   22  N   UNK N   1      32.513  17.213   7.309  0.00  0.00    -0.279 N 
HETATM   23  N   UNK N   1      33.709  16.691   7.386  0.00  0.00    -0.263 N 
ATOM     24  HN  UNK N   1      31.917  17.450   8.102  1.00  0.00     0.189 HD
HETATM   25  C   UNK N   1      34.215  16.539   6.140  0.00  0.00     0.120 A 
HETATM   26  C   UNK N   1      33.253  16.986   5.225  0.00  0.00     0.069 A 
BRANCH  23  27
HETATM   27  C   UNK N   1      34.144  16.145   8.638  0.00  0.00     0.094 A 
HETATM   28  C   UNK N   1      34.925  16.959   9.481  0.00  0.00     0.035 A 
HETATM   29  C   UNK N   1      35.267  16.545  10.763  0.00  0.00     0.002 A 
HETATM   30  C   UNK N   1      34.818  15.312  11.230  0.00  0.00     0.003 A 
HETATM   31  C   UNK N   1      34.041  14.491  10.405  0.00  0.00     0.045 A 
HETATM   32  C   UNK N   1      33.703  14.898   9.109  0.00  0.00     0.144 A 
HETATM   33  F   UNK N   1      32.904  14.110   8.351  0.00  0.00    -0.204 F 
ENDBRANCH  23  27
ENDBRANCH   1  21
TORSDOF 3
ENDMDL
