MODEL 1
REMARK VINA RESULT:      -7.8      0.000      0.000
REMARK  5 active torsions:
REMARK  status: ('A' for Active; 'I' for Inactive)
REMARK    1  A    between atoms: C_2  and  C_3 
REMARK    2  A    between atoms: C_2  and  N_14 
REMARK       I    between atoms: N_14  and  C_16 
REMARK    3  A    between atoms: C_16  and  C_18 
REMARK    4  A    between atoms: C_18  and  C_19 
REMARK    5  A    between atoms: C_19  and  C_26 
ROOT
HETATM    1  N   UNK N   1      29.120  25.008  -4.484  0.00  0.00    -0.348 N 
HETATM    2  C   UNK N   1      30.191  25.618  -5.225  0.00  0.00     0.153 C 
HETATM    3  C   UNK N   1      28.061  25.793  -4.087  0.00  0.00     0.221 C 
HETATM    4  O   UNK N   1      27.098  25.275  -3.531  0.00  0.00    -0.273 OA
ENDROOT
BRANCH   3   5
HETATM    5  C   UNK N   1      28.146  27.312  -4.068  0.00  0.00     0.117 C 
BRANCH   5   6
HETATM    6  C   UNK N   1      27.353  28.205  -5.049  0.00  0.00    -0.002 C 
HETATM    7  C   UNK N   1      28.258  29.393  -5.420  0.00  0.00     0.045 C 
HETATM    8  C   UNK N   1      28.514  30.367  -4.256  0.00  0.00     0.273 C 
HETATM    9  N   UNK N   1      27.779  29.990  -3.048  0.00  0.00     0.084 N 
HETATM   10  C   UNK N   1      26.353  29.876  -3.358  0.00  0.00     0.273 C 
HETATM   11  C   UNK N   1      27.945  31.062  -2.084  0.00  0.00     0.309 C 
HETATM   12  C   UNK N   1      26.073  28.759  -4.389  0.00  0.00     0.045 C 
BRANCH   6  13
HETATM   13  C   UNK N   1      27.056  27.466  -6.349  0.00  0.00    -0.049 A 
HETATM   14  C   UNK N   1      27.919  27.571  -7.452  0.00  0.00     0.011 A 
HETATM   15  C   UNK N   1      27.653  26.911  -8.649  0.00  0.00     0.043 A 
HETATM   16  C   UNK N   1      26.498  26.148  -8.773  0.00  0.00     0.116 A 
HETATM   17  C   UNK N   1      25.602  26.058  -7.704  0.00  0.00     0.043 A 
HETATM   18  F   UNK N   1      26.247  25.498  -9.935  0.00  0.00    -0.206 F 
HETATM   19  C   UNK N   1      25.874  26.719  -6.497  0.00  0.00     0.011 A 
ENDBRANCH   6  13
ENDBRANCH   5   6
ENDBRANCH   3   5
BRANCH   1  20
HETATM   20  C   UNK N   1      29.221  23.614  -4.007  0.00  0.00     0.116 C 
HETATM   21  C   UNK N   1      30.232  23.623  -2.855  0.00  0.00     0.037 C 
BRANCH  20  22
HETATM   22  C   UNK N   1      29.703  22.506  -4.980  0.00  0.00    -0.023 A 
HETATM   23  C   UNK N   1      30.863  21.744  -4.743  0.00  0.00     0.034 A 
HETATM   24  C   UNK N   1      31.240  20.692  -5.577  0.00  0.00     0.035 A 
HETATM   25  C   UNK N   1      30.452  20.355  -6.672  0.00  0.00     0.036 A 
HETATM   26 Cl   UNK N   1      32.685  19.769  -5.224  0.00  0.00    -0.084 Cl
HETATM   27  C   UNK N   1      29.298  21.083  -6.951  0.00  0.00    -0.024 A 
HETATM   28  C   UNK N   1      28.920  22.171  -6.121  0.00  0.00    -0.018 A 
HETATM   29  C   UNK N   1      28.502  20.720  -8.040  0.00  0.00     0.012 A 
HETATM   30  C   UNK N   1      27.745  22.876  -6.432  0.00  0.00     0.013 A 
HETATM   31  C   UNK N   1      26.957  22.508  -7.524  0.00  0.00     0.001 A 
HETATM   32  C   UNK N   1      27.332  21.427  -8.323  0.00  0.00     0.001 A 
ENDBRANCH  20  22
ENDBRANCH   1  20
TORSDOF 5
ENDMDL
MODEL 2
REMARK VINA RESULT:      -7.7     15.064     17.699
REMARK  5 active torsions:
REMARK  status: ('A' for Active; 'I' for Inactive)
REMARK    1  A    between atoms: C_2  and  C_3 
REMARK    2  A    between atoms: C_2  and  N_14 
REMARK       I    between atoms: N_14  and  C_16 
REMARK    3  A    between atoms: C_16  and  C_18 
REMARK    4  A    between atoms: C_18  and  C_19 
REMARK    5  A    between atoms: C_19  and  C_26 
ROOT
HETATM    1  N   UNK N   1      22.983  15.815   5.051  0.00  0.00    -0.348 N 
HETATM    2  C   UNK N   1      22.461  15.497   3.750  0.00  0.00     0.153 C 
HETATM    3  C   UNK N   1      23.285  14.784   5.911  0.00  0.00     0.221 C 
HETATM    4  O   UNK N   1      23.811  15.030   6.992  0.00  0.00    -0.273 OA
ENDROOT
BRANCH   3   5
HETATM    5  C   UNK N   1      22.754  13.374   5.697  0.00  0.00     0.117 C 
BRANCH   5   6
HETATM    6  C   UNK N   1      21.553  12.804   6.487  0.00  0.00    -0.002 C 
HETATM    7  C   UNK N   1      21.292  11.382   5.961  0.00  0.00     0.045 C 
HETATM    8  C   UNK N   1      20.758  11.341   4.517  0.00  0.00     0.273 C 
HETATM    9  N   UNK N   1      20.545  12.681   3.969  0.00  0.00     0.084 N 
HETATM   10  C   UNK N   1      19.659  13.437   4.856  0.00  0.00     0.273 C 
HETATM   11  C   UNK N   1      19.876  12.527   2.690  0.00  0.00     0.309 C 
HETATM   12  C   UNK N   1      20.282  13.648   6.254  0.00  0.00     0.045 C 
BRANCH   6  13
HETATM   13  C   UNK N   1      21.886  12.663   7.968  0.00  0.00    -0.049 A 
HETATM   14  C   UNK N   1      22.877  11.768   8.403  0.00  0.00     0.011 A 
HETATM   15  C   UNK N   1      23.183  11.619   9.752  0.00  0.00     0.043 A 
HETATM   16  C   UNK N   1      22.480  12.352  10.702  0.00  0.00     0.116 A 
HETATM   17  C   UNK N   1      21.460  13.221  10.300  0.00  0.00     0.043 A 
HETATM   18  F   UNK N   1      22.786  12.214  12.015  0.00  0.00    -0.206 F 
HETATM   19  C   UNK N   1      21.158  13.373   8.940  0.00  0.00     0.011 A 
ENDBRANCH   6  13
ENDBRANCH   5   6
ENDBRANCH   3   5
BRANCH   1  20
HETATM   20  C   UNK N   1      23.038  17.211   5.530  0.00  0.00     0.116 C 
HETATM   21  C   UNK N   1      21.682  17.498   6.185  0.00  0.00     0.037 C 
BRANCH  20  22
HETATM   22  C   UNK N   1      23.265  18.360   4.513  0.00  0.00    -0.023 A 
HETATM   23  C   UNK N   1      22.202  19.025   3.874  0.00  0.00     0.034 A 
HETATM   24  C   UNK N   1      22.411  20.114   3.028  0.00  0.00     0.035 A 
HETATM   25  C   UNK N   1      23.700  20.587   2.808  0.00  0.00     0.036 A 
HETATM   26 Cl   UNK N   1      21.048  20.912   2.273  0.00  0.00    -0.084 Cl
HETATM   27  C   UNK N   1      24.786  19.958   3.415  0.00  0.00    -0.024 A 
HETATM   28  C   UNK N   1      24.583  18.834   4.258  0.00  0.00    -0.018 A 
HETATM   29  C   UNK N   1      26.073  20.457   3.205  0.00  0.00     0.012 A 
HETATM   30  C   UNK N   1      25.704  18.232   4.855  0.00  0.00     0.013 A 
HETATM   31  C   UNK N   1      26.987  18.736   4.637  0.00  0.00     0.001 A 
HETATM   32  C   UNK N   1      27.171  19.851   3.819  0.00  0.00     0.001 A 
ENDBRANCH  20  22
ENDBRANCH   1  20
TORSDOF 5
ENDMDL
MODEL 3
REMARK VINA RESULT:      -7.6      3.130      7.425
REMARK  5 active torsions:
REMARK  status: ('A' for Active; 'I' for Inactive)
REMARK    1  A    between atoms: C_2  and  C_3 
REMARK    2  A    between atoms: C_2  and  N_14 
REMARK       I    between atoms: N_14  and  C_16 
REMARK    3  A    between atoms: C_16  and  C_18 
REMARK    4  A    between atoms: C_18  and  C_19 
REMARK    5  A    between atoms: C_19  and  C_26 
ROOT
HETATM    1  N   UNK N   1      26.264  23.926  -7.269  0.00  0.00    -0.348 N 
HETATM    2  C   UNK N   1      25.667  23.303  -6.119  0.00  0.00     0.153 C 
HETATM    3  C   UNK N   1      27.361  23.331  -7.849  0.00  0.00     0.221 C 
HETATM    4  O   UNK N   1      27.831  23.800  -8.881  0.00  0.00    -0.273 OA
ENDROOT
BRANCH   3   5
HETATM    5  C   UNK N   1      28.181  22.274  -7.125  0.00  0.00     0.117 C 
BRANCH   5   6
HETATM    6  C   UNK N   1      29.543  22.582  -6.461  0.00  0.00    -0.002 C 
HETATM    7  C   UNK N   1      30.562  22.809  -7.592  0.00  0.00     0.045 C 
HETATM    8  C   UNK N   1      30.892  21.537  -8.395  0.00  0.00     0.273 C 
HETATM    9  N   UNK N   1      30.212  20.356  -7.864  0.00  0.00     0.084 N 
HETATM   10  C   UNK N   1      30.534  20.202  -6.445  0.00  0.00     0.273 C 
HETATM   11  C   UNK N   1      30.730  19.199  -8.571  0.00  0.00     0.309 C 
HETATM   12  C   UNK N   1      30.027  21.395  -5.604  0.00  0.00     0.045 C 
BRANCH   6  13
HETATM   13  C   UNK N   1      29.485  23.882  -5.665  0.00  0.00    -0.049 A 
HETATM   14  C   UNK N   1      28.673  23.994  -4.524  0.00  0.00     0.011 A 
HETATM   15  C   UNK N   1      28.601  25.177  -3.797  0.00  0.00     0.043 A 
HETATM   16  C   UNK N   1      29.326  26.288  -4.213  0.00  0.00     0.116 A 
HETATM   17  C   UNK N   1      30.111  26.216  -5.368  0.00  0.00     0.043 A 
HETATM   18  F   UNK N   1      29.263  27.436  -3.497  0.00  0.00    -0.206 F 
HETATM   19  C   UNK N   1      30.187  25.021  -6.097  0.00  0.00     0.011 A 
ENDBRANCH   6  13
ENDBRANCH   5   6
ENDBRANCH   3   5
BRANCH   1  20
HETATM   20  C   UNK N   1      25.826  25.261  -7.725  0.00  0.00     0.116 C 
HETATM   21  C   UNK N   1      25.638  25.161  -9.243  0.00  0.00     0.037 C 
BRANCH  20  22
HETATM   22  C   UNK N   1      26.749  26.488  -7.496  0.00  0.00    -0.023 A 
HETATM   23  C   UNK N   1      27.712  26.895  -8.439  0.00  0.00     0.034 A 
HETATM   24  C   UNK N   1      28.476  28.049  -8.265  0.00  0.00     0.035 A 
HETATM   25  C   UNK N   1      28.286  28.847  -7.142  0.00  0.00     0.036 A 
HETATM   26 Cl   UNK N   1      29.649  28.514  -9.478  0.00  0.00    -0.084 Cl
HETATM   27  C   UNK N   1      27.347  28.482  -6.179  0.00  0.00    -0.024 A 
HETATM   28  C   UNK N   1      26.582  27.297  -6.337  0.00  0.00    -0.018 A 
HETATM   29  C   UNK N   1      27.148  29.305  -5.068  0.00  0.00     0.012 A 
HETATM   30  C   UNK N   1      25.642  26.967  -5.346  0.00  0.00     0.013 A 
HETATM   31  C   UNK N   1      25.452  27.794  -4.237  0.00  0.00     0.001 A 
HETATM   32  C   UNK N   1      26.199  28.964  -4.102  0.00  0.00     0.001 A 
ENDBRANCH  20  22
ENDBRANCH   1  20
TORSDOF 5
ENDMDL
MODEL 4
REMARK VINA RESULT:      -7.5     12.687     15.447
REMARK  5 active torsions:
REMARK  status: ('A' for Active; 'I' for Inactive)
REMARK    1  A    between atoms: C_2  and  C_3 
REMARK    2  A    between atoms: C_2  and  N_14 
REMARK       I    between atoms: N_14  and  C_16 
REMARK    3  A    between atoms: C_16  and  C_18 
REMARK    4  A    between atoms: C_18  and  C_19 
REMARK    5  A    between atoms: C_19  and  C_26 
ROOT
HETATM    1  N   UNK N   1      26.124  15.952   4.521  0.00  0.00    -0.348 N 
HETATM    2  C   UNK N   1      26.793  16.155   3.265  0.00  0.00     0.153 C 
HETATM    3  C   UNK N   1      26.870  15.966   5.677  0.00  0.00     0.221 C 
HETATM    4  O   UNK N   1      26.307  15.882   6.764  0.00  0.00    -0.273 OA
ENDROOT
BRANCH   3   5
HETATM    5  C   UNK N   1      28.384  15.814   5.661  0.00  0.00     0.117 C 
BRANCH   5   6
HETATM    6  C   UNK N   1      29.346  17.005   5.883  0.00  0.00    -0.002 C 
HETATM    7  C   UNK N   1      30.262  17.090   4.650  0.00  0.00     0.045 C 
HETATM    8  C   UNK N   1      31.250  15.915   4.527  0.00  0.00     0.273 C 
HETATM    9  N   UNK N   1      31.154  14.992   5.658  0.00  0.00     0.084 N 
HETATM   10  C   UNK N   1      31.339  15.729   6.909  0.00  0.00     0.273 C 
HETATM   11  C   UNK N   1      32.240  14.036   5.535  0.00  0.00     0.309 C 
HETATM   12  C   UNK N   1      30.229  16.782   7.128  0.00  0.00     0.045 C 
BRANCH   6  13
HETATM   13  C   UNK N   1      28.583  18.323   5.947  0.00  0.00    -0.049 A 
HETATM   14  C   UNK N   1      28.312  19.057   4.780  0.00  0.00     0.011 A 
HETATM   15  C   UNK N   1      27.628  20.268   4.825  0.00  0.00     0.043 A 
HETATM   16  C   UNK N   1      27.220  20.784   6.050  0.00  0.00     0.116 A 
HETATM   17  C   UNK N   1      27.513  20.094   7.230  0.00  0.00     0.043 A 
HETATM   18  F   UNK N   1      26.545  21.958   6.090  0.00  0.00    -0.206 F 
HETATM   19  C   UNK N   1      28.197  18.871   7.182  0.00  0.00     0.011 A 
ENDBRANCH   6  13
ENDBRANCH   5   6
ENDBRANCH   3   5
BRANCH   1  20
HETATM   20  C   UNK N   1      24.699  15.568   4.572  0.00  0.00     0.116 C 
HETATM   21  C   UNK N   1      24.365  14.958   3.206  0.00  0.00     0.037 C 
BRANCH  20  22
HETATM   22  C   UNK N   1      23.621  16.657   4.820  0.00  0.00    -0.023 A 
HETATM   23  C   UNK N   1      23.478  17.782   3.986  0.00  0.00     0.034 A 
HETATM   24  C   UNK N   1      22.452  18.709   4.165  0.00  0.00     0.035 A 
HETATM   25  C   UNK N   1      21.519  18.529   5.180  0.00  0.00     0.036 A 
HETATM   26 Cl   UNK N   1      22.314  20.083   3.087  0.00  0.00    -0.084 Cl
HETATM   27  C   UNK N   1      21.622  17.433   6.034  0.00  0.00    -0.024 A 
HETATM   28  C   UNK N   1      22.677  16.497   5.874  0.00  0.00    -0.018 A 
HETATM   29  C   UNK N   1      20.665  17.250   7.034  0.00  0.00     0.012 A 
HETATM   30  C   UNK N   1      22.743  15.402   6.753  0.00  0.00     0.013 A 
HETATM   31  C   UNK N   1      21.784  15.228   7.751  0.00  0.00     0.001 A 
HETATM   32  C   UNK N   1      20.743  16.147   7.888  0.00  0.00     0.001 A 
ENDBRANCH  20  22
ENDBRANCH   1  20
TORSDOF 5
ENDMDL
MODEL 5
REMARK VINA RESULT:      -7.4     19.913     23.400
REMARK  5 active torsions:
REMARK  status: ('A' for Active; 'I' for Inactive)
REMARK    1  A    between atoms: C_2  and  C_3 
REMARK    2  A    between atoms: C_2  and  N_14 
REMARK       I    between atoms: N_14  and  C_16 
REMARK    3  A    between atoms: C_16  and  C_18 
REMARK    4  A    between atoms: C_18  and  C_19 
REMARK    5  A    between atoms: C_19  and  C_26 
ROOT
HETATM    1  N   UNK N   1      36.070  12.115  12.609  0.00  0.00    -0.348 N 
HETATM    2  C   UNK N   1      36.033  10.815  11.998  0.00  0.00     0.153 C 
HETATM    3  C   UNK N   1      35.445  13.163  11.971  0.00  0.00     0.221 C 
HETATM    4  O   UNK N   1      35.391  14.260  12.518  0.00  0.00    -0.273 OA
ENDROOT
BRANCH   3   5
HETATM    5  C   UNK N   1      35.051  13.093  10.503  0.00  0.00     0.117 C 
BRANCH   5   6
HETATM    6  C   UNK N   1      35.533  14.126   9.458  0.00  0.00    -0.002 C 
HETATM    7  C   UNK N   1      35.750  13.372   8.135  0.00  0.00     0.045 C 
HETATM    8  C   UNK N   1      36.935  12.390   8.166  0.00  0.00     0.273 C 
HETATM    9  N   UNK N   1      37.655  12.433   9.439  0.00  0.00     0.084 N 
HETATM   10  C   UNK N   1      38.079  13.807   9.716  0.00  0.00     0.273 C 
HETATM   11  C   UNK N   1      38.846  11.616   9.295  0.00  0.00     0.309 C 
HETATM   12  C   UNK N   1      36.874  14.761   9.880  0.00  0.00     0.045 C 
BRANCH   6  13
HETATM   13  C   UNK N   1      34.460  15.175   9.187  0.00  0.00    -0.049 A 
HETATM   14  C   UNK N   1      33.103  14.818   9.119  0.00  0.00     0.011 A 
HETATM   15  C   UNK N   1      32.115  15.763   8.859  0.00  0.00     0.043 A 
HETATM   16  C   UNK N   1      32.470  17.089   8.637  0.00  0.00     0.116 A 
HETATM   17  C   UNK N   1      33.817  17.464   8.660  0.00  0.00     0.043 A 
HETATM   18  F   UNK N   1      31.505  18.008   8.395  0.00  0.00    -0.206 F 
HETATM   19  C   UNK N   1      34.810  16.511   8.927  0.00  0.00     0.011 A 
ENDBRANCH   6  13
ENDBRANCH   5   6
ENDBRANCH   3   5
BRANCH   1  20
HETATM   20  C   UNK N   1      36.897  12.372  13.805  0.00  0.00     0.116 C 
HETATM   21  C   UNK N   1      37.937  11.247  13.862  0.00  0.00     0.037 C 
BRANCH  20  22
HETATM   22  C   UNK N   1      36.229  12.398  15.206  0.00  0.00    -0.023 A 
HETATM   23  C   UNK N   1      35.589  11.273  15.759  0.00  0.00     0.034 A 
HETATM   24  C   UNK N   1      35.069  11.279  17.052  0.00  0.00     0.035 A 
HETATM   25  C   UNK N   1      35.190  12.413  17.846  0.00  0.00     0.036 A 
HETATM   26 Cl   UNK N   1      34.295   9.844  17.693  0.00  0.00    -0.084 Cl
HETATM   27  C   UNK N   1      35.812  13.553  17.341  0.00  0.00    -0.024 A 
HETATM   28  C   UNK N   1      36.323  13.563  16.017  0.00  0.00    -0.018 A 
HETATM   29  C   UNK N   1      35.949  14.679  18.157  0.00  0.00     0.012 A 
HETATM   30  C   UNK N   1      36.948  14.732  15.547  0.00  0.00     0.013 A 
HETATM   31  C   UNK N   1      37.078  15.852  16.369  0.00  0.00     0.001 A 
HETATM   32  C   UNK N   1      36.585  15.824  17.673  0.00  0.00     0.001 A 
ENDBRANCH  20  22
ENDBRANCH   1  20
TORSDOF 5
ENDMDL
MODEL 6
REMARK VINA RESULT:      -7.4     14.198     16.669
REMARK  5 active torsions:
REMARK  status: ('A' for Active; 'I' for Inactive)
REMARK    1  A    between atoms: C_2  and  C_3 
REMARK    2  A    between atoms: C_2  and  N_14 
REMARK       I    between atoms: N_14  and  C_16 
REMARK    3  A    between atoms: C_16  and  C_18 
REMARK    4  A    between atoms: C_18  and  C_19 
REMARK    5  A    between atoms: C_19  and  C_26 
ROOT
HETATM    1  N   UNK N   1      25.853  14.548   6.047  0.00  0.00    -0.348 N 
HETATM    2  C   UNK N   1      25.786  14.367   4.623  0.00  0.00     0.153 C 
HETATM    3  C   UNK N   1      26.681  15.526   6.551  0.00  0.00     0.221 C 
HETATM    4  O   UNK N   1      26.688  15.754   7.756  0.00  0.00    -0.273 OA
ENDROOT
BRANCH   3   5
HETATM    5  C   UNK N   1      27.784  16.157   5.714  0.00  0.00     0.117 C 
BRANCH   5   6
HETATM    6  C   UNK N   1      28.160  17.653   5.819  0.00  0.00    -0.002 C 
HETATM    7  C   UNK N   1      29.459  17.856   5.020  0.00  0.00     0.045 C 
HETATM    8  C   UNK N   1      30.691  17.184   5.653  0.00  0.00     0.273 C 
HETATM    9  N   UNK N   1      30.375  16.546   6.932  0.00  0.00     0.084 N 
HETATM   10  C   UNK N   1      29.767  17.527   7.832  0.00  0.00     0.273 C 
HETATM   11  C   UNK N   1      31.628  16.110   7.522  0.00  0.00     0.309 C 
HETATM   12  C   UNK N   1      28.424  18.060   7.284  0.00  0.00     0.045 C 
BRANCH   6  13
HETATM   13  C   UNK N   1      27.104  18.533   5.159  0.00  0.00    -0.049 A 
HETATM   14  C   UNK N   1      26.364  18.070   4.058  0.00  0.00     0.011 A 
HETATM   15  C   UNK N   1      25.407  18.867   3.438  0.00  0.00     0.043 A 
HETATM   16  C   UNK N   1      25.186  20.161   3.896  0.00  0.00     0.116 A 
HETATM   17  C   UNK N   1      25.937  20.662   4.964  0.00  0.00     0.043 A 
HETATM   18  F   UNK N   1      24.246  20.931   3.297  0.00  0.00    -0.206 F 
HETATM   19  C   UNK N   1      26.897  19.855   5.591  0.00  0.00     0.011 A 
ENDBRANCH   6  13
ENDBRANCH   5   6
ENDBRANCH   3   5
BRANCH   1  20
HETATM   20  C   UNK N   1      25.188  13.604   6.968  0.00  0.00     0.116 C 
HETATM   21  C   UNK N   1      24.928  12.325   6.163  0.00  0.00     0.037 C 
BRANCH  20  22
HETATM   22  C   UNK N   1      23.824  13.986   7.601  0.00  0.00    -0.023 A 
HETATM   23  C   UNK N   1      22.902  14.833   6.958  0.00  0.00     0.034 A 
HETATM   24  C   UNK N   1      21.644  15.101   7.494  0.00  0.00     0.035 A 
HETATM   25  C   UNK N   1      21.257  14.510   8.692  0.00  0.00     0.036 A 
HETATM   26 Cl   UNK N   1      20.532  16.151   6.641  0.00  0.00    -0.084 Cl
HETATM   27  C   UNK N   1      22.137  13.669   9.369  0.00  0.00    -0.024 A 
HETATM   28  C   UNK N   1      23.430  13.410   8.842  0.00  0.00    -0.018 A 
HETATM   29  C   UNK N   1      21.729  13.063  10.559  0.00  0.00     0.012 A 
HETATM   30  C   UNK N   1      24.285  12.550   9.552  0.00  0.00     0.013 A 
HETATM   31  C   UNK N   1      23.870  11.951  10.742  0.00  0.00     0.001 A 
HETATM   32  C   UNK N   1      22.592  12.202  11.242  0.00  0.00     0.001 A 
ENDBRANCH  20  22
ENDBRANCH   1  20
TORSDOF 5
ENDMDL
MODEL 7
REMARK VINA RESULT:      -7.3     14.119     16.588
REMARK  5 active torsions:
REMARK  status: ('A' for Active; 'I' for Inactive)
REMARK    1  A    between atoms: C_2  and  C_3 
REMARK    2  A    between atoms: C_2  and  N_14 
REMARK       I    between atoms: N_14  and  C_16 
REMARK    3  A    between atoms: C_16  and  C_18 
REMARK    4  A    between atoms: C_18  and  C_19 
REMARK    5  A    between atoms: C_19  and  C_26 
ROOT
HETATM    1  N   UNK N   1      24.460  15.946   5.319  0.00  0.00    -0.348 N 
HETATM    2  C   UNK N   1      23.749  16.663   4.296  0.00  0.00     0.153 C 
HETATM    3  C   UNK N   1      25.737  16.348   5.641  0.00  0.00     0.221 C 
HETATM    4  O   UNK N   1      26.327  15.805   6.570  0.00  0.00    -0.273 OA
ENDROOT
BRANCH   3   5
HETATM    5  C   UNK N   1      26.552  17.252   4.728  0.00  0.00     0.117 C 
BRANCH   5   6
HETATM    6  C   UNK N   1      27.308  18.498   5.245  0.00  0.00    -0.002 C 
HETATM    7  C   UNK N   1      26.298  19.355   6.028  0.00  0.00     0.045 C 
HETATM    8  C   UNK N   1      25.212  19.998   5.145  0.00  0.00     0.273 C 
HETATM    9  N   UNK N   1      25.414  19.711   3.725  0.00  0.00     0.084 N 
HETATM   10  C   UNK N   1      26.759  20.131   3.326  0.00  0.00     0.273 C 
HETATM   11  C   UNK N   1      24.456  20.506   2.978  0.00  0.00     0.309 C 
HETATM   12  C   UNK N   1      27.856  19.342   4.076  0.00  0.00     0.045 C 
BRANCH   6  13
HETATM   13  C   UNK N   1      28.400  18.107   6.235  0.00  0.00    -0.049 A 
HETATM   14  C   UNK N   1      28.379  18.578   7.557  0.00  0.00     0.011 A 
HETATM   15  C   UNK N   1      29.376  18.239   8.467  0.00  0.00     0.043 A 
HETATM   16  C   UNK N   1      30.435  17.435   8.060  0.00  0.00     0.116 A 
HETATM   17  C   UNK N   1      30.502  16.985   6.738  0.00  0.00     0.043 A 
HETATM   18  F   UNK N   1      31.399  17.098   8.950  0.00  0.00    -0.206 F 
HETATM   19  C   UNK N   1      29.493  17.323   5.825  0.00  0.00     0.011 A 
ENDBRANCH   6  13
ENDBRANCH   5   6
ENDBRANCH   3   5
BRANCH   1  20
HETATM   20  C   UNK N   1      23.913  14.704   5.900  0.00  0.00     0.116 C 
HETATM   21  C   UNK N   1      23.139  14.005   4.776  0.00  0.00     0.037 C 
BRANCH  20  22
HETATM   22  C   UNK N   1      22.930  14.787   7.098  0.00  0.00    -0.023 A 
HETATM   23  C   UNK N   1      21.861  15.701   7.136  0.00  0.00     0.034 A 
HETATM   24  C   UNK N   1      20.931  15.710   8.175  0.00  0.00     0.035 A 
HETATM   25  C   UNK N   1      21.033  14.784   9.208  0.00  0.00     0.036 A 
HETATM   26 Cl   UNK N   1      19.613  16.862   8.162  0.00  0.00    -0.084 Cl
HETATM   27  C   UNK N   1      22.077  13.862   9.216  0.00  0.00    -0.024 A 
HETATM   28  C   UNK N   1      23.041  13.862   8.174  0.00  0.00    -0.018 A 
HETATM   29  C   UNK N   1      22.154  12.922  10.246  0.00  0.00     0.012 A 
HETATM   30  C   UNK N   1      24.076  12.912   8.217  0.00  0.00     0.013 A 
HETATM   31  C   UNK N   1      24.147  11.978   9.251  0.00  0.00     0.001 A 
HETATM   32  C   UNK N   1      23.184  11.978  10.261  0.00  0.00     0.001 A 
ENDBRANCH  20  22
ENDBRANCH   1  20
TORSDOF 5
ENDMDL
MODEL 8
REMARK VINA RESULT:      -7.2     20.434     23.766
REMARK  5 active torsions:
REMARK  status: ('A' for Active; 'I' for Inactive)
REMARK    1  A    between atoms: C_2  and  C_3 
REMARK    2  A    between atoms: C_2  and  N_14 
REMARK       I    between atoms: N_14  and  C_16 
REMARK    3  A    between atoms: C_16  and  C_18 
REMARK    4  A    between atoms: C_18  and  C_19 
REMARK    5  A    between atoms: C_19  and  C_26 
ROOT
HETATM    1  N   UNK N   1      35.206  12.172  12.365  0.00  0.00    -0.348 N 
HETATM    2  C   UNK N   1      34.692  11.033  11.653  0.00  0.00     0.153 C 
HETATM    3  C   UNK N   1      34.863  13.432  11.932  0.00  0.00     0.221 C 
HETATM    4  O   UNK N   1      35.219  14.413  12.576  0.00  0.00    -0.273 OA
ENDROOT
BRANCH   3   5
HETATM    5  C   UNK N   1      34.286  13.679  10.545  0.00  0.00     0.117 C 
BRANCH   5   6
HETATM    6  C   UNK N   1      35.154  14.125   9.347  0.00  0.00    -0.002 C 
HETATM    7  C   UNK N   1      35.421  15.632   9.511  0.00  0.00     0.045 C 
HETATM    8  C   UNK N   1      34.169  16.509   9.328  0.00  0.00     0.273 C 
HETATM    9  N   UNK N   1      32.991  15.721   8.965  0.00  0.00     0.084 N 
HETATM   10  C   UNK N   1      33.281  14.929   7.767  0.00  0.00     0.273 C 
HETATM   11  C   UNK N   1      31.926  16.652   8.640  0.00  0.00     0.309 C 
HETATM   12  C   UNK N   1      34.414  13.907   8.011  0.00  0.00     0.045 C 
BRANCH   6  13
HETATM   13  C   UNK N   1      36.516  13.440   9.369  0.00  0.00    -0.049 A 
HETATM   14  C   UNK N   1      36.675  12.135   8.875  0.00  0.00     0.011 A 
HETATM   15  C   UNK N   1      37.910  11.493   8.901  0.00  0.00     0.043 A 
HETATM   16  C   UNK N   1      39.012  12.141   9.448  0.00  0.00     0.116 A 
HETATM   17  C   UNK N   1      38.873  13.425   9.983  0.00  0.00     0.043 A 
HETATM   18  F   UNK N   1      40.215  11.518   9.462  0.00  0.00    -0.206 F 
HETATM   19  C   UNK N   1      37.629  14.072   9.950  0.00  0.00     0.011 A 
ENDBRANCH   6  13
ENDBRANCH   5   6
ENDBRANCH   3   5
BRANCH   1  20
HETATM   20  C   UNK N   1      36.215  12.012  13.432  0.00  0.00     0.116 C 
HETATM   21  C   UNK N   1      37.438  11.358  12.777  0.00  0.00     0.037 C 
BRANCH  20  22
HETATM   22  C   UNK N   1      35.886  11.138  14.671  0.00  0.00    -0.023 A 
HETATM   23  C   UNK N   1      35.912   9.731  14.633  0.00  0.00     0.034 A 
HETATM   24  C   UNK N   1      35.701   8.956  15.772  0.00  0.00     0.035 A 
HETATM   25  C   UNK N   1      35.473   9.569  16.999  0.00  0.00     0.036 A 
HETATM   26 Cl   UNK N   1      35.760   7.209  15.667  0.00  0.00    -0.084 Cl
HETATM   27  C   UNK N   1      35.433  10.959  17.086  0.00  0.00    -0.024 A 
HETATM   28  C   UNK N   1      35.623  11.755  15.927  0.00  0.00    -0.018 A 
HETATM   29  C   UNK N   1      35.227  11.563  18.329  0.00  0.00     0.012 A 
HETATM   30  C   UNK N   1      35.581  13.154  16.058  0.00  0.00     0.013 A 
HETATM   31  C   UNK N   1      35.372  13.749  17.303  0.00  0.00     0.001 A 
HETATM   32  C   UNK N   1      35.202  12.955  18.438  0.00  0.00     0.001 A 
ENDBRANCH  20  22
ENDBRANCH   1  20
TORSDOF 5
ENDMDL
MODEL 9
REMARK VINA RESULT:      -7.2     15.043     17.787
REMARK  5 active torsions:
REMARK  status: ('A' for Active; 'I' for Inactive)
REMARK    1  A    between atoms: C_2  and  C_3 
REMARK    2  A    between atoms: C_2  and  N_14 
REMARK       I    between atoms: N_14  and  C_16 
REMARK    3  A    between atoms: C_16  and  C_18 
REMARK    4  A    between atoms: C_18  and  C_19 
REMARK    5  A    between atoms: C_19  and  C_26 
ROOT
HETATM    1  N   UNK N   1      23.939  15.411   5.917  0.00  0.00    -0.348 N 
HETATM    2  C   UNK N   1      23.428  16.221   4.845  0.00  0.00     0.153 C 
HETATM    3  C   UNK N   1      25.207  15.663   6.388  0.00  0.00     0.221 C 
HETATM    4  O   UNK N   1      25.628  15.042   7.359  0.00  0.00    -0.273 OA
ENDROOT
BRANCH   3   5
HETATM    5  C   UNK N   1      26.212  16.488   5.598  0.00  0.00     0.117 C 
BRANCH   5   6
HETATM    6  C   UNK N   1      27.646  15.994   5.296  0.00  0.00    -0.002 C 
HETATM    7  C   UNK N   1      28.034  16.536   3.909  0.00  0.00     0.045 C 
HETATM    8  C   UNK N   1      27.241  15.906   2.750  0.00  0.00     0.273 C 
HETATM    9  N   UNK N   1      26.324  14.863   3.211  0.00  0.00     0.084 N 
HETATM   10  C   UNK N   1      27.068  13.858   3.972  0.00  0.00     0.273 C 
HETATM   11  C   UNK N   1      25.770  14.217   2.035  0.00  0.00     0.309 C 
HETATM   12  C   UNK N   1      27.706  14.453   5.247  0.00  0.00     0.045 C 
BRANCH   6  13
HETATM   13  C   UNK N   1      28.648  16.579   6.285  0.00  0.00    -0.049 A 
HETATM   14  C   UNK N   1      28.275  17.603   7.170  0.00  0.00     0.011 A 
HETATM   15  C   UNK N   1      29.183  18.155   8.069  0.00  0.00     0.043 A 
HETATM   16  C   UNK N   1      30.499  17.705   8.083  0.00  0.00     0.116 A 
HETATM   17  C   UNK N   1      30.907  16.714   7.185  0.00  0.00     0.043 A 
HETATM   18  F   UNK N   1      31.378  18.236   8.966  0.00  0.00    -0.206 F 
HETATM   19  C   UNK N   1      29.989  16.156   6.284  0.00  0.00     0.011 A 
ENDBRANCH   6  13
ENDBRANCH   5   6
ENDBRANCH   3   5
BRANCH   1  20
HETATM   20  C   UNK N   1      23.199  14.227   6.397  0.00  0.00     0.116 C 
HETATM   21  C   UNK N   1      22.359  13.732   5.214  0.00  0.00     0.037 C 
BRANCH  20  22
HETATM   22  C   UNK N   1      22.209  14.372   7.583  0.00  0.00    -0.023 A 
HETATM   23  C   UNK N   1      21.159  15.310   7.581  0.00  0.00     0.034 A 
HETATM   24  C   UNK N   1      20.222  15.374   8.612  0.00  0.00     0.035 A 
HETATM   25  C   UNK N   1      20.295  14.482   9.676  0.00  0.00     0.036 A 
HETATM   26 Cl   UNK N   1      18.928  16.552   8.548  0.00  0.00    -0.084 Cl
HETATM   27  C   UNK N   1      21.320  13.539   9.725  0.00  0.00    -0.024 A 
HETATM   28  C   UNK N   1      22.291  13.482   8.692  0.00  0.00    -0.018 A 
HETATM   29  C   UNK N   1      21.369  12.633  10.786  0.00  0.00     0.012 A 
HETATM   30  C   UNK N   1      23.305  12.513   8.775  0.00  0.00     0.013 A 
HETATM   31  C   UNK N   1      23.348  11.613   9.841  0.00  0.00     0.001 A 
HETATM   32  C   UNK N   1      22.378  11.669  10.842  0.00  0.00     0.001 A 
ENDBRANCH  20  22
ENDBRANCH   1  20
TORSDOF 5
ENDMDL
