REMARK  5 active torsions:
REMARK  status: ('A' for Active; 'I' for Inactive)
REMARK    1  A    between atoms: C_5  and  C_2 
REMARK    2  A    between atoms: O_19  and  C_2 
REMARK    3  A    between atoms: C_6  and  O_20 
REMARK    4  A    between atoms: N_11  and  C_8 
REMARK    5  A    between atoms: C_10  and  N_18 
ROOT
HETATM    1  C   UNK N   1       4.516   1.298   0.196  0.00  0.00     0.183 A 
HETATM    2  C   UNK N   1       0.197   2.201  -0.149  0.00  0.00     0.188 A 
HETATM    3  C   UNK N   1       2.259   2.777  -0.179  0.00  0.00     0.122 A 
HETATM    4  C   UNK N   1       3.492   3.407  -0.245  0.00  0.00     0.131 A 
HETATM    5  C   UNK N   1       2.192   1.458   0.075  0.00  0.00     0.142 A 
HETATM    6  N   UNK N   1       4.612   2.646  -0.056  0.00  0.00    -0.337 N 
ATOM      7  HN  UNK N   1       5.531   3.084  -0.101  1.00  0.00     0.168 HD
HETATM    8  N   UNK N   1       3.292   0.692   0.267  0.00  0.00    -0.336 N 
ATOM      9  HN  UNK N   1       3.210  -0.307   0.459  1.00  0.00     0.168 HD
HETATM   10  N   UNK N   1       1.017   3.278  -0.326  0.00  0.00    -0.346 N 
ATOM     11  HN  UNK N   1       0.751   4.242  -0.525  1.00  0.00     0.167 HD
HETATM   12  N   UNK N   1       0.912   1.072   0.101  0.00  0.00    -0.297 N 
ENDROOT
BRANCH  12  13
HETATM   13  C   UNK N   1       0.443  -0.286   0.383  0.00  0.00     0.259 C 
HETATM   14  C   UNK N   1      -1.056  -0.486   0.276  0.00  0.00     0.169 C 
HETATM   15  C   UNK N   1      -1.100  -1.988   0.311  0.00  0.00     0.070 C 
HETATM   16  C   UNK N   1       0.221  -2.375  -0.358  0.00  0.00     0.150 C 
HETATM   17  O   UNK N   1       1.003  -1.207  -0.514  0.00  0.00    -0.356 OA
BRANCH  14  18
HETATM   18  O   UNK N   1      -1.530  -0.051  -0.965  0.00  0.00    -0.391 OA
HETATM   19  H   UNK N   1      -1.432   0.385  -1.826  0.00  0.00     0.210 HD
ENDBRANCH  14  18
BRANCH  16  20
HETATM   20  C   UNK N   1       0.962  -3.371   0.526  0.00  0.00     0.196 C 
BRANCH  20  21
HETATM   21  O   UNK N   1       2.229  -3.634   0.002  0.00  0.00    -0.398 OA
HETATM   22  H   UNK N   1       2.511  -4.487  -0.361  0.00  0.00     0.209 HD
ENDBRANCH  20  21
ENDBRANCH  16  20
ENDBRANCH  12  13
BRANCH   4  23
HETATM   23  N   UNK N   1       3.598   4.790  -0.495  0.00  0.00    -0.383 N 
HETATM   24  H   UNK N   1       4.471   5.209  -0.669  0.00  0.00     0.157 HD
HETATM   25  H   UNK N   1       2.785   5.345  -0.495  0.00  0.00     0.157 HD
ENDBRANCH   4  23
TORSDOF 5
