MODEL 1
REMARK VINA RESULT:      -4.9      0.000      0.000
REMARK  4 active torsions:
REMARK  status: ('A' for Active; 'I' for Inactive)
REMARK    1  A    between atoms: C_6  and  C_5 
REMARK    2  A    between atoms: O_9  and  C_5 
REMARK    3  A    between atoms: O_10  and  C_7 
REMARK    4  A    between atoms: O_11  and  C_8 
ROOT
HETATM    1  C   UNK N   1      23.643  11.980  11.416  0.00  0.00     0.012 A 
HETATM    2  C   UNK N   1      22.409  11.636  11.973  0.00  0.00     0.040 A 
HETATM    3  C   UNK N   1      22.517  13.359   9.783  0.00  0.00     0.049 A 
HETATM    4  C   UNK N   1      23.699  12.846  10.315  0.00  0.00    -0.032 A 
HETATM    5  C   UNK N   1      21.223  12.149  11.440  0.00  0.00     0.099 A 
HETATM    6  C   UNK N   1      21.273  13.027  10.325  0.00  0.00     0.101 A 
ENDROOT
BRANCH   4   7
HETATM    7  C   UNK N   1      24.996  13.246   9.682  0.00  0.00     0.203 C 
BRANCH   7   8
HETATM    8  O   UNK N   1      25.908  13.736  10.618  0.00  0.00    -0.396 OA
HETATM    9  H   UNK N   1      26.713  13.233  10.820  0.00  0.00     0.209 HD
ENDBRANCH   7   8
ENDBRANCH   4   7
BRANCH   6  10
HETATM   10  O   UNK N   1      20.175  13.573   9.742  0.00  0.00    -0.353 OA
HETATM   11  C   UNK N   1      20.107  14.825   9.177  0.00  0.00     0.210 C 
ENDBRANCH   6  10
BRANCH   5  12
HETATM   12  O   UNK N   1      20.053  11.796  12.002  0.00  0.00    -0.358 OA
HETATM   13  H   UNK N   1      19.697  10.943  11.846  0.00  0.00     0.217 HD
ENDBRANCH   5  12
TORSDOF 4
ENDMDL
MODEL 2
REMARK VINA RESULT:      -4.8      1.386      1.915
REMARK  4 active torsions:
REMARK  status: ('A' for Active; 'I' for Inactive)
REMARK    1  A    between atoms: C_6  and  C_5 
REMARK    2  A    between atoms: O_9  and  C_5 
REMARK    3  A    between atoms: O_10  and  C_7 
REMARK    4  A    between atoms: O_11  and  C_8 
ROOT
HETATM    1  C   UNK N   1      22.188  12.018  11.360  0.00  0.00     0.012 A 
HETATM    2  C   UNK N   1      20.897  12.491  11.108  0.00  0.00     0.040 A 
HETATM    3  C   UNK N   1      23.047  13.441   9.607  0.00  0.00     0.049 A 
HETATM    4  C   UNK N   1      23.269  12.494  10.607  0.00  0.00    -0.032 A 
HETATM    5  C   UNK N   1      20.673  13.440  10.106  0.00  0.00     0.099 A 
HETATM    6  C   UNK N   1      21.765  13.927   9.339  0.00  0.00     0.101 A 
ENDROOT
BRANCH   4   7
HETATM    7  C   UNK N   1      24.670  12.019  10.837  0.00  0.00     0.203 C 
BRANCH   7   8
HETATM    8  O   UNK N   1      25.517  13.056  11.235  0.00  0.00    -0.396 OA
HETATM    9  H   UNK N   1      25.165  13.799  11.750  0.00  0.00     0.209 HD
ENDBRANCH   7   8
ENDBRANCH   4   7
BRANCH   6  10
HETATM   10  O   UNK N   1      21.643  14.846   8.348  0.00  0.00    -0.353 OA
HETATM   11  C   UNK N   1      22.376  14.872   7.184  0.00  0.00     0.210 C 
ENDBRANCH   6  10
BRANCH   5  12
HETATM   12  O   UNK N   1      19.418  13.873   9.891  0.00  0.00    -0.358 OA
HETATM   13  H   UNK N   1      18.774  13.796  10.568  0.00  0.00     0.217 HD
ENDBRANCH   5  12
TORSDOF 4
ENDMDL
MODEL 3
REMARK VINA RESULT:      -4.8     10.597     13.105
REMARK  4 active torsions:
REMARK  status: ('A' for Active; 'I' for Inactive)
REMARK    1  A    between atoms: C_6  and  C_5 
REMARK    2  A    between atoms: O_9  and  C_5 
REMARK    3  A    between atoms: O_10  and  C_7 
REMARK    4  A    between atoms: O_11  and  C_8 
ROOT
HETATM    1  C   UNK N   1      32.984  16.806   7.125  0.00  0.00     0.012 A 
HETATM    2  C   UNK N   1      33.722  17.982   7.282  0.00  0.00     0.040 A 
HETATM    3  C   UNK N   1      33.976  15.917   9.140  0.00  0.00     0.049 A 
HETATM    4  C   UNK N   1      33.111  15.767   8.057  0.00  0.00    -0.032 A 
HETATM    5  C   UNK N   1      34.590  18.134   8.369  0.00  0.00     0.099 A 
HETATM    6  C   UNK N   1      34.722  17.085   9.317  0.00  0.00     0.101 A 
ENDROOT
BRANCH   4   7
HETATM    7  C   UNK N   1      32.343  14.488   7.932  0.00  0.00     0.203 C 
BRANCH   7   8
HETATM    8  O   UNK N   1      32.289  13.788   9.140  0.00  0.00    -0.396 OA
HETATM    9  H   UNK N   1      33.061  13.776   9.728  0.00  0.00     0.209 HD
ENDBRANCH   7   8
ENDBRANCH   4   7
BRANCH   6  10
HETATM   10  O   UNK N   1      35.539  17.143  10.400  0.00  0.00    -0.353 OA
HETATM   11  C   UNK N   1      35.937  16.070  11.162  0.00  0.00     0.210 C 
ENDBRANCH   6  10
BRANCH   5  12
HETATM   12  O   UNK N   1      35.284  19.279   8.489  0.00  0.00    -0.358 OA
HETATM   13  H   UNK N   1      34.929  20.079   8.152  0.00  0.00     0.217 HD
ENDBRANCH   5  12
TORSDOF 4
ENDMDL
MODEL 4
REMARK VINA RESULT:      -4.7     21.873     24.509
REMARK  4 active torsions:
REMARK  status: ('A' for Active; 'I' for Inactive)
REMARK    1  A    between atoms: C_6  and  C_5 
REMARK    2  A    between atoms: O_9  and  C_5 
REMARK    3  A    between atoms: O_10  and  C_7 
REMARK    4  A    between atoms: O_11  and  C_8 
ROOT
HETATM    1  C   UNK N   1      42.622  20.775   3.166  0.00  0.00     0.012 A 
HETATM    2  C   UNK N   1      43.900  20.873   3.724  0.00  0.00     0.040 A 
HETATM    3  C   UNK N   1      42.723  23.104   2.531  0.00  0.00     0.049 A 
HETATM    4  C   UNK N   1      42.029  21.895   2.567  0.00  0.00    -0.032 A 
HETATM    5  C   UNK N   1      44.596  22.086   3.688  0.00  0.00     0.099 A 
HETATM    6  C   UNK N   1      44.001  23.224   3.082  0.00  0.00     0.101 A 
ENDROOT
BRANCH   4   7
HETATM    7  C   UNK N   1      40.663  21.841   1.956  0.00  0.00     0.203 C 
BRANCH   7   8
HETATM    8  O   UNK N   1      39.727  21.258   2.813  0.00  0.00    -0.396 OA
HETATM    9  H   UNK N   1      39.800  21.389   3.771  0.00  0.00     0.209 HD
ENDBRANCH   7   8
ENDBRANCH   4   7
BRANCH   6  10
HETATM   10  O   UNK N   1      44.602  24.439   3.002  0.00  0.00    -0.353 OA
HETATM   11  C   UNK N   1      45.503  24.824   2.038  0.00  0.00     0.210 C 
ENDBRANCH   6  10
BRANCH   5  12
HETATM   12  O   UNK N   1      45.824  22.144   4.234  0.00  0.00    -0.358 OA
HETATM   13  H   UNK N   1      46.386  22.870   4.047  0.00  0.00     0.217 HD
ENDBRANCH   5  12
TORSDOF 4
ENDMDL
MODEL 5
REMARK VINA RESULT:      -4.7      1.607      2.561
REMARK  4 active torsions:
REMARK  status: ('A' for Active; 'I' for Inactive)
REMARK    1  A    between atoms: C_6  and  C_5 
REMARK    2  A    between atoms: O_9  and  C_5 
REMARK    3  A    between atoms: O_10  and  C_7 
REMARK    4  A    between atoms: O_11  and  C_8 
ROOT
HETATM    1  C   UNK N   1      23.367  11.524   9.280  0.00  0.00     0.012 A 
HETATM    2  C   UNK N   1      22.618  11.705   8.114  0.00  0.00     0.040 A 
HETATM    3  C   UNK N   1      21.818  12.929  10.489  0.00  0.00     0.049 A 
HETATM    4  C   UNK N   1      22.966  12.138  10.474  0.00  0.00    -0.032 A 
HETATM    5  C   UNK N   1      21.467  12.498   8.127  0.00  0.00     0.099 A 
HETATM    6  C   UNK N   1      21.055  13.124   9.334  0.00  0.00     0.101 A 
ENDROOT
BRANCH   4   7
HETATM    7  C   UNK N   1      23.733  11.975  11.750  0.00  0.00     0.203 C 
BRANCH   7   8
HETATM    8  O   UNK N   1      25.062  12.385  11.620  0.00  0.00    -0.396 OA
HETATM    9  H   UNK N   1      25.513  12.303  10.765  0.00  0.00     0.209 HD
ENDBRANCH   7   8
ENDBRANCH   4   7
BRANCH   6  10
HETATM   10  O   UNK N   1      19.953  13.909   9.442  0.00  0.00    -0.353 OA
HETATM   11  C   UNK N   1      19.899  15.254   9.160  0.00  0.00     0.210 C 
ENDBRANCH   6  10
BRANCH   5  12
HETATM   12  O   UNK N   1      20.771  12.651   6.987  0.00  0.00    -0.358 OA
HETATM   13  H   UNK N   1      19.834  12.681   7.010  0.00  0.00     0.217 HD
ENDBRANCH   5  12
TORSDOF 4
ENDMDL
MODEL 6
REMARK VINA RESULT:      -4.6     18.937     20.602
REMARK  4 active torsions:
REMARK  status: ('A' for Active; 'I' for Inactive)
REMARK    1  A    between atoms: C_6  and  C_5 
REMARK    2  A    between atoms: O_9  and  C_5 
REMARK    3  A    between atoms: O_10  and  C_7 
REMARK    4  A    between atoms: O_11  and  C_8 
ROOT
HETATM    1  C   UNK N   1      25.356  27.628  -5.395  0.00  0.00     0.012 A 
HETATM    2  C   UNK N   1      25.127  26.366  -5.951  0.00  0.00     0.040 A 
HETATM    3  C   UNK N   1      26.394  26.590  -3.476  0.00  0.00     0.049 A 
HETATM    4  C   UNK N   1      25.992  27.742  -4.151  0.00  0.00    -0.032 A 
HETATM    5  C   UNK N   1      25.530  25.211  -5.274  0.00  0.00     0.099 A 
HETATM    6  C   UNK N   1      26.175  25.319  -4.014  0.00  0.00     0.101 A 
ENDROOT
BRANCH   4   7
HETATM    7  C   UNK N   1      26.260  29.070  -3.513  0.00  0.00     0.203 C 
BRANCH   7   8
HETATM    8  O   UNK N   1      27.051  28.952  -2.368  0.00  0.00    -0.396 OA
HETATM    9  H   UNK N   1      27.835  29.513  -2.260  0.00  0.00     0.209 HD
ENDBRANCH   7   8
ENDBRANCH   4   7
BRANCH   6  10
HETATM   10  O   UNK N   1      26.599  24.254  -3.287  0.00  0.00    -0.353 OA
HETATM   11  C   UNK N   1      27.911  23.904  -3.072  0.00  0.00     0.210 C 
ENDBRANCH   6  10
BRANCH   5  12
HETATM   12  O   UNK N   1      25.294  24.014  -5.840  0.00  0.00    -0.358 OA
HETATM   13  H   UNK N   1      24.748  23.954  -6.600  0.00  0.00     0.217 HD
ENDBRANCH   5  12
TORSDOF 4
ENDMDL
MODEL 7
REMARK VINA RESULT:      -4.5     19.122     20.800
REMARK  4 active torsions:
REMARK  status: ('A' for Active; 'I' for Inactive)
REMARK    1  A    between atoms: C_6  and  C_5 
REMARK    2  A    between atoms: O_9  and  C_5 
REMARK    3  A    between atoms: O_10  and  C_7 
REMARK    4  A    between atoms: O_11  and  C_8 
ROOT
HETATM    1  C   UNK N   1      25.276  26.878  -6.336  0.00  0.00     0.012 A 
HETATM    2  C   UNK N   1      25.292  27.565  -5.118  0.00  0.00     0.040 A 
HETATM    3  C   UNK N   1      26.194  24.928  -5.245  0.00  0.00     0.049 A 
HETATM    4  C   UNK N   1      25.729  25.554  -6.401  0.00  0.00    -0.032 A 
HETATM    5  C   UNK N   1      25.759  26.938  -3.958  0.00  0.00     0.099 A 
HETATM    6  C   UNK N   1      26.219  25.596  -4.018  0.00  0.00     0.101 A 
ENDROOT
BRANCH   4   7
HETATM    7  C   UNK N   1      25.731  24.775  -7.680  0.00  0.00     0.203 C 
BRANCH   7   8
HETATM    8  O   UNK N   1      25.125  23.526  -7.535  0.00  0.00    -0.396 OA
HETATM    9  H   UNK N   1      24.781  23.061  -8.314  0.00  0.00     0.209 HD
ENDBRANCH   7   8
ENDBRANCH   4   7
BRANCH   6  10
HETATM   10  O   UNK N   1      26.689  24.909  -2.945  0.00  0.00    -0.353 OA
HETATM   11  C   UNK N   1      27.634  23.912  -2.984  0.00  0.00     0.210 C 
ENDBRANCH   6  10
BRANCH   5  12
HETATM   12  O   UNK N   1      25.761  27.629  -2.805  0.00  0.00    -0.358 OA
HETATM   13  H   UNK N   1      26.410  27.451  -2.152  0.00  0.00     0.217 HD
ENDBRANCH   5  12
TORSDOF 4
ENDMDL
MODEL 8
REMARK VINA RESULT:      -4.3     11.193     12.579
REMARK  4 active torsions:
REMARK  status: ('A' for Active; 'I' for Inactive)
REMARK    1  A    between atoms: C_6  and  C_5 
REMARK    2  A    between atoms: O_9  and  C_5 
REMARK    3  A    between atoms: O_10  and  C_7 
REMARK    4  A    between atoms: O_11  and  C_8 
ROOT
HETATM    1  C   UNK N   1      35.222  17.116  10.335  0.00  0.00     0.012 A 
HETATM    2  C   UNK N   1      35.146  16.024  11.204  0.00  0.00     0.040 A 
HETATM    3  C   UNK N   1      33.721  16.001   8.806  0.00  0.00     0.049 A 
HETATM    4  C   UNK N   1      34.507  17.106   9.130  0.00  0.00    -0.032 A 
HETATM    5  C   UNK N   1      34.358  14.915  10.880  0.00  0.00     0.099 A 
HETATM    6  C   UNK N   1      33.631  14.899   9.661  0.00  0.00     0.101 A 
ENDROOT
BRANCH   4   7
HETATM    7  C   UNK N   1      34.555  18.250   8.165  0.00  0.00     0.203 C 
BRANCH   7   8
HETATM    8  O   UNK N   1      35.392  19.276   8.610  0.00  0.00    -0.396 OA
HETATM    9  H   UNK N   1      36.352  19.142   8.636  0.00  0.00     0.209 HD
ENDBRANCH   7   8
ENDBRANCH   4   7
BRANCH   6  10
HETATM   10  O   UNK N   1      32.842  13.867   9.265  0.00  0.00    -0.353 OA
HETATM   11  C   UNK N   1      33.274  12.729   8.625  0.00  0.00     0.210 C 
ENDBRANCH   6  10
BRANCH   5  12
HETATM   12  O   UNK N   1      34.308  13.883  11.740  0.00  0.00    -0.358 OA
HETATM   13  H   UNK N   1      34.971  13.787  12.397  0.00  0.00     0.217 HD
ENDBRANCH   5  12
TORSDOF 4
ENDMDL
MODEL 9
REMARK VINA RESULT:      -4.3     10.616     12.384
REMARK  4 active torsions:
REMARK  status: ('A' for Active; 'I' for Inactive)
REMARK    1  A    between atoms: C_6  and  C_5 
REMARK    2  A    between atoms: O_9  and  C_5 
REMARK    3  A    between atoms: O_10  and  C_7 
REMARK    4  A    between atoms: O_11  and  C_8 
ROOT
HETATM    1  C   UNK N   1      32.122  17.471   8.042  0.00  0.00     0.012 A 
HETATM    2  C   UNK N   1      31.062  17.242   7.160  0.00  0.00     0.040 A 
HETATM    3  C   UNK N   1      33.651  17.575   6.175  0.00  0.00     0.049 A 
HETATM    4  C   UNK N   1      33.423  17.638   7.549  0.00  0.00    -0.032 A 
HETATM    5  C   UNK N   1      31.291  17.178   5.781  0.00  0.00     0.099 A 
HETATM    6  C   UNK N   1      32.607  17.347   5.275  0.00  0.00     0.101 A 
ENDROOT
BRANCH   4   7
HETATM    7  C   UNK N   1      34.591  17.886   8.453  0.00  0.00     0.203 C 
BRANCH   7   8
HETATM    8  O   UNK N   1      35.058  19.198   8.359  0.00  0.00    -0.396 OA
HETATM    9  H   UNK N   1      35.920  19.378   7.951  0.00  0.00     0.209 HD
ENDBRANCH   7   8
ENDBRANCH   4   7
BRANCH   6  10
HETATM   10  O   UNK N   1      32.921  17.301   3.956  0.00  0.00    -0.353 OA
HETATM   11  C   UNK N   1      33.223  16.164   3.244  0.00  0.00     0.210 C 
ENDBRANCH   6  10
BRANCH   5  12
HETATM   12  O   UNK N   1      30.248  16.957   4.962  0.00  0.00    -0.358 OA
HETATM   13  H   UNK N   1      30.255  17.303   4.090  0.00  0.00     0.217 HD
ENDBRANCH   5  12
TORSDOF 4
ENDMDL
