MODEL 1
REMARK VINA RESULT:      -8.1      0.000      0.000
REMARK  8 active torsions:
REMARK  status: ('A' for Active; 'I' for Inactive)
REMARK    1  A    between atoms: C_2  and  C_3 
REMARK    2  A    between atoms: C_2  and  N_35 
REMARK       I    between atoms: C_3  and  N_5 
REMARK    3  A    between atoms: C_6  and  N_5 
REMARK    4  A    between atoms: C_6  and  C_7 
REMARK    5  A    between atoms: C_6  and  C_13 
REMARK       I    between atoms: C_13  and  N_15 
REMARK    6  A    between atoms: C_19  and  C_20 
REMARK    7  A    between atoms: C_23  and  C_26 
REMARK    8  A    between atoms: C_26  and  C_28 
ROOT
HETATM    1  C   UNK N   1      21.729  13.314   7.457  0.00  0.00     0.243 C 
HETATM    2  O   UNK N   1      20.710  12.672   7.227  0.00  0.00    -0.271 OA
HETATM    3  N   UNK N   1      22.878  13.016   6.792  0.00  0.00    -0.340 N 
HETATM    4  C   UNK N   1      23.011  11.867   5.947  0.00  0.00     0.127 C 
HETATM    5  C   UNK N   1      24.492  11.831   5.583  0.00  0.00     0.022 C 
HETATM    6  C   UNK N   1      25.158  12.957   6.385  0.00  0.00     0.034 C 
HETATM    7  C   UNK N   1      24.029  13.881   6.807  0.00  0.00     0.144 C 
ENDROOT
BRANCH   1   8
HETATM    8  C   UNK N   1      21.768  14.265   8.632  0.00  0.00     0.181 C 
BRANCH   8   9
HETATM    9  N   UNK N   1      20.617  15.154   8.724  0.00  0.00    -0.346 N 
HETATM   10  C   UNK N   1      20.513  16.397   8.180  0.00  0.00     0.240 C 
HETATM   11  O   UNK N   1      21.407  16.854   7.488  0.00  0.00    -0.271 OA
HETATM   12  H   UNK N   1      19.839  14.824   9.230  0.00  0.00     0.163 HD
BRANCH  10  13
HETATM   13  C   UNK N   1      19.301  17.237   8.461  0.00  0.00     0.165 C 
HETATM   14  C   UNK N   1      19.693  18.479   9.242  0.00  0.00     0.042 C 
BRANCH  13  15
HETATM   15  N   UNK N   1      18.309  16.484   9.208  0.00  0.00    -0.414 N 
HETATM   16  C   UNK N   1      17.141  17.339   9.341  0.00  0.00     0.140 C 
HETATM   17  H   UNK N   1      18.412  15.536   9.571  0.00  0.00     0.153 HD
ENDBRANCH  13  15
ENDBRANCH  10  13
ENDBRANCH   8   9
BRANCH   8  18
HETATM   18  C   UNK N   1      22.050  13.398   9.886  0.00  0.00     0.018 C 
HETATM   19  C   UNK N   1      20.851  12.881  10.684  0.00  0.00     0.007 C 
HETATM   20  C   UNK N   1      21.283  11.856  11.756  0.00  0.00     0.000 C 
HETATM   21  C   UNK N   1      22.726  12.079  12.232  0.00  0.00     0.000 C 
HETATM   22  C   UNK N   1      23.733  11.969  11.077  0.00  0.00     0.000 C 
HETATM   23  C   UNK N   1      23.117  12.306   9.718  0.00  0.00     0.007 C 
ENDBRANCH   8  18
ENDBRANCH   1   8
BRANCH   7  24
HETATM   24  C   UNK N   1      23.744  14.837   5.688  0.00  0.00     0.074 A 
HETATM   25  N   UNK N   1      23.766  16.180   5.892  0.00  0.00    -0.349 N 
HETATM   26  C   UNK N   1      24.016  16.881   4.746  0.00  0.00     0.091 A 
ATOM     27  HN  UNK N   1      23.613  16.617   6.801  1.00  0.00     0.166 HD
HETATM   28  C   UNK N   1      24.210  16.098   3.586  0.00  0.00     0.085 A 
HETATM   29  S   UNK N   1      24.071  14.534   4.103  0.00  0.00    -0.084 SA
BRANCH  26  30
HETATM   30  C   UNK N   1      24.156  18.349   4.746  0.00  0.00     0.209 C 
HETATM   31  O   UNK N   1      25.152  18.893   5.200  0.00  0.00    -0.285 OA
BRANCH  30  32
HETATM   32  C   UNK N   1      23.056  19.128   4.192  0.00  0.00     0.017 A 
HETATM   33  C   UNK N   1      21.745  18.692   4.391  0.00  0.00     0.018 A 
HETATM   34  C   UNK N   1      20.717  19.210   3.600  0.00  0.00     0.043 A 
HETATM   35  C   UNK N   1      21.004  20.154   2.607  0.00  0.00     0.116 A 
HETATM   36  C   UNK N   1      22.312  20.603   2.421  0.00  0.00     0.043 A 
HETATM   37  F   UNK N   1      20.018  20.612   1.803  0.00  0.00    -0.206 F 
HETATM   38  C   UNK N   1      23.339  20.070   3.194  0.00  0.00     0.018 A 
ENDBRANCH  30  32
ENDBRANCH  26  30
ENDBRANCH   7  24
TORSDOF 8
ENDMDL
MODEL 2
REMARK VINA RESULT:      -8.0      2.812      7.371
REMARK  8 active torsions:
REMARK  status: ('A' for Active; 'I' for Inactive)
REMARK    1  A    between atoms: C_2  and  C_3 
REMARK    2  A    between atoms: C_2  and  N_35 
REMARK       I    between atoms: C_3  and  N_5 
REMARK    3  A    between atoms: C_6  and  N_5 
REMARK    4  A    between atoms: C_6  and  C_7 
REMARK    5  A    between atoms: C_6  and  C_13 
REMARK       I    between atoms: C_13  and  N_15 
REMARK    6  A    between atoms: C_19  and  C_20 
REMARK    7  A    between atoms: C_23  and  C_26 
REMARK    8  A    between atoms: C_26  and  C_28 
ROOT
HETATM    1  C   UNK N   1      23.704  17.038   4.762  0.00  0.00     0.243 C 
HETATM    2  O   UNK N   1      24.261  18.007   5.268  0.00  0.00    -0.271 OA
HETATM    3  N   UNK N   1      24.388  16.245   3.893  0.00  0.00    -0.340 N 
HETATM    4  C   UNK N   1      25.689  16.579   3.396  0.00  0.00     0.127 C 
HETATM    5  C   UNK N   1      25.969  15.529   2.325  0.00  0.00     0.022 C 
HETATM    6  C   UNK N   1      24.687  14.695   2.198  0.00  0.00     0.034 C 
HETATM    7  C   UNK N   1      23.900  14.959   3.469  0.00  0.00     0.144 C 
ENDROOT
BRANCH   1   8
HETATM    8  C   UNK N   1      22.210  16.865   4.918  0.00  0.00     0.181 C 
BRANCH   8   9
HETATM    9  N   UNK N   1      21.725  17.039   6.281  0.00  0.00    -0.346 N 
HETATM   10  C   UNK N   1      21.266  16.059   7.105  0.00  0.00     0.240 C 
HETATM   11  O   UNK N   1      21.286  14.890   6.759  0.00  0.00    -0.271 OA
HETATM   12  H   UNK N   1      21.729  17.957   6.641  0.00  0.00     0.163 HD
BRANCH  10  13
HETATM   13  C   UNK N   1      20.692  16.416   8.445  0.00  0.00     0.165 C 
HETATM   14  C   UNK N   1      19.957  15.226   9.036  0.00  0.00     0.042 C 
BRANCH  13  15
HETATM   15  N   UNK N   1      19.785  17.546   8.338  0.00  0.00    -0.414 N 
HETATM   16  C   UNK N   1      18.545  17.155   8.987  0.00  0.00     0.140 C 
HETATM   17  H   UNK N   1      19.980  18.442   7.892  0.00  0.00     0.153 HD
ENDBRANCH  13  15
ENDBRANCH  10  13
ENDBRANCH   8   9
BRANCH   8  18
HETATM   18  C   UNK N   1      21.551  17.773   3.848  0.00  0.00     0.018 C 
HETATM   19  C   UNK N   1      20.573  17.128   2.864  0.00  0.00     0.007 C 
HETATM   20  C   UNK N   1      19.835  18.191   2.019  0.00  0.00     0.000 C 
HETATM   21  C   UNK N   1      20.656  19.477   1.849  0.00  0.00     0.000 C 
HETATM   22  C   UNK N   1      20.985  20.129   3.200  0.00  0.00     0.000 C 
HETATM   23  C   UNK N   1      21.021  19.124   4.353  0.00  0.00     0.007 C 
ENDBRANCH   8  18
ENDBRANCH   1   8
BRANCH   7  24
HETATM   24  C   UNK N   1      24.398  14.042   4.545  0.00  0.00     0.074 A 
HETATM   25  N   UNK N   1      23.554  13.539   5.482  0.00  0.00    -0.349 N 
HETATM   26  C   UNK N   1      24.007  12.368   6.024  0.00  0.00     0.091 A 
ATOM     27  HN  UNK N   1      22.677  13.986   5.754  1.00  0.00     0.166 HD
HETATM   28  C   UNK N   1      25.239  11.901   5.514  0.00  0.00     0.085 A 
HETATM   29  S   UNK N   1      25.673  13.014   4.371  0.00  0.00    -0.084 SA
BRANCH  26  30
HETATM   30  C   UNK N   1      23.216  11.609   7.009  0.00  0.00     0.209 C 
HETATM   31  O   UNK N   1      22.565  10.627   6.682  0.00  0.00    -0.285 OA
BRANCH  30  32
HETATM   32  C   UNK N   1      23.231  12.080   8.388  0.00  0.00     0.017 A 
HETATM   33  C   UNK N   1      24.428  12.048   9.105  0.00  0.00     0.018 A 
HETATM   34  C   UNK N   1      24.404  12.162  10.497  0.00  0.00     0.043 A 
HETATM   35  C   UNK N   1      23.183  12.296  11.168  0.00  0.00     0.116 A 
HETATM   36  C   UNK N   1      21.988  12.344  10.449  0.00  0.00     0.043 A 
HETATM   37  F   UNK N   1      23.155  12.346  12.519  0.00  0.00    -0.206 F 
HETATM   38  C   UNK N   1      22.011  12.209   9.065  0.00  0.00     0.018 A 
ENDBRANCH  30  32
ENDBRANCH  26  30
ENDBRANCH   7  24
TORSDOF 8
ENDMDL
MODEL 3
REMARK VINA RESULT:      -7.8     15.166     17.485
REMARK  8 active torsions:
REMARK  status: ('A' for Active; 'I' for Inactive)
REMARK    1  A    between atoms: C_2  and  C_3 
REMARK    2  A    between atoms: C_2  and  N_35 
REMARK       I    between atoms: C_3  and  N_5 
REMARK    3  A    between atoms: C_6  and  N_5 
REMARK    4  A    between atoms: C_6  and  C_7 
REMARK    5  A    between atoms: C_6  and  C_13 
REMARK       I    between atoms: C_13  and  N_15 
REMARK    6  A    between atoms: C_19  and  C_20 
REMARK    7  A    between atoms: C_23  and  C_26 
REMARK    8  A    between atoms: C_26  and  C_28 
ROOT
HETATM    1  C   UNK N   1      30.132  22.575  -7.315  0.00  0.00     0.243 C 
HETATM    2  O   UNK N   1      30.750  23.232  -8.147  0.00  0.00    -0.271 OA
HETATM    3  N   UNK N   1      30.626  22.448  -6.054  0.00  0.00    -0.340 N 
HETATM    4  C   UNK N   1      31.932  22.905  -5.681  0.00  0.00     0.127 C 
HETATM    5  C   UNK N   1      32.127  22.384  -4.260  0.00  0.00     0.022 C 
HETATM    6  C   UNK N   1      30.897  21.521  -3.948  0.00  0.00     0.034 C 
HETATM    7  C   UNK N   1      29.844  21.928  -4.964  0.00  0.00     0.144 C 
ENDROOT
BRANCH   1   8
HETATM    8  C   UNK N   1      28.961  21.724  -7.751  0.00  0.00     0.181 C 
BRANCH   8   9
HETATM    9  N   UNK N   1      27.932  22.448  -8.484  0.00  0.00    -0.346 N 
HETATM   10  C   UNK N   1      26.617  22.545  -8.146  0.00  0.00     0.240 C 
HETATM   11  O   UNK N   1      26.199  22.049  -7.113  0.00  0.00    -0.271 OA
HETATM   12  H   UNK N   1      28.215  22.914  -9.305  0.00  0.00     0.163 HD
BRANCH  10  13
HETATM   13  C   UNK N   1      25.656  23.235  -9.069  0.00  0.00     0.165 C 
HETATM   14  C   UNK N   1      26.341  23.575 -10.382  0.00  0.00     0.042 C 
BRANCH  13  15
HETATM   15  N   UNK N   1      25.135  24.449  -8.464  0.00  0.00    -0.414 N 
HETATM   16  C   UNK N   1      25.853  25.562  -9.061  0.00  0.00     0.140 C 
HETATM   17  H   UNK N   1      24.404  24.508  -7.754  0.00  0.00     0.153 HD
ENDBRANCH  13  15
ENDBRANCH  10  13
ENDBRANCH   8   9
BRANCH   8  18
HETATM   18  C   UNK N   1      29.563  20.492  -8.476  0.00  0.00     0.018 C 
HETATM   19  C   UNK N   1      29.630  19.170  -7.708  0.00  0.00     0.007 C 
HETATM   20  C   UNK N   1      30.036  17.999  -8.630  0.00  0.00     0.000 C 
HETATM   21  C   UNK N   1      30.889  18.460  -9.820  0.00  0.00     0.000 C 
HETATM   22  C   UNK N   1      30.148  19.482 -10.695  0.00  0.00     0.000 C 
HETATM   23  C   UNK N   1      29.091  20.271  -9.921  0.00  0.00     0.007 C 
ENDBRANCH   8  18
ENDBRANCH   1   8
BRANCH   7  24
HETATM   24  C   UNK N   1      29.128  23.143  -4.456  0.00  0.00     0.074 A 
HETATM   25  N   UNK N   1      28.170  23.753  -5.200  0.00  0.00    -0.349 N 
HETATM   26  C   UNK N   1      27.283  24.460  -4.438  0.00  0.00     0.091 A 
ATOM     27  HN  UNK N   1      28.118  23.692  -6.217  1.00  0.00     0.166 HD
HETATM   28  C   UNK N   1      27.514  24.420  -3.045  0.00  0.00     0.085 A 
HETATM   29  S   UNK N   1      28.843  23.453  -2.863  0.00  0.00    -0.084 SA
BRANCH  26  30
HETATM   30  C   UNK N   1      26.118  25.144  -5.030  0.00  0.00     0.209 C 
HETATM   31  O   UNK N   1      25.143  24.518  -5.420  0.00  0.00    -0.285 OA
BRANCH  30  32
HETATM   32  C   UNK N   1      26.179  26.595  -5.144  0.00  0.00     0.017 A 
HETATM   33  C   UNK N   1      27.047  27.170  -6.074  0.00  0.00     0.018 A 
HETATM   34  C   UNK N   1      27.375  28.523  -5.969  0.00  0.00     0.043 A 
HETATM   35  C   UNK N   1      26.844  29.295  -4.929  0.00  0.00     0.116 A 
HETATM   36  C   UNK N   1      25.963  28.724  -4.010  0.00  0.00     0.043 A 
HETATM   37  F   UNK N   1      27.208  30.590  -4.793  0.00  0.00    -0.206 F 
HETATM   38  C   UNK N   1      25.653  27.371  -4.102  0.00  0.00     0.018 A 
ENDBRANCH  30  32
ENDBRANCH  26  30
ENDBRANCH   7  24
TORSDOF 8
ENDMDL
MODEL 4
REMARK VINA RESULT:      -7.7     10.527     13.577
REMARK  8 active torsions:
REMARK  status: ('A' for Active; 'I' for Inactive)
REMARK    1  A    between atoms: C_2  and  C_3 
REMARK    2  A    between atoms: C_2  and  N_35 
REMARK       I    between atoms: C_3  and  N_5 
REMARK    3  A    between atoms: C_6  and  N_5 
REMARK    4  A    between atoms: C_6  and  C_7 
REMARK    5  A    between atoms: C_6  and  C_13 
REMARK       I    between atoms: C_13  and  N_15 
REMARK    6  A    between atoms: C_19  and  C_20 
REMARK    7  A    between atoms: C_23  and  C_26 
REMARK    8  A    between atoms: C_26  and  C_28 
ROOT
HETATM    1  C   UNK N   1      33.024  17.161   6.759  0.00  0.00     0.243 C 
HETATM    2  O   UNK N   1      33.599  18.219   6.990  0.00  0.00    -0.271 OA
HETATM    3  N   UNK N   1      32.862  16.749   5.472  0.00  0.00    -0.340 N 
HETATM    4  C   UNK N   1      33.181  17.575   4.345  0.00  0.00     0.127 C 
HETATM    5  C   UNK N   1      32.662  16.794   3.142  0.00  0.00     0.022 C 
HETATM    6  C   UNK N   1      31.941  15.564   3.707  0.00  0.00     0.034 C 
HETATM    7  C   UNK N   1      32.444  15.414   5.132  0.00  0.00     0.144 C 
ENDROOT
BRANCH   1   8
HETATM    8  C   UNK N   1      32.297  16.442   7.873  0.00  0.00     0.181 C 
BRANCH   8   9
HETATM    9  N   UNK N   1      33.084  16.266   9.087  0.00  0.00    -0.346 N 
HETATM   10  C   UNK N   1      33.541  15.086   9.587  0.00  0.00     0.240 C 
HETATM   11  O   UNK N   1      33.360  14.040   8.986  0.00  0.00    -0.271 OA
HETATM   12  H   UNK N   1      33.308  17.080   9.594  0.00  0.00     0.163 HD
BRANCH  10  13
HETATM   13  C   UNK N   1      34.243  15.058  10.913  0.00  0.00     0.165 C 
HETATM   14  C   UNK N   1      35.649  15.615  10.774  0.00  0.00     0.042 C 
BRANCH  13  15
HETATM   15  N   UNK N   1      34.305  13.705  11.440  0.00  0.00    -0.414 N 
HETATM   16  C   UNK N   1      35.213  13.734  12.574  0.00  0.00     0.140 C 
HETATM   17  H   UNK N   1      33.806  12.890  11.082  0.00  0.00     0.153 HD
ENDBRANCH  13  15
ENDBRANCH  10  13
ENDBRANCH   8   9
BRANCH   8  18
HETATM   18  C   UNK N   1      30.941  17.172   8.051  0.00  0.00     0.018 C 
HETATM   19  C   UNK N   1      29.827  16.869   7.046  0.00  0.00     0.007 C 
HETATM   20  C   UNK N   1      28.483  17.490   7.487  0.00  0.00     0.000 C 
HETATM   21  C   UNK N   1      28.672  18.739   8.359  0.00  0.00     0.000 C 
HETATM   22  C   UNK N   1      29.462  18.429   9.639  0.00  0.00     0.000 C 
HETATM   23  C   UNK N   1      30.395  17.226   9.485  0.00  0.00     0.007 C 
ENDBRANCH   8  18
ENDBRANCH   1   8
BRANCH   7  24
HETATM   24  C   UNK N   1      33.736  14.654   5.110  0.00  0.00     0.074 A 
HETATM   25  N   UNK N   1      34.149  13.943   6.192  0.00  0.00    -0.349 N 
HETATM   26  C   UNK N   1      35.003  12.930   5.859  0.00  0.00     0.091 A 
ATOM     27  HN  UNK N   1      33.854  14.145   7.148  1.00  0.00     0.166 HD
HETATM   28  C   UNK N   1      35.288  12.804   4.481  0.00  0.00     0.085 A 
HETATM   29  S   UNK N   1      34.402  13.996   3.755  0.00  0.00    -0.084 SA
BRANCH  26  30
HETATM   30  C   UNK N   1      35.520  11.985   6.867  0.00  0.00     0.209 C 
HETATM   31  O   UNK N   1      35.273  10.790   6.804  0.00  0.00    -0.285 OA
BRANCH  30  32
HETATM   32  C   UNK N   1      36.329  12.534   7.948  0.00  0.00     0.017 A 
HETATM   33  C   UNK N   1      37.298  13.495   7.653  0.00  0.00     0.018 A 
HETATM   34  C   UNK N   1      38.298  13.777   8.586  0.00  0.00     0.043 A 
HETATM   35  C   UNK N   1      38.334  13.090   9.805  0.00  0.00     0.116 A 
HETATM   36  C   UNK N   1      37.355  12.142  10.106  0.00  0.00     0.043 A 
HETATM   37  F   UNK N   1      39.336  13.320  10.683  0.00  0.00    -0.206 F 
HETATM   38  C   UNK N   1      36.372  11.845   9.167  0.00  0.00     0.018 A 
ENDBRANCH  30  32
ENDBRANCH  26  30
ENDBRANCH   7  24
TORSDOF 8
ENDMDL
MODEL 5
REMARK VINA RESULT:      -7.6      3.518      8.135
REMARK  8 active torsions:
REMARK  status: ('A' for Active; 'I' for Inactive)
REMARK    1  A    between atoms: C_2  and  C_3 
REMARK    2  A    between atoms: C_2  and  N_35 
REMARK       I    between atoms: C_3  and  N_5 
REMARK    3  A    between atoms: C_6  and  N_5 
REMARK    4  A    between atoms: C_6  and  C_7 
REMARK    5  A    between atoms: C_6  and  C_13 
REMARK       I    between atoms: C_13  and  N_15 
REMARK    6  A    between atoms: C_19  and  C_20 
REMARK    7  A    between atoms: C_23  and  C_26 
REMARK    8  A    between atoms: C_26  and  C_28 
ROOT
HETATM    1  C   UNK N   1      24.643  16.066   3.657  0.00  0.00     0.243 C 
HETATM    2  O   UNK N   1      25.610  16.046   2.903  0.00  0.00    -0.271 OA
HETATM    3  N   UNK N   1      23.605  15.212   3.445  0.00  0.00    -0.340 N 
HETATM    4  C   UNK N   1      23.499  14.393   2.274  0.00  0.00     0.127 C 
HETATM    5  C   UNK N   1      22.111  13.768   2.371  0.00  0.00     0.022 C 
HETATM    6  C   UNK N   1      21.441  14.399   3.599  0.00  0.00     0.034 C 
HETATM    7  C   UNK N   1      22.572  14.991   4.422  0.00  0.00     0.144 C 
ENDROOT
BRANCH   1   8
HETATM    8  C   UNK N   1      24.500  17.184   4.665  0.00  0.00     0.181 C 
BRANCH   8   9
HETATM    9  N   UNK N   1      25.741  17.550   5.336  0.00  0.00    -0.346 N 
HETATM   10  C   UNK N   1      26.461  16.765   6.183  0.00  0.00     0.240 C 
HETATM   11  O   UNK N   1      26.127  15.613   6.405  0.00  0.00    -0.271 OA
HETATM   12  H   UNK N   1      26.092  18.453   5.160  0.00  0.00     0.163 HD
BRANCH  10  13
HETATM   13  C   UNK N   1      27.661  17.329   6.886  0.00  0.00     0.165 C 
HETATM   14  C   UNK N   1      28.933  16.716   6.326  0.00  0.00     0.042 C 
BRANCH  13  15
HETATM   15  N   UNK N   1      27.590  17.081   8.316  0.00  0.00    -0.414 N 
HETATM   16  C   UNK N   1      28.259  18.193   8.971  0.00  0.00     0.140 C 
HETATM   17  H   UNK N   1      27.154  16.280   8.773  0.00  0.00     0.153 HD
ENDBRANCH  13  15
ENDBRANCH  10  13
ENDBRANCH   8   9
BRANCH   8  18
HETATM   18  C   UNK N   1      23.765  18.338   3.935  0.00  0.00     0.018 C 
HETATM   19  C   UNK N   1      22.259  18.487   4.163  0.00  0.00     0.007 C 
HETATM   20  C   UNK N   1      21.721  19.802   3.558  0.00  0.00     0.000 C 
HETATM   21  C   UNK N   1      22.562  20.286   2.368  0.00  0.00     0.000 C 
HETATM   22  C   UNK N   1      24.024  20.542   2.765  0.00  0.00     0.000 C 
HETATM   23  C   UNK N   1      24.468  19.703   3.965  0.00  0.00     0.007 C 
ENDBRANCH   8  18
ENDBRANCH   1   8
BRANCH   7  24
HETATM   24  C   UNK N   1      23.154  13.914   5.287  0.00  0.00     0.074 A 
HETATM   25  N   UNK N   1      23.663  14.199   6.513  0.00  0.00    -0.349 N 
HETATM   26  C   UNK N   1      23.653  13.118   7.351  0.00  0.00     0.091 A 
ATOM     27  HN  UNK N   1      24.016  15.118   6.780  1.00  0.00     0.166 HD
HETATM   28  C   UNK N   1      23.118  11.931   6.803  0.00  0.00     0.085 A 
HETATM   29  S   UNK N   1      22.662  12.341   5.267  0.00  0.00    -0.084 SA
BRANCH  26  30
HETATM   30  C   UNK N   1      24.093  13.217   8.754  0.00  0.00     0.209 C 
HETATM   31  O   UNK N   1      25.266  13.401   9.042  0.00  0.00    -0.285 OA
BRANCH  30  32
HETATM   32  C   UNK N   1      23.075  13.077   9.788  0.00  0.00     0.017 A 
HETATM   33  C   UNK N   1      23.293  12.188  10.842  0.00  0.00     0.018 A 
HETATM   34  C   UNK N   1      22.219  11.783  11.638  0.00  0.00     0.043 A 
HETATM   35  C   UNK N   1      20.931  12.260  11.372  0.00  0.00     0.116 A 
HETATM   36  C   UNK N   1      20.716  13.162  10.330  0.00  0.00     0.043 A 
HETATM   37  F   UNK N   1      19.883  11.822  12.106  0.00  0.00    -0.206 F 
HETATM   38  C   UNK N   1      21.782  13.548   9.523  0.00  0.00     0.018 A 
ENDBRANCH  30  32
ENDBRANCH  26  30
ENDBRANCH   7  24
TORSDOF 8
ENDMDL
MODEL 6
REMARK VINA RESULT:      -7.6     14.491     17.665
REMARK  8 active torsions:
REMARK  status: ('A' for Active; 'I' for Inactive)
REMARK    1  A    between atoms: C_2  and  C_3 
REMARK    2  A    between atoms: C_2  and  N_35 
REMARK       I    between atoms: C_3  and  N_5 
REMARK    3  A    between atoms: C_6  and  N_5 
REMARK    4  A    between atoms: C_6  and  C_7 
REMARK    5  A    between atoms: C_6  and  C_13 
REMARK       I    between atoms: C_13  and  N_15 
REMARK    6  A    between atoms: C_19  and  C_20 
REMARK    7  A    between atoms: C_23  and  C_26 
REMARK    8  A    between atoms: C_26  and  C_28 
ROOT
HETATM    1  C   UNK N   1      27.378  24.081  -4.044  0.00  0.00     0.243 C 
HETATM    2  O   UNK N   1      26.330  23.887  -3.436  0.00  0.00    -0.271 OA
HETATM    3  N   UNK N   1      28.559  23.692  -3.492  0.00  0.00    -0.340 N 
HETATM    4  C   UNK N   1      28.668  23.213  -2.146  0.00  0.00     0.127 C 
HETATM    5  C   UNK N   1      30.169  23.090  -1.905  0.00  0.00     0.022 C 
HETATM    6  C   UNK N   1      30.851  23.648  -3.161  0.00  0.00     0.034 C 
HETATM    7  C   UNK N   1      29.786  23.641  -4.242  0.00  0.00     0.144 C 
ENDROOT
BRANCH   1   8
HETATM    8  C   UNK N   1      27.379  24.952  -5.279  0.00  0.00     0.181 C 
BRANCH   8   9
HETATM    9  N   UNK N   1      26.527  24.466  -6.358  0.00  0.00    -0.346 N 
HETATM   10  C   UNK N   1      26.919  24.182  -7.629  0.00  0.00     0.240 C 
HETATM   11  O   UNK N   1      28.092  24.264  -7.955  0.00  0.00    -0.271 OA
HETATM   12  H   UNK N   1      25.575  24.330  -6.145  0.00  0.00     0.163 HD
BRANCH  10  13
HETATM   13  C   UNK N   1      25.897  23.797  -8.658  0.00  0.00     0.165 C 
HETATM   14  C   UNK N   1      25.459  25.020  -9.445  0.00  0.00     0.042 C 
BRANCH  13  15
HETATM   15  N   UNK N   1      24.740  23.178  -8.036  0.00  0.00    -0.414 N 
HETATM   16  C   UNK N   1      24.951  21.741  -8.086  0.00  0.00     0.140 C 
HETATM   17  H   UNK N   1      23.933  23.659  -7.639  0.00  0.00     0.153 HD
ENDBRANCH  13  15
ENDBRANCH  10  13
ENDBRANCH   8   9
BRANCH   8  18
HETATM   18  C   UNK N   1      27.092  26.397  -4.795  0.00  0.00     0.018 C 
HETATM   19  C   UNK N   1      28.266  27.377  -4.728  0.00  0.00     0.007 C 
HETATM   20  C   UNK N   1      27.785  28.819  -4.451  0.00  0.00     0.000 C 
HETATM   21  C   UNK N   1      26.461  28.856  -3.676  0.00  0.00     0.000 C 
HETATM   22  C   UNK N   1      25.331  28.147  -4.437  0.00  0.00     0.000 C 
HETATM   23  C   UNK N   1      25.844  27.066  -5.391  0.00  0.00     0.007 C 
ENDBRANCH   8  18
ENDBRANCH   1   8
BRANCH   7  24
HETATM   24  C   UNK N   1      29.740  22.279  -4.866  0.00  0.00     0.074 A 
HETATM   25  N   UNK N   1      29.261  22.099  -6.124  0.00  0.00    -0.349 N 
HETATM   26  C   UNK N   1      29.758  20.975  -6.721  0.00  0.00     0.091 A 
ATOM     27  HN  UNK N   1      28.602  22.735  -6.574  1.00  0.00     0.166 HD
HETATM   28  C   UNK N   1      30.667  20.225  -5.940  0.00  0.00     0.085 A 
HETATM   29  S   UNK N   1      30.801  21.066  -4.522  0.00  0.00    -0.084 SA
BRANCH  26  30
HETATM   30  C   UNK N   1      29.429  20.623  -8.114  0.00  0.00     0.209 C 
HETATM   31  O   UNK N   1      28.402  21.018  -8.645  0.00  0.00    -0.285 OA
BRANCH  30  32
HETATM   32  C   UNK N   1      30.372  19.775  -8.832  0.00  0.00     0.017 A 
HETATM   33  C   UNK N   1      31.393  20.369  -9.576  0.00  0.00     0.018 A 
HETATM   34  C   UNK N   1      32.081  19.617 -10.530  0.00  0.00     0.043 A 
HETATM   35  C   UNK N   1      31.741  18.276 -10.745  0.00  0.00     0.116 A 
HETATM   36  C   UNK N   1      30.732  17.678  -9.989  0.00  0.00     0.043 A 
HETATM   37  F   UNK N   1      32.367  17.565 -11.709  0.00  0.00    -0.206 F 
HETATM   38  C   UNK N   1      30.031  18.434  -9.054  0.00  0.00     0.018 A 
ENDBRANCH  30  32
ENDBRANCH  26  30
ENDBRANCH   7  24
TORSDOF 8
ENDMDL
MODEL 7
REMARK VINA RESULT:      -7.6      2.819      5.911
REMARK  8 active torsions:
REMARK  status: ('A' for Active; 'I' for Inactive)
REMARK    1  A    between atoms: C_2  and  C_3 
REMARK    2  A    between atoms: C_2  and  N_35 
REMARK       I    between atoms: C_3  and  N_5 
REMARK    3  A    between atoms: C_6  and  N_5 
REMARK    4  A    between atoms: C_6  and  C_7 
REMARK    5  A    between atoms: C_6  and  C_13 
REMARK       I    between atoms: C_13  and  N_15 
REMARK    6  A    between atoms: C_19  and  C_20 
REMARK    7  A    between atoms: C_23  and  C_26 
REMARK    8  A    between atoms: C_26  and  C_28 
ROOT
HETATM    1  C   UNK N   1      25.991  15.324   7.271  0.00  0.00     0.243 C 
HETATM    2  O   UNK N   1      26.693  15.716   8.197  0.00  0.00    -0.271 OA
HETATM    3  N   UNK N   1      25.135  14.284   7.467  0.00  0.00    -0.340 N 
HETATM    4  C   UNK N   1      25.127  13.499   8.665  0.00  0.00     0.127 C 
HETATM    5  C   UNK N   1      24.168  12.353   8.364  0.00  0.00     0.022 C 
HETATM    6  C   UNK N   1      23.762  12.509   6.892  0.00  0.00     0.034 C 
HETATM    7  C   UNK N   1      24.102  13.943   6.525  0.00  0.00     0.144 C 
ENDROOT
BRANCH   1   8
HETATM    8  C   UNK N   1      26.245  15.832   5.870  0.00  0.00     0.181 C 
BRANCH   8   9
HETATM    9  N   UNK N   1      26.181  17.282   5.736  0.00  0.00    -0.346 N 
HETATM   10  C   UNK N   1      25.415  17.978   4.853  0.00  0.00     0.240 C 
HETATM   11  O   UNK N   1      24.639  17.402   4.109  0.00  0.00    -0.271 OA
HETATM   12  H   UNK N   1      26.749  17.810   6.344  0.00  0.00     0.163 HD
BRANCH  10  13
HETATM   13  C   UNK N   1      25.547  19.470   4.762  0.00  0.00     0.165 C 
HETATM   14  C   UNK N   1      26.558  19.843   3.691  0.00  0.00     0.042 C 
BRANCH  13  15
HETATM   15  N   UNK N   1      25.957  20.034   6.037  0.00  0.00    -0.414 N 
HETATM   16  C   UNK N   1      27.069  20.929   5.765  0.00  0.00     0.140 C 
HETATM   17  H   UNK N   1      25.543  19.840   6.948  0.00  0.00     0.153 HD
ENDBRANCH  13  15
ENDBRANCH  10  13
ENDBRANCH   8   9
BRANCH   8  18
HETATM   18  C   UNK N   1      27.565  15.170   5.397  0.00  0.00     0.018 C 
HETATM   19  C   UNK N   1      27.484  13.776   4.773  0.00  0.00     0.007 C 
HETATM   20  C   UNK N   1      28.834  13.354   4.151  0.00  0.00     0.000 C 
HETATM   21  C   UNK N   1      30.030  14.028   4.838  0.00  0.00     0.000 C 
HETATM   22  C   UNK N   1      29.956  15.559   4.746  0.00  0.00     0.000 C 
HETATM   23  C   UNK N   1      28.522  16.077   4.609  0.00  0.00     0.007 C 
ENDBRANCH   8  18
ENDBRANCH   1   8
BRANCH   7  24
HETATM   24  C   UNK N   1      22.966  14.829   6.938  0.00  0.00     0.074 A 
HETATM   25  N   UNK N   1      22.900  16.122   6.526  0.00  0.00    -0.349 N 
HETATM   26  C   UNK N   1      21.623  16.609   6.525  0.00  0.00     0.091 A 
ATOM     27  HN  UNK N   1      23.715  16.670   6.249  1.00  0.00     0.166 HD
HETATM   28  C   UNK N   1      20.626  15.696   6.934  0.00  0.00     0.085 A 
HETATM   29  S   UNK N   1      21.441  14.294   7.258  0.00  0.00    -0.084 SA
BRANCH  26  30
HETATM   30  C   UNK N   1      21.308  17.967   6.046  0.00  0.00     0.209 C 
HETATM   31  O   UNK N   1      21.030  18.867   6.823  0.00  0.00    -0.285 OA
BRANCH  30  32
HETATM   32  C   UNK N   1      21.332  18.193   4.606  0.00  0.00     0.017 A 
HETATM   33  C   UNK N   1      21.883  19.376   4.112  0.00  0.00     0.018 A 
HETATM   34  C   UNK N   1      21.614  19.768   2.799  0.00  0.00     0.043 A 
HETATM   35  C   UNK N   1      20.786  18.983   1.988  0.00  0.00     0.116 A 
HETATM   36  C   UNK N   1      20.249  17.792   2.477  0.00  0.00     0.043 A 
HETATM   37  F   UNK N   1      20.478  19.393   0.737  0.00  0.00    -0.206 F 
HETATM   38  C   UNK N   1      20.500  17.413   3.792  0.00  0.00     0.018 A 
ENDBRANCH  30  32
ENDBRANCH  26  30
ENDBRANCH   7  24
TORSDOF 8
ENDMDL
MODEL 8
REMARK VINA RESULT:      -7.5      3.947      8.400
REMARK  8 active torsions:
REMARK  status: ('A' for Active; 'I' for Inactive)
REMARK    1  A    between atoms: C_2  and  C_3 
REMARK    2  A    between atoms: C_2  and  N_35 
REMARK       I    between atoms: C_3  and  N_5 
REMARK    3  A    between atoms: C_6  and  N_5 
REMARK    4  A    between atoms: C_6  and  C_7 
REMARK    5  A    between atoms: C_6  and  C_13 
REMARK       I    between atoms: C_13  and  N_15 
REMARK    6  A    between atoms: C_19  and  C_20 
REMARK    7  A    between atoms: C_23  and  C_26 
REMARK    8  A    between atoms: C_26  and  C_28 
ROOT
HETATM    1  C   UNK N   1      21.004  15.001   4.437  0.00  0.00     0.243 C 
HETATM    2  O   UNK N   1      19.989  14.369   4.711  0.00  0.00    -0.271 OA
HETATM    3  N   UNK N   1      21.348  16.082   5.187  0.00  0.00    -0.340 N 
HETATM    4  C   UNK N   1      20.490  16.636   6.192  0.00  0.00     0.127 C 
HETATM    5  C   UNK N   1      21.186  17.924   6.621  0.00  0.00     0.022 C 
HETATM    6  C   UNK N   1      22.402  18.082   5.698  0.00  0.00     0.034 C 
HETATM    7  C   UNK N   1      22.642  16.707   5.100  0.00  0.00     0.144 C 
ENDROOT
BRANCH   1   8
HETATM    8  C   UNK N   1      21.734  14.725   3.141  0.00  0.00     0.181 C 
BRANCH   8   9
HETATM    9  N   UNK N   1      22.719  13.654   3.224  0.00  0.00    -0.346 N 
HETATM   10  C   UNK N   1      24.034  13.742   2.887  0.00  0.00     0.240 C 
HETATM   11  O   UNK N   1      24.519  14.802   2.527  0.00  0.00    -0.271 OA
HETATM   12  H   UNK N   1      22.402  12.783   3.555  0.00  0.00     0.163 HD
BRANCH  10  13
HETATM   13  C   UNK N   1      24.898  12.515   2.920  0.00  0.00     0.165 C 
HETATM   14  C   UNK N   1      24.698  11.697   1.656  0.00  0.00     0.042 C 
BRANCH  13  15
HETATM   15  N   UNK N   1      24.595  11.697   4.082  0.00  0.00    -0.414 N 
HETATM   16  C   UNK N   1      25.866  11.262   4.636  0.00  0.00     0.140 C 
HETATM   17  H   UNK N   1      23.667  11.472   4.441  0.00  0.00     0.153 HD
ENDBRANCH  13  15
ENDBRANCH  10  13
ENDBRANCH   8   9
BRANCH   8  18
HETATM   18  C   UNK N   1      20.642  14.552   2.054  0.00  0.00     0.018 C 
HETATM   19  C   UNK N   1      20.093  15.813   1.383  0.00  0.00     0.007 C 
HETATM   20  C   UNK N   1      19.192  15.466   0.177  0.00  0.00     0.000 C 
HETATM   21  C   UNK N   1      18.527  14.089   0.319  0.00  0.00     0.000 C 
HETATM   22  C   UNK N   1      19.564  12.962   0.441  0.00  0.00     0.000 C 
HETATM   23  C   UNK N   1      20.895  13.441   1.024  0.00  0.00     0.007 C 
ENDBRANCH   8  18
ENDBRANCH   1   8
BRANCH   7  24
HETATM   24  C   UNK N   1      23.468  15.902   6.058  0.00  0.00     0.074 A 
HETATM   25  N   UNK N   1      22.948  14.820   6.694  0.00  0.00    -0.349 N 
HETATM   26  C   UNK N   1      23.907  13.927   7.080  0.00  0.00     0.091 A 
ATOM     27  HN  UNK N   1      21.951  14.689   6.865  1.00  0.00     0.166 HD
HETATM   28  C   UNK N   1      25.234  14.280   6.748  0.00  0.00     0.085 A 
HETATM   29  S   UNK N   1      25.101  15.721   5.948  0.00  0.00    -0.084 SA
BRANCH  26  30
HETATM   30  C   UNK N   1      23.564  12.646   7.724  0.00  0.00     0.209 C 
HETATM   31  O   UNK N   1      23.423  11.623   7.070  0.00  0.00    -0.285 OA
BRANCH  30  32
HETATM   32  C   UNK N   1      23.388  12.647   9.171  0.00  0.00     0.017 A 
HETATM   33  C   UNK N   1      24.495  12.425   9.991  0.00  0.00     0.018 A 
HETATM   34  C   UNK N   1      24.303  12.084  11.332  0.00  0.00     0.043 A 
HETATM   35  C   UNK N   1      23.007  11.954  11.845  0.00  0.00     0.116 A 
HETATM   36  C   UNK N   1      21.902  12.193  11.028  0.00  0.00     0.043 A 
HETATM   37  F   UNK N   1      22.822  11.566  13.127  0.00  0.00    -0.206 F 
HETATM   38  C   UNK N   1      22.092  12.512   9.687  0.00  0.00     0.018 A 
ENDBRANCH  30  32
ENDBRANCH  26  30
ENDBRANCH   7  24
TORSDOF 8
ENDMDL
MODEL 9
REMARK VINA RESULT:      -7.4      4.779      8.297
REMARK  8 active torsions:
REMARK  status: ('A' for Active; 'I' for Inactive)
REMARK    1  A    between atoms: C_2  and  C_3 
REMARK    2  A    between atoms: C_2  and  N_35 
REMARK       I    between atoms: C_3  and  N_5 
REMARK    3  A    between atoms: C_6  and  N_5 
REMARK    4  A    between atoms: C_6  and  C_7 
REMARK    5  A    between atoms: C_6  and  C_13 
REMARK       I    between atoms: C_13  and  N_15 
REMARK    6  A    between atoms: C_19  and  C_20 
REMARK    7  A    between atoms: C_23  and  C_26 
REMARK    8  A    between atoms: C_26  and  C_28 
ROOT
HETATM    1  C   UNK N   1      23.077  15.370   4.293  0.00  0.00     0.243 C 
HETATM    2  O   UNK N   1      22.917  14.364   4.976  0.00  0.00    -0.271 OA
HETATM    3  N   UNK N   1      22.635  16.573   4.752  0.00  0.00    -0.340 N 
HETATM    4  C   UNK N   1      21.831  16.709   5.930  0.00  0.00     0.127 C 
HETATM    5  C   UNK N   1      21.417  18.177   5.942  0.00  0.00     0.022 C 
HETATM    6  C   UNK N   1      21.947  18.782   4.636  0.00  0.00     0.034 C 
HETATM    7  C   UNK N   1      23.015  17.821   4.144  0.00  0.00     0.144 C 
ENDROOT
BRANCH   1   8
HETATM    8  C   UNK N   1      23.543  15.239   2.861  0.00  0.00     0.181 C 
BRANCH   8   9
HETATM    9  N   UNK N   1      24.812  14.541   2.704  0.00  0.00    -0.346 N 
HETATM   10  C   UNK N   1      26.022  15.113   2.462  0.00  0.00     0.240 C 
HETATM   11  O   UNK N   1      26.143  16.326   2.415  0.00  0.00    -0.271 OA
HETATM   12  H   UNK N   1      24.792  13.559   2.781  0.00  0.00     0.163 HD
BRANCH  10  13
HETATM   13  C   UNK N   1      27.222  14.247   2.212  0.00  0.00     0.165 C 
HETATM   14  C   UNK N   1      26.796  12.802   2.018  0.00  0.00     0.042 C 
BRANCH  13  15
HETATM   15  N   UNK N   1      28.165  14.333   3.315  0.00  0.00    -0.414 N 
HETATM   16  C   UNK N   1      29.352  14.997   2.805  0.00  0.00     0.140 C 
HETATM   17  H   UNK N   1      28.020  13.992   4.265  0.00  0.00     0.153 HD
ENDBRANCH  13  15
ENDBRANCH  10  13
ENDBRANCH   8   9
BRANCH   8  18
HETATM   18  C   UNK N   1      22.349  14.651   2.065  0.00  0.00     0.018 C 
HETATM   19  C   UNK N   1      21.141  15.556   1.812  0.00  0.00     0.007 C 
HETATM   20  C   UNK N   1      20.146  14.910   0.822  0.00  0.00     0.000 C 
HETATM   21  C   UNK N   1      20.205  13.376   0.851  0.00  0.00     0.000 C 
HETATM   22  C   UNK N   1      21.602  12.848   0.490  0.00  0.00     0.000 C 
HETATM   23  C   UNK N   1      22.715  13.849   0.808  0.00  0.00     0.007 C 
ENDBRANCH   8  18
ENDBRANCH   1   8
BRANCH   7  24
HETATM   24  C   UNK N   1      24.309  18.146   4.826  0.00  0.00     0.074 A 
HETATM   25  N   UNK N   1      25.062  17.173   5.401  0.00  0.00    -0.349 N 
HETATM   26  C   UNK N   1      26.382  17.514   5.491  0.00  0.00     0.091 A 
ATOM     27  HN  UNK N   1      24.683  16.284   5.730  1.00  0.00     0.166 HD
HETATM   28  C   UNK N   1      26.717  18.785   4.973  0.00  0.00     0.085 A 
HETATM   29  S   UNK N   1      25.292  19.399   4.402  0.00  0.00    -0.084 SA
BRANCH  26  30
HETATM   30  C   UNK N   1      27.394  16.579   6.016  0.00  0.00     0.209 C 
HETATM   31  O   UNK N   1      27.237  15.368   5.950  0.00  0.00    -0.285 OA
BRANCH  30  32
HETATM   32  C   UNK N   1      28.585  17.153   6.628  0.00  0.00     0.017 A 
HETATM   33  C   UNK N   1      29.834  16.890   6.063  0.00  0.00     0.018 A 
HETATM   34  C   UNK N   1      30.993  17.131   6.805  0.00  0.00     0.043 A 
HETATM   35  C   UNK N   1      30.899  17.623   8.112  0.00  0.00     0.116 A 
HETATM   36  C   UNK N   1      29.650  17.901   8.670  0.00  0.00     0.043 A 
HETATM   37  F   UNK N   1      32.017  17.799   8.851  0.00  0.00    -0.206 F 
HETATM   38  C   UNK N   1      28.496  17.640   7.939  0.00  0.00     0.018 A 
ENDBRANCH  30  32
ENDBRANCH  26  30
ENDBRANCH   7  24
TORSDOF 8
ENDMDL
