REMARK  9 active torsions:
REMARK  status: ('A' for Active; 'I' for Inactive)
REMARK    1  A    between atoms: C_2  and  N_4 
REMARK    2  A    between atoms: N_4  and  C_5 
REMARK    3  A    between atoms: C_5  and  C_6 
REMARK    4  A    between atoms: C_6  and  N_7 
REMARK    5  A    between atoms: N_7  and  C_8 
REMARK    6  A    between atoms: N_7  and  C_27 
REMARK    7  A    between atoms: C_16  and  C_20 
REMARK    8  A    between atoms: C_29  and  O_35 
REMARK    9  A    between atoms: C_31  and  O_33 
ROOT
HETATM    1  C   UNK N   1       0.190  -4.943  -0.075  0.00  0.00     0.037 A 
HETATM    2  C   UNK N   1       0.128  -6.351   0.054  0.00  0.00     0.032 A 
HETATM    3  C   UNK N   1       1.313  -7.112   0.181  0.00  0.00     0.034 A 
HETATM    4  C   UNK N   1       2.562  -6.465   0.163  0.00  0.00     0.059 A 
HETATM    5  C   UNK N   1       2.606  -5.078   0.006  0.00  0.00     0.061 A 
HETATM    6  C   UNK N   1       1.449  -4.352  -0.106  0.00  0.00     0.061 A 
HETATM    7  N   UNK N   1       3.787  -4.433  -0.025  0.00  0.00    -0.352 N 
ATOM      8  HN  UNK N   1       3.799  -3.421  -0.149  1.00  0.00     0.166 HD
HETATM    9  C   UNK N   1       4.957  -5.096   0.104  0.00  0.00     0.061 A 
HETATM   10  C   UNK N   1       4.934  -6.493   0.275  0.00  0.00     0.119 A 
HETATM   11  N   UNK N   1       3.733  -7.151   0.296  0.00  0.00    -0.362 N 
ATOM     12  HN  UNK N   1       3.714  -8.164   0.411  1.00  0.00     0.165 HD
ENDROOT
BRANCH   1  13
HETATM   13  N   UNK N   1      -1.000  -4.127  -0.176  0.00  0.00    -0.345 N 
BRANCH  13  14
HETATM   14  C   UNK N   1      -2.260  -4.793  -0.457  0.00  0.00     0.148 C 
BRANCH  14  15
HETATM   15  C   UNK N   1      -3.287  -4.609   0.648  0.00  0.00     0.134 C 
BRANCH  15  16
HETATM   16  N   UNK N   1      -4.585  -5.020   0.130  0.00  0.00    -0.416 N 
HETATM   17  H   UNK N   1      -4.786  -5.921  -0.306  0.00  0.00     0.153 HD
BRANCH  16  18
HETATM   18  C   UNK N   1      -5.553  -3.946   0.330  0.00  0.00     0.068 C 
HETATM   19  C   UNK N   1      -6.927  -4.449  -0.061  0.00  0.00     0.031 C 
HETATM   20  C   UNK N   1      -5.226  -2.745  -0.543  0.00  0.00     0.031 C 
ENDBRANCH  16  18
ENDBRANCH  15  16
ENDBRANCH  14  15
ENDBRANCH  13  14
BRANCH  13  21
HETATM   21  C   UNK N   1      -0.956  -2.673  -0.088  0.00  0.00     0.040 A 
HETATM   22  C   UNK N   1      -2.127  -1.900  -0.190  0.00  0.00     0.066 A 
HETATM   23  C   UNK N   1      -2.084  -0.500  -0.080  0.00  0.00     0.073 A 
HETATM   24  C   UNK N   1      -0.850   0.144   0.121  0.00  0.00     0.073 A 
HETATM   25  C   UNK N   1       0.322  -0.597   0.218  0.00  0.00     0.073 A 
HETATM   26  C   UNK N   1       0.252  -1.987   0.123  0.00  0.00     0.066 A 
BRANCH  23  27
HETATM   27  O   UNK N   1      -3.236   0.204  -0.166  0.00  0.00    -0.356 OA
HETATM   28  C   UNK N   1      -3.287   1.576  -0.049  0.00  0.00     0.210 C 
ENDBRANCH  23  27
BRANCH  25  29
HETATM   29  O   UNK N   1       1.505   0.039   0.398  0.00  0.00    -0.356 OA
HETATM   30  C   UNK N   1       2.712  -0.623   0.471  0.00  0.00     0.210 C 
ENDBRANCH  25  29
ENDBRANCH  13  21
ENDBRANCH   1  13
BRANCH   9  31
HETATM   31  C   UNK N   1       6.196  -4.308   0.074  0.00  0.00     0.026 A 
HETATM   32  C   UNK N   1       6.251  -2.938  -0.128  0.00  0.00     0.122 A 
HETATM   33  N   UNK N   1       7.541  -2.563  -0.075  0.00  0.00    -0.310 N 
HETATM   34  N   UNK N   1       8.275  -3.637   0.151  0.00  0.00    -0.307 N 
ATOM     35  HN  UNK N   1       7.892  -1.612  -0.190  1.00  0.00     0.186 HD
HETATM   36  C   UNK N   1       7.496  -4.731   0.249  0.00  0.00     0.124 A 
HETATM   37  C   UNK N   1       9.719  -3.610   0.285  0.00  0.00     0.177 C 
ENDBRANCH   9  31
TORSDOF 9
