REMARK  3 active torsions:
REMARK  status: ('A' for Active; 'I' for Inactive)
REMARK    1  A    between atoms: C_6  and  C_7 
REMARK    2  A    between atoms: C_9  and  O_23 
REMARK    3  A    between atoms: C_11  and  C_14 
ROOT
HETATM    1  C   UNK N   1      -3.238  -1.739   0.000  0.00  0.00     0.062 C 
HETATM    2  C   UNK N   1      -2.264  -0.819  -0.000  0.00  0.00     0.068 A 
HETATM    3  C   UNK N   1      -2.401   0.635   0.000  0.00  0.00     0.097 A 
HETATM    4  C   UNK N   1      -1.160   1.156  -0.000  0.00  0.00     0.071 A 
HETATM    5  C   UNK N   1      -0.249  -0.016  -0.001  0.00  0.00     0.062 A 
HETATM    6  N   UNK N   1      -0.906  -1.107  -0.001  0.00  0.00    -0.352 N 
ATOM      7  HN  UNK N   1      -0.500  -2.043  -0.001  1.00  0.00     0.166 HD
ENDROOT
BRANCH   5   8
HETATM    8  C   UNK N   1       1.216  -0.044  -0.001  0.00  0.00     0.060 A 
HETATM    9  C   UNK N   1       2.088   1.043  -0.000  0.00  0.00     0.045 A 
HETATM   10  C   UNK N   1       3.344   0.465  -0.000  0.00  0.00    -0.007 A 
HETATM   11  C   UNK N   1       4.609   1.045   0.000  0.00  0.00     0.014 A 
HETATM   12  C   UNK N   1       3.183  -0.891  -0.001  0.00  0.00     0.043 A 
HETATM   13  C   UNK N   1       5.726   0.185   0.000  0.00  0.00     0.001 A 
HETATM   14  C   UNK N   1       5.551  -1.219  -0.000  0.00  0.00     0.002 A 
HETATM   15  C   UNK N   1       4.260  -1.771  -0.001  0.00  0.00     0.030 A 
HETATM   16  N   UNK N   1       1.890  -1.220  -0.001  0.00  0.00    -0.354 N 
HETATM   17  H   UNK N   1       1.506  -2.126  -0.001  0.00  0.00     0.166 HD
ENDBRANCH   5   8
BRANCH   3  18
HETATM   18  O   UNK N   1      -3.571   1.320   0.001  0.00  0.00    -0.354 OA
HETATM   19  C   UNK N   1      -3.622   2.695   0.001  0.00  0.00     0.210 C 
ENDBRANCH   3  18
BRANCH   1  20
HETATM   20  C   UNK N   1      -3.087  -3.230   0.000  0.00  0.00     0.040 A 
HETATM   21  N   UNK N   1      -4.184  -4.011  -0.001  0.00  0.00    -0.359 N 
HETATM   22  C   UNK N   1      -3.751  -5.287  -0.000  0.00  0.00     0.006 A 
HETATM   23  H   UNK N   1      -5.121  -3.709  -0.001  0.00  0.00     0.166 HD
HETATM   24  C   UNK N   1      -2.378  -5.355   0.001  0.00  0.00     0.033 A 
HETATM   25  C   UNK N   1      -4.655  -6.465  -0.001  0.00  0.00     0.068 C 
HETATM   26  C   UNK N   1      -1.946  -4.050   0.001  0.00  0.00    -0.033 A 
HETATM   27  C   UNK N   1      -0.497  -3.716   0.002  0.00  0.00     0.050 C 
ENDBRANCH   1  20
TORSDOF 3
