MODEL 1
REMARK VINA RESULT:      -6.9      0.000      0.000
REMARK  16 active torsions:
REMARK  status: ('A' for Active; 'I' for Inactive)
REMARK    1  A    between atoms: C_2  and  C_3 
REMARK    2  A    between atoms: C_5  and  C_3 
REMARK    3  A    between atoms: C_9  and  C_55 
REMARK    4  A    between atoms: C_13  and  C_51 
REMARK    5  A    between atoms: C_17  and  C_40 
REMARK    6  A    between atoms: C_26  and  C_30 
REMARK    7  A    between atoms: C_30  and  C_31 
REMARK       I    between atoms: C_40  and  N_42 
REMARK    8  A    between atoms: C_44  and  N_42 
REMARK    9  A    between atoms: C_44  and  C_45 
REMARK   10  A    between atoms: C_44  and  C_49 
REMARK   11  A    between atoms: C_45  and  C_46 
REMARK   12  A    between atoms: C_46  and  C_47 
REMARK   13  A    between atoms: C_47  and  N_48 
REMARK   14  A    between atoms: C_49  and  O_50 
REMARK   15  A    between atoms: C_51  and  C_52 
REMARK       I    between atoms: C_52  and  N_54 
REMARK   16  A    between atoms: C_55  and  C_57 
ROOT
HETATM    1  C   UNK N   1      35.634  13.679   9.964  0.00  0.00     0.180 C 
HETATM    2  C   UNK N   1      34.945  14.880   9.401  0.00  0.00     0.241 C 
HETATM    3  O   UNK N   1      34.148  15.482  10.111  0.00  0.00    -0.271 OA
HETATM    4  N   UNK N   1      34.818  14.932   8.053  0.00  0.00    -0.346 N 
HETATM    5  C   UNK N   1      33.542  15.285   7.488  0.00  0.00     0.180 C 
HETATM    6  C   UNK N   1      32.639  14.069   7.477  0.00  0.00     0.241 C 
HETATM    7  O   UNK N   1      32.127  13.745   8.535  0.00  0.00    -0.271 OA
HETATM    8  N   UNK N   1      32.468  13.248   6.411  0.00  0.00    -0.346 N 
HETATM    9  C   UNK N   1      32.857  13.500   5.048  0.00  0.00     0.185 C 
HETATM   10  C   UNK N   1      32.684  12.217   4.274  0.00  0.00     0.241 C 
HETATM   11  O   UNK N   1      33.193  12.108   3.167  0.00  0.00    -0.271 OA
HETATM   12  N   UNK N   1      31.702  11.358   4.673  0.00  0.00    -0.346 N 
HETATM   13  C   UNK N   1      30.960  10.499   3.776  0.00  0.00     0.177 C 
HETATM   14  C   UNK N   1      31.818   9.375   3.196  0.00  0.00     0.045 C 
HETATM   15  C   UNK N   1      31.141   8.010   3.337  0.00  0.00     0.076 C 
HETATM   16  S   UNK N   1      30.784   7.583   5.082  0.00  0.00    -0.169 SA
HETATM   17  C   UNK N   1      32.525   7.292   5.550  0.00  0.00     0.083 C 
HETATM   18  C   UNK N   1      33.295   8.606   5.635  0.00  0.00     0.113 C 
HETATM   19  C   UNK N   1      32.869   9.475   6.774  0.00  0.00     0.219 C 
HETATM   20  O   UNK N   1      31.695   9.789   6.915  0.00  0.00    -0.274 OA
HETATM   21  N   UNK N   1      33.808   9.939   7.625  0.00  0.00    -0.347 N 
HETATM   22  C   UNK N   1      33.501  10.798   8.753  0.00  0.00     0.180 C 
HETATM   23  C   UNK N   1      34.731  11.569   9.148  0.00  0.00     0.241 C 
HETATM   24  O   UNK N   1      35.803  11.319   8.612  0.00  0.00    -0.271 OA
HETATM   25  N   UNK N   1      34.612  12.653   9.945  0.00  0.00    -0.346 N 
HETATM   26  H   UNK N   1      35.586  14.731   7.470  0.00  0.00     0.163 HD
HETATM   27  H   UNK N   1      32.030  12.384   6.588  0.00  0.00     0.163 HD
HETATM   28  H   UNK N   1      31.484  11.320   5.632  0.00  0.00     0.163 HD
HETATM   29  H   UNK N   1      34.746   9.681   7.473  0.00  0.00     0.163 HD
HETATM   30  H   UNK N   1      33.819  12.746  10.521  0.00  0.00     0.163 HD
ENDROOT
BRANCH  13  31
HETATM   31  C   UNK N   1      30.222  11.457   2.870  0.00  0.00     0.242 C 
HETATM   32  O   UNK N   1      30.571  11.459   1.689  0.00  0.00    -0.271 OA
HETATM   33  N   UNK N   1      29.129  12.192   3.234  0.00  0.00    -0.348 N 
HETATM   34  C   UNK N   1      28.674  12.279   4.603  0.00  0.00     0.153 C 
BRANCH  33  35
HETATM   35  C   UNK N   1      28.317  12.818   2.216  0.00  0.00     0.110 C 
BRANCH  35  36
HETATM   36  C   UNK N   1      28.641  14.237   1.784  0.00  0.00     0.029 C 
BRANCH  36  37
HETATM   37  C   UNK N   1      27.557  15.180   2.254  0.00  0.00     0.021 C 
BRANCH  37  38
HETATM   38  C   UNK N   1      27.980  15.849   3.548  0.00  0.00     0.111 C 
BRANCH  38  39
HETATM   39  N   UNK N   1      28.661  17.101   3.268  0.00  0.00    -0.430 N 
HETATM   40  H   UNK N   1      29.237  17.511   2.532  0.00  0.00     0.149 HD
HETATM   41  H   UNK N   1      28.523  17.765   4.031  0.00  0.00     0.149 HD
ENDBRANCH  38  39
ENDBRANCH  37  38
ENDBRANCH  36  37
ENDBRANCH  35  36
BRANCH  35  42
HETATM   42  C   UNK N   1      27.171  12.018   1.608  0.00  0.00     0.189 C 
BRANCH  42  43
HETATM   43  O   UNK N   1      27.667  11.044   0.741  0.00  0.00    -0.399 OA
HETATM   44  H   UNK N   1      27.601  11.144  -0.222  0.00  0.00     0.209 HD
ENDBRANCH  42  43
ENDBRANCH  35  42
ENDBRANCH  33  35
ENDBRANCH  13  31
BRANCH   9  45
HETATM   45  C   UNK N   1      31.741  14.397   4.502  0.00  0.00     0.137 C 
BRANCH  45  46
HETATM   46  C   UNK N   1      32.096  15.378   3.437  0.00  0.00     0.217 C 
HETATM   47  O   UNK N   1      31.420  16.375   3.246  0.00  0.00    -0.274 OA
HETATM   48  N   UNK N   1      33.157  15.124   2.648  0.00  0.00    -0.370 N 
HETATM   49  H   UNK N   1      34.041  14.750   2.870  0.00  0.00     0.159 HD
HETATM   50  H   UNK N   1      33.031  15.349   1.698  0.00  0.00     0.159 HD
ENDBRANCH  45  46
ENDBRANCH   9  45
BRANCH   5  51
HETATM   51  C   UNK N   1      33.418  16.511   6.574  0.00  0.00     0.013 C 
HETATM   52  C   UNK N   1      32.041  17.114   6.778  0.00  0.00     0.012 C 
BRANCH  51  53
HETATM   53  C   UNK N   1      34.409  17.601   6.973  0.00  0.00     0.002 C 
HETATM   54  C   UNK N   1      33.891  18.445   8.119  0.00  0.00     0.005 C 
ENDBRANCH  51  53
ENDBRANCH   5  51
BRANCH  22  55
HETATM   55  C   UNK N   1      32.757  10.093   9.914  0.00  0.00     0.075 C 
BRANCH  55  56
HETATM   56  C   UNK N   1      33.655   9.172  10.684  0.00  0.00    -0.028 A 
HETATM   57  C   UNK N   1      34.309   8.035  10.214  0.00  0.00     0.096 A 
HETATM   58  N   UNK N   1      35.128   7.553  11.186  0.00  0.00    -0.365 N 
HETATM   59  C   UNK N   1      34.983   8.381  12.238  0.00  0.00     0.042 A 
HETATM   60  H   UNK N   1      35.709   6.760  11.131  0.00  0.00     0.165 HD
HETATM   61  C   UNK N   1      34.087   9.369  11.964  0.00  0.00    -0.002 A 
HETATM   62  C   UNK N   1      35.646   8.316  13.461  0.00  0.00     0.030 A 
HETATM   63  C   UNK N   1      33.777  10.370  12.880  0.00  0.00     0.014 A 
HETATM   64  C   UNK N   1      34.418  10.331  14.128  0.00  0.00     0.001 A 
HETATM   65  C   UNK N   1      35.352   9.309  14.417  0.00  0.00     0.002 A 
ENDBRANCH  55  56
ENDBRANCH  22  55
BRANCH   1  66
HETATM   66  C   UNK N   1      36.235  13.908  11.354  0.00  0.00     0.013 C 
HETATM   67  C   UNK N   1      37.417  12.971  11.528  0.00  0.00     0.012 C 
BRANCH  66  68
HETATM   68  C   UNK N   1      35.235  13.601  12.460  0.00  0.00     0.002 C 
HETATM   69  C   UNK N   1      35.871  13.776  13.828  0.00  0.00     0.005 C 
ENDBRANCH  66  68
ENDBRANCH   1  66
TORSDOF 16
ENDMDL
MODEL 2
REMARK VINA RESULT:      -6.6      3.460      6.250
REMARK  16 active torsions:
REMARK  status: ('A' for Active; 'I' for Inactive)
REMARK    1  A    between atoms: C_2  and  C_3 
REMARK    2  A    between atoms: C_5  and  C_3 
REMARK    3  A    between atoms: C_9  and  C_55 
REMARK    4  A    between atoms: C_13  and  C_51 
REMARK    5  A    between atoms: C_17  and  C_40 
REMARK    6  A    between atoms: C_26  and  C_30 
REMARK    7  A    between atoms: C_30  and  C_31 
REMARK       I    between atoms: C_40  and  N_42 
REMARK    8  A    between atoms: C_44  and  N_42 
REMARK    9  A    between atoms: C_44  and  C_45 
REMARK   10  A    between atoms: C_44  and  C_49 
REMARK   11  A    between atoms: C_45  and  C_46 
REMARK   12  A    between atoms: C_46  and  C_47 
REMARK   13  A    between atoms: C_47  and  N_48 
REMARK   14  A    between atoms: C_49  and  O_50 
REMARK   15  A    between atoms: C_51  and  C_52 
REMARK       I    between atoms: C_52  and  N_54 
REMARK   16  A    between atoms: C_55  and  C_57 
ROOT
HETATM    1  C   UNK N   1      36.338   8.184  12.054  0.00  0.00     0.180 C 
HETATM    2  C   UNK N   1      35.748   9.366  12.753  0.00  0.00     0.241 C 
HETATM    3  O   UNK N   1      34.649   9.243  13.283  0.00  0.00    -0.271 OA
HETATM    4  N   UNK N   1      36.160  10.588  12.335  0.00  0.00    -0.346 N 
HETATM    5  C   UNK N   1      35.176  11.610  12.095  0.00  0.00     0.180 C 
HETATM    6  C   UNK N   1      34.556  11.405  10.728  0.00  0.00     0.241 C 
HETATM    7  O   UNK N   1      33.725  10.520  10.619  0.00  0.00    -0.271 OA
HETATM    8  N   UNK N   1      34.956  12.044   9.600  0.00  0.00    -0.346 N 
HETATM    9  C   UNK N   1      35.809  13.201   9.511  0.00  0.00     0.185 C 
HETATM   10  C   UNK N   1      36.163  13.402   8.058  0.00  0.00     0.241 C 
HETATM   11  O   UNK N   1      37.081  14.155   7.761  0.00  0.00    -0.271 OA
HETATM   12  N   UNK N   1      35.253  13.013   7.120  0.00  0.00    -0.346 N 
HETATM   13  C   UNK N   1      35.075  13.667   5.841  0.00  0.00     0.177 C 
HETATM   14  C   UNK N   1      36.260  13.448   4.900  0.00  0.00     0.045 C 
HETATM   15  C   UNK N   1      35.809  12.982   3.514  0.00  0.00     0.076 C 
HETATM   16  S   UNK N   1      34.861  11.417   3.575  0.00  0.00    -0.169 SA
HETATM   17  C   UNK N   1      36.295  10.361   3.979  0.00  0.00     0.083 C 
HETATM   18  C   UNK N   1      36.748  10.582   5.419  0.00  0.00     0.113 C 
HETATM   19  C   UNK N   1      35.773  10.083   6.435  0.00  0.00     0.219 C 
HETATM   20  O   UNK N   1      34.606  10.449   6.414  0.00  0.00    -0.274 OA
HETATM   21  N   UNK N   1      36.210   9.249   7.402  0.00  0.00    -0.347 N 
HETATM   22  C   UNK N   1      35.348   8.719   8.442  0.00  0.00     0.180 C 
HETATM   23  C   UNK N   1      36.180   8.312   9.627  0.00  0.00     0.241 C 
HETATM   24  O   UNK N   1      37.402   8.343   9.551  0.00  0.00    -0.271 OA
HETATM   25  N   UNK N   1      35.585   8.100  10.820  0.00  0.00    -0.346 N 
HETATM   26  H   UNK N   1      37.118  10.773  12.198  0.00  0.00     0.163 HD
HETATM   27  H   UNK N   1      34.626  11.677   8.747  0.00  0.00     0.163 HD
HETATM   28  H   UNK N   1      34.681  12.238   7.324  0.00  0.00     0.163 HD
HETATM   29  H   UNK N   1      37.160   8.987   7.401  0.00  0.00     0.163 HD
HETATM   30  H   UNK N   1      34.624   7.885  10.851  0.00  0.00     0.163 HD
ENDROOT
BRANCH  13  31
HETATM   31  C   UNK N   1      34.616  15.061   6.198  0.00  0.00     0.242 C 
HETATM   32  O   UNK N   1      35.411  15.969   5.955  0.00  0.00    -0.271 OA
HETATM   33  N   UNK N   1      33.358  15.385   6.624  0.00  0.00    -0.348 N 
HETATM   34  C   UNK N   1      32.375  14.383   6.970  0.00  0.00     0.153 C 
BRANCH  33  35
HETATM   35  C   UNK N   1      32.937  16.767   6.625  0.00  0.00     0.110 C 
BRANCH  35  36
HETATM   36  C   UNK N   1      32.039  17.265   5.506  0.00  0.00     0.029 C 
BRANCH  36  37
HETATM   37  C   UNK N   1      32.851  17.479   4.250  0.00  0.00     0.021 C 
BRANCH  37  38
HETATM   38  C   UNK N   1      32.396  16.516   3.170  0.00  0.00     0.111 C 
BRANCH  38  39
HETATM   39  N   UNK N   1      33.542  15.863   2.561  0.00  0.00    -0.430 N 
HETATM   40  H   UNK N   1      33.730  15.136   1.871  0.00  0.00     0.149 HD
HETATM   41  H   UNK N   1      34.413  16.242   2.933  0.00  0.00     0.149 HD
ENDBRANCH  38  39
ENDBRANCH  37  38
ENDBRANCH  36  37
ENDBRANCH  35  36
BRANCH  35  42
HETATM   42  C   UNK N   1      33.407  17.667   7.761  0.00  0.00     0.189 C 
BRANCH  42  43
HETATM   43  O   UNK N   1      34.630  18.257   7.440  0.00  0.00    -0.399 OA
HETATM   44  H   UNK N   1      34.677  19.054   6.889  0.00  0.00     0.209 HD
ENDBRANCH  42  43
ENDBRANCH  35  42
ENDBRANCH  33  35
ENDBRANCH  13  31
BRANCH   9  45
HETATM   45  C   UNK N   1      34.874  14.376   9.814  0.00  0.00     0.137 C 
BRANCH  45  46
HETATM   46  C   UNK N   1      35.486  15.641  10.314  0.00  0.00     0.217 C 
HETATM   47  O   UNK N   1      34.855  16.684  10.336  0.00  0.00    -0.274 OA
HETATM   48  N   UNK N   1      36.776  15.627  10.703  0.00  0.00    -0.370 N 
HETATM   49  H   UNK N   1      37.281  14.952  11.211  0.00  0.00     0.159 HD
HETATM   50  H   UNK N   1      37.297  16.419  10.437  0.00  0.00     0.159 HD
ENDBRANCH  45  46
ENDBRANCH   9  45
BRANCH   5  51
HETATM   51  C   UNK N   1      35.231  12.931  12.873  0.00  0.00     0.013 C 
HETATM   52  C   UNK N   1      34.537  12.724  14.205  0.00  0.00     0.012 C 
BRANCH  51  53
HETATM   53  C   UNK N   1      36.669  13.313  13.212  0.00  0.00     0.002 C 
HETATM   54  C   UNK N   1      36.778  13.953  14.580  0.00  0.00     0.005 C 
ENDBRANCH  51  53
ENDBRANCH   5  51
BRANCH  22  55
HETATM   55  C   UNK N   1      34.327   7.663   7.953  0.00  0.00     0.075 C 
BRANCH  55  56
HETATM   56  C   UNK N   1      32.931   7.975   8.403  0.00  0.00    -0.028 A 
HETATM   57  C   UNK N   1      32.104   9.003   7.957  0.00  0.00     0.096 A 
HETATM   58  N   UNK N   1      30.873   8.867   8.516  0.00  0.00    -0.365 N 
HETATM   59  C   UNK N   1      30.939   7.771   9.296  0.00  0.00     0.042 A 
HETATM   60  H   UNK N   1      30.093   9.451   8.380  0.00  0.00     0.165 HD
HETATM   61  C   UNK N   1      32.181   7.213   9.253  0.00  0.00    -0.002 A 
HETATM   62  C   UNK N   1      29.913   7.208  10.049  0.00  0.00     0.030 A 
HETATM   63  C   UNK N   1      32.503   6.055   9.955  0.00  0.00     0.014 A 
HETATM   64  C   UNK N   1      31.495   5.465  10.733  0.00  0.00     0.001 A 
HETATM   65  C   UNK N   1      30.203   6.037  10.779  0.00  0.00     0.002 A 
ENDBRANCH  55  56
ENDBRANCH  22  55
BRANCH   1  66
HETATM   66  C   UNK N   1      36.293   6.895  12.879  0.00  0.00     0.013 C 
HETATM   67  C   UNK N   1      37.594   6.142  12.668  0.00  0.00     0.012 C 
BRANCH  66  68
HETATM   68  C   UNK N   1      35.155   5.983  12.442  0.00  0.00     0.002 C 
HETATM   69  C   UNK N   1      35.645   4.559  12.252  0.00  0.00     0.005 C 
ENDBRANCH  66  68
ENDBRANCH   1  66
TORSDOF 16
ENDMDL
MODEL 3
REMARK VINA RESULT:      -6.5      4.100     11.198
REMARK  16 active torsions:
REMARK  status: ('A' for Active; 'I' for Inactive)
REMARK    1  A    between atoms: C_2  and  C_3 
REMARK    2  A    between atoms: C_5  and  C_3 
REMARK    3  A    between atoms: C_9  and  C_55 
REMARK    4  A    between atoms: C_13  and  C_51 
REMARK    5  A    between atoms: C_17  and  C_40 
REMARK    6  A    between atoms: C_26  and  C_30 
REMARK    7  A    between atoms: C_30  and  C_31 
REMARK       I    between atoms: C_40  and  N_42 
REMARK    8  A    between atoms: C_44  and  N_42 
REMARK    9  A    between atoms: C_44  and  C_45 
REMARK   10  A    between atoms: C_44  and  C_49 
REMARK   11  A    between atoms: C_45  and  C_46 
REMARK   12  A    between atoms: C_46  and  C_47 
REMARK   13  A    between atoms: C_47  and  N_48 
REMARK   14  A    between atoms: C_49  and  O_50 
REMARK   15  A    between atoms: C_51  and  C_52 
REMARK       I    between atoms: C_52  and  N_54 
REMARK   16  A    between atoms: C_55  and  C_57 
ROOT
HETATM    1  C   UNK N   1      24.872  13.978   1.994  0.00  0.00     0.180 C 
HETATM    2  C   UNK N   1      25.854  12.853   1.910  0.00  0.00     0.241 C 
HETATM    3  O   UNK N   1      25.501  11.740   2.284  0.00  0.00    -0.271 OA
HETATM    4  N   UNK N   1      27.166  13.189   1.942  0.00  0.00    -0.346 N 
HETATM    5  C   UNK N   1      28.051  12.455   2.808  0.00  0.00     0.180 C 
HETATM    6  C   UNK N   1      27.931  12.986   4.221  0.00  0.00     0.241 C 
HETATM    7  O   UNK N   1      26.953  12.646   4.864  0.00  0.00    -0.271 OA
HETATM    8  N   UNK N   1      28.762  13.910   4.768  0.00  0.00    -0.346 N 
HETATM    9  C   UNK N   1      30.035  14.346   4.257  0.00  0.00     0.185 C 
HETATM   10  C   UNK N   1      30.470  15.544   5.064  0.00  0.00     0.241 C 
HETATM   11  O   UNK N   1      31.384  16.246   4.654  0.00  0.00    -0.271 OA
HETATM   12  N   UNK N   1      30.072  15.615   6.367  0.00  0.00    -0.346 N 
HETATM   13  C   UNK N   1      30.849  16.228   7.422  0.00  0.00     0.177 C 
HETATM   14  C   UNK N   1      30.932  17.748   7.281  0.00  0.00     0.045 C 
HETATM   15  C   UNK N   1      30.584  18.463   8.589  0.00  0.00     0.076 C 
HETATM   16  S   UNK N   1      28.899  18.058   9.181  0.00  0.00    -0.169 SA
HETATM   17  C   UNK N   1      28.027  19.005   7.885  0.00  0.00     0.083 C 
HETATM   18  C   UNK N   1      28.129  18.304   6.534  0.00  0.00     0.113 C 
HETATM   19  C   UNK N   1      27.364  17.022   6.468  0.00  0.00     0.219 C 
HETATM   20  O   UNK N   1      27.551  16.139   7.294  0.00  0.00    -0.274 OA
HETATM   21  N   UNK N   1      26.489  16.838   5.457  0.00  0.00    -0.347 N 
HETATM   22  C   UNK N   1      25.708  15.626   5.295  0.00  0.00     0.180 C 
HETATM   23  C   UNK N   1      25.282  15.489   3.858  0.00  0.00     0.241 C 
HETATM   24  O   UNK N   1      25.506  16.399   3.069  0.00  0.00    -0.271 OA
HETATM   25  N   UNK N   1      24.834  14.299   3.405  0.00  0.00    -0.346 N 
HETATM   26  H   UNK N   1      27.509  13.923   1.382  0.00  0.00     0.163 HD
HETATM   27  H   UNK N   1      28.461  14.328   5.608  0.00  0.00     0.163 HD
HETATM   28  H   UNK N   1      29.200  15.223   6.605  0.00  0.00     0.163 HD
HETATM   29  H   UNK N   1      26.375  17.562   4.799  0.00  0.00     0.163 HD
HETATM   30  H   UNK N   1      24.475  13.642   4.044  0.00  0.00     0.163 HD
ENDROOT
BRANCH  13  31
HETATM   31  C   UNK N   1      32.102  15.388   7.498  0.00  0.00     0.242 C 
HETATM   32  O   UNK N   1      31.931  14.172   7.589  0.00  0.00    -0.271 OA
HETATM   33  N   UNK N   1      33.373  15.863   7.329  0.00  0.00    -0.348 N 
HETATM   34  C   UNK N   1      33.668  17.276   7.252  0.00  0.00     0.153 C 
BRANCH  33  35
HETATM   35  C   UNK N   1      34.457  14.937   7.100  0.00  0.00     0.110 C 
BRANCH  35  36
HETATM   36  C   UNK N   1      35.433  14.651   8.228  0.00  0.00     0.029 C 
BRANCH  36  37
HETATM   37  C   UNK N   1      34.789  13.742   9.249  0.00  0.00     0.021 C 
BRANCH  37  38
HETATM   38  C   UNK N   1      34.702  14.449  10.589  0.00  0.00     0.111 C 
BRANCH  38  39
HETATM   39  N   UNK N   1      33.364  14.976  10.794  0.00  0.00    -0.430 N 
HETATM   40  H   UNK N   1      32.816  15.400  11.543  0.00  0.00     0.149 HD
HETATM   41  H   UNK N   1      32.810  14.900   9.940  0.00  0.00     0.149 HD
ENDBRANCH  38  39
ENDBRANCH  37  38
ENDBRANCH  36  37
ENDBRANCH  35  36
BRANCH  35  42
HETATM   42  C   UNK N   1      34.568  14.273   5.733  0.00  0.00     0.189 C 
BRANCH  42  43
HETATM   43  O   UNK N   1      34.297  15.196   4.722  0.00  0.00    -0.399 OA
HETATM   44  H   UNK N   1      33.387  15.431   4.483  0.00  0.00     0.209 HD
ENDBRANCH  42  43
ENDBRANCH  35  42
ENDBRANCH  33  35
ENDBRANCH  13  31
BRANCH   9  45
HETATM   45  C   UNK N   1      31.009  13.248   4.698  0.00  0.00     0.137 C 
BRANCH  45  46
HETATM   46  C   UNK N   1      32.087  12.853   3.747  0.00  0.00     0.217 C 
HETATM   47  O   UNK N   1      32.688  11.799   3.876  0.00  0.00    -0.274 OA
HETATM   48  N   UNK N   1      32.426  13.704   2.760  0.00  0.00    -0.370 N 
HETATM   49  H   UNK N   1      31.861  14.273   2.188  0.00  0.00     0.159 HD
HETATM   50  H   UNK N   1      33.392  13.766   2.580  0.00  0.00     0.159 HD
ENDBRANCH  45  46
ENDBRANCH   9  45
BRANCH   5  51
HETATM   51  C   UNK N   1      29.256  11.707   2.223  0.00  0.00     0.013 C 
HETATM   52  C   UNK N   1      29.386  10.381   2.948  0.00  0.00     0.012 C 
BRANCH  51  53
HETATM   53  C   UNK N   1      29.028  11.354   0.756  0.00  0.00     0.002 C 
HETATM   54  C   UNK N   1      30.023  12.045  -0.154  0.00  0.00     0.005 C 
ENDBRANCH  51  53
ENDBRANCH   5  51
BRANCH  22  55
HETATM   55  C   UNK N   1      24.581  15.444   6.342  0.00  0.00     0.075 C 
BRANCH  55  56
HETATM   56  C   UNK N   1      23.275  16.012   5.872  0.00  0.00    -0.028 A 
HETATM   57  C   UNK N   1      22.974  17.347   5.615  0.00  0.00     0.096 A 
HETATM   58  N   UNK N   1      21.726  17.434   5.083  0.00  0.00    -0.365 N 
HETATM   59  C   UNK N   1      21.265  16.170   5.012  0.00  0.00     0.042 A 
HETATM   60  H   UNK N   1      21.256  18.253   4.807  0.00  0.00     0.165 HD
HETATM   61  C   UNK N   1      22.183  15.286   5.492  0.00  0.00    -0.002 A 
HETATM   62  C   UNK N   1      20.041  15.746   4.502  0.00  0.00     0.030 A 
HETATM   63  C   UNK N   1      21.959  13.912   5.507  0.00  0.00     0.014 A 
HETATM   64  C   UNK N   1      20.731  13.448   5.010  0.00  0.00     0.001 A 
HETATM   65  C   UNK N   1      19.776  14.361   4.506  0.00  0.00     0.002 A 
ENDBRANCH  55  56
ENDBRANCH  22  55
BRANCH   1  66
HETATM   66  C   UNK N   1      23.496  13.638   1.413  0.00  0.00     0.013 C 
HETATM   67  C   UNK N   1      23.645  13.416  -0.082  0.00  0.00     0.012 C 
BRANCH  66  68
HETATM   68  C   UNK N   1      22.502  14.773   1.615  0.00  0.00     0.002 C 
HETATM   69  C   UNK N   1      21.144  14.412   1.039  0.00  0.00     0.005 C 
ENDBRANCH  66  68
ENDBRANCH   1  66
TORSDOF 16
ENDMDL
MODEL 4
REMARK VINA RESULT:      -6.5      4.839     11.155
REMARK  16 active torsions:
REMARK  status: ('A' for Active; 'I' for Inactive)
REMARK    1  A    between atoms: C_2  and  C_3 
REMARK    2  A    between atoms: C_5  and  C_3 
REMARK    3  A    between atoms: C_9  and  C_55 
REMARK    4  A    between atoms: C_13  and  C_51 
REMARK    5  A    between atoms: C_17  and  C_40 
REMARK    6  A    between atoms: C_26  and  C_30 
REMARK    7  A    between atoms: C_30  and  C_31 
REMARK       I    between atoms: C_40  and  N_42 
REMARK    8  A    between atoms: C_44  and  N_42 
REMARK    9  A    between atoms: C_44  and  C_45 
REMARK   10  A    between atoms: C_44  and  C_49 
REMARK   11  A    between atoms: C_45  and  C_46 
REMARK   12  A    between atoms: C_46  and  C_47 
REMARK   13  A    between atoms: C_47  and  N_48 
REMARK   14  A    between atoms: C_49  and  O_50 
REMARK   15  A    between atoms: C_51  and  C_52 
REMARK       I    between atoms: C_52  and  N_54 
REMARK   16  A    between atoms: C_55  and  C_57 
ROOT
HETATM    1  C   UNK N   1      22.970  17.166   4.604  0.00  0.00     0.180 C 
HETATM    2  C   UNK N   1      24.050  18.185   4.778  0.00  0.00     0.241 C 
HETATM    3  O   UNK N   1      24.070  19.150   4.022  0.00  0.00    -0.271 OA
HETATM    4  N   UNK N   1      25.198  17.760   5.358  0.00  0.00    -0.346 N 
HETATM    5  C   UNK N   1      26.456  18.121   4.758  0.00  0.00     0.180 C 
HETATM    6  C   UNK N   1      26.751  17.189   3.601  0.00  0.00     0.241 C 
HETATM    7  O   UNK N   1      26.150  17.385   2.559  0.00  0.00    -0.271 OA
HETATM    8  N   UNK N   1      27.533  16.083   3.687  0.00  0.00    -0.346 N 
HETATM    9  C   UNK N   1      28.432  15.733   4.755  0.00  0.00     0.185 C 
HETATM   10  C   UNK N   1      28.893  14.315   4.524  0.00  0.00     0.241 C 
HETATM   11  O   UNK N   1      29.450  13.709   5.429  0.00  0.00    -0.271 OA
HETATM   12  N   UNK N   1      28.981  13.874   3.236  0.00  0.00    -0.346 N 
HETATM   13  C   UNK N   1      29.953  12.908   2.773  0.00  0.00     0.177 C 
HETATM   14  C   UNK N   1      29.693  11.505   3.321  0.00  0.00     0.045 C 
HETATM   15  C   UNK N   1      29.707  10.448   2.214  0.00  0.00     0.076 C 
HETATM   16  S   UNK N   1      28.453  10.773   0.919  0.00  0.00    -0.169 SA
HETATM   17  C   UNK N   1      27.015  10.341   1.958  0.00  0.00     0.083 C 
HETATM   18  C   UNK N   1      26.757  11.416   3.009  0.00  0.00     0.113 C 
HETATM   19  C   UNK N   1      26.275  12.709   2.434  0.00  0.00     0.219 C 
HETATM   20  O   UNK N   1      26.907  13.276   1.554  0.00  0.00    -0.274 OA
HETATM   21  N   UNK N   1      25.147  13.262   2.930  0.00  0.00    -0.347 N 
HETATM   22  C   UNK N   1      24.603  14.518   2.451  0.00  0.00     0.180 C 
HETATM   23  C   UNK N   1      23.727  15.125   3.513  0.00  0.00     0.241 C 
HETATM   24  O   UNK N   1      23.478  14.491   4.530  0.00  0.00    -0.271 OA
HETATM   25  N   UNK N   1      23.378  16.427   3.428  0.00  0.00    -0.346 N 
HETATM   26  H   UNK N   1      25.173  17.212   6.176  0.00  0.00     0.163 HD
HETATM   27  H   UNK N   1      27.478  15.448   2.935  0.00  0.00     0.163 HD
HETATM   28  H   UNK N   1      28.343  14.236   2.580  0.00  0.00     0.163 HD
HETATM   29  H   UNK N   1      24.672  12.788   3.651  0.00  0.00     0.163 HD
HETATM   30  H   UNK N   1      23.403  16.879   2.554  0.00  0.00     0.163 HD
ENDROOT
BRANCH  13  31
HETATM   31  C   UNK N   1      31.285  13.588   2.988  0.00  0.00     0.242 C 
HETATM   32  O   UNK N   1      31.385  14.731   2.542  0.00  0.00    -0.271 OA
HETATM   33  N   UNK N   1      32.304  13.088   3.750  0.00  0.00    -0.348 N 
HETATM   34  C   UNK N   1      32.288  11.743   4.279  0.00  0.00     0.153 C 
BRANCH  33  35
HETATM   35  C   UNK N   1      33.390  13.953   4.148  0.00  0.00     0.110 C 
BRANCH  35  36
HETATM   36  C   UNK N   1      33.328  14.638   5.502  0.00  0.00     0.029 C 
BRANCH  36  37
HETATM   37  C   UNK N   1      34.471  15.618   5.636  0.00  0.00     0.021 C 
BRANCH  37  38
HETATM   38  C   UNK N   1      34.545  16.133   7.061  0.00  0.00     0.111 C 
BRANCH  38  39
HETATM   39  N   UNK N   1      34.086  17.509   7.124  0.00  0.00    -0.430 N 
HETATM   40  H   UNK N   1      33.303  18.071   6.785  0.00  0.00     0.149 HD
HETATM   41  H   UNK N   1      34.735  18.083   7.663  0.00  0.00     0.149 HD
ENDBRANCH  38  39
ENDBRANCH  37  38
ENDBRANCH  36  37
ENDBRANCH  35  36
BRANCH  35  42
HETATM   42  C   UNK N   1      34.562  14.132   3.191  0.00  0.00     0.189 C 
BRANCH  42  43
HETATM   43  O   UNK N   1      34.191  14.937   2.114  0.00  0.00    -0.399 OA
HETATM   44  H   UNK N   1      33.793  14.558   1.314  0.00  0.00     0.209 HD
ENDBRANCH  42  43
ENDBRANCH  35  42
ENDBRANCH  33  35
ENDBRANCH  13  31
BRANCH   9  45
HETATM   45  C   UNK N   1      29.687  16.565   4.471  0.00  0.00     0.137 C 
BRANCH  45  46
HETATM   46  C   UNK N   1      30.552  16.935   5.628  0.00  0.00     0.217 C 
HETATM   47  O   UNK N   1      31.589  17.558   5.468  0.00  0.00    -0.274 OA
HETATM   48  N   UNK N   1      30.194  16.530   6.861  0.00  0.00    -0.370 N 
HETATM   49  H   UNK N   1      29.307  16.490   7.286  0.00  0.00     0.159 HD
HETATM   50  H   UNK N   1      30.939  16.225   7.429  0.00  0.00     0.159 HD
ENDBRANCH  45  46
ENDBRANCH   9  45
BRANCH   5  51
HETATM   51  C   UNK N   1      27.490  18.923   5.559  0.00  0.00     0.013 C 
HETATM   52  C   UNK N   1      28.267  19.793   4.590  0.00  0.00     0.012 C 
BRANCH  51  53
HETATM   53  C   UNK N   1      26.811  19.888   6.527  0.00  0.00     0.002 C 
HETATM   54  C   UNK N   1      26.965  21.330   6.089  0.00  0.00     0.005 C 
ENDBRANCH  51  53
ENDBRANCH   5  51
BRANCH  22  55
HETATM   55  C   UNK N   1      23.981  14.451   1.034  0.00  0.00     0.075 C 
BRANCH  55  56
HETATM   56  C   UNK N   1      22.860  13.458   0.957  0.00  0.00    -0.028 A 
HETATM   57  C   UNK N   1      22.946  12.071   1.044  0.00  0.00     0.096 A 
HETATM   58  N   UNK N   1      21.694  11.541   1.058  0.00  0.00    -0.365 N 
HETATM   59  C   UNK N   1      20.848  12.587   0.982  0.00  0.00     0.042 A 
HETATM   60  H   UNK N   1      21.455  10.588   1.113  0.00  0.00     0.165 HD
HETATM   61  C   UNK N   1      21.529  13.764   0.910  0.00  0.00    -0.002 A 
HETATM   62  C   UNK N   1      19.457  12.550   0.998  0.00  0.00     0.030 A 
HETATM   63  C   UNK N   1      20.885  14.996   0.848  0.00  0.00     0.014 A 
HETATM   64  C   UNK N   1      19.482  14.997   0.851  0.00  0.00     0.001 A 
HETATM   65  C   UNK N   1      18.769  13.778   0.929  0.00  0.00     0.002 A 
ENDBRANCH  55  56
ENDBRANCH  22  55
BRANCH   1  66
HETATM   66  C   UNK N   1      21.568  17.770   4.482  0.00  0.00     0.013 C 
HETATM   67  C   UNK N   1      20.579  16.830   5.150  0.00  0.00     0.012 C 
BRANCH  66  68
HETATM   68  C   UNK N   1      21.145  17.928   3.028  0.00  0.00     0.002 C 
HETATM   69  C   UNK N   1      19.639  18.084   2.916  0.00  0.00     0.005 C 
ENDBRANCH  66  68
ENDBRANCH   1  66
TORSDOF 16
ENDMDL
MODEL 5
REMARK VINA RESULT:      -6.2      2.681      9.024
REMARK  16 active torsions:
REMARK  status: ('A' for Active; 'I' for Inactive)
REMARK    1  A    between atoms: C_2  and  C_3 
REMARK    2  A    between atoms: C_5  and  C_3 
REMARK    3  A    between atoms: C_9  and  C_55 
REMARK    4  A    between atoms: C_13  and  C_51 
REMARK    5  A    between atoms: C_17  and  C_40 
REMARK    6  A    between atoms: C_26  and  C_30 
REMARK    7  A    between atoms: C_30  and  C_31 
REMARK       I    between atoms: C_40  and  N_42 
REMARK    8  A    between atoms: C_44  and  N_42 
REMARK    9  A    between atoms: C_44  and  C_45 
REMARK   10  A    between atoms: C_44  and  C_49 
REMARK   11  A    between atoms: C_45  and  C_46 
REMARK   12  A    between atoms: C_46  and  C_47 
REMARK   13  A    between atoms: C_47  and  N_48 
REMARK   14  A    between atoms: C_49  and  O_50 
REMARK   15  A    between atoms: C_51  and  C_52 
REMARK       I    between atoms: C_52  and  N_54 
REMARK   16  A    between atoms: C_55  and  C_57 
ROOT
HETATM    1  C   UNK N   1      28.104  16.364   5.071  0.00  0.00     0.180 C 
HETATM    2  C   UNK N   1      29.012  17.263   5.846  0.00  0.00     0.241 C 
HETATM    3  O   UNK N   1      29.509  18.227   5.274  0.00  0.00    -0.271 OA
HETATM    4  N   UNK N   1      29.644  16.714   6.913  0.00  0.00    -0.346 N 
HETATM    5  C   UNK N   1      31.054  16.947   7.081  0.00  0.00     0.180 C 
HETATM    6  C   UNK N   1      31.833  15.999   6.194  0.00  0.00     0.241 C 
HETATM    7  O   UNK N   1      31.889  16.266   5.005  0.00  0.00    -0.271 OA
HETATM    8  N   UNK N   1      32.356  14.816   6.605  0.00  0.00    -0.346 N 
HETATM    9  C   UNK N   1      32.526  14.365   7.961  0.00  0.00     0.185 C 
HETATM   10  C   UNK N   1      32.918  12.909   7.918  0.00  0.00     0.241 C 
HETATM   11  O   UNK N   1      32.862  12.240   8.940  0.00  0.00    -0.271 OA
HETATM   12  N   UNK N   1      33.631  12.472   6.840  0.00  0.00    -0.346 N 
HETATM   13  C   UNK N   1      34.616  11.413   6.894  0.00  0.00     0.177 C 
HETATM   14  C   UNK N   1      33.988  10.040   7.136  0.00  0.00     0.045 C 
HETATM   15  C   UNK N   1      34.493   8.997   6.136  0.00  0.00     0.076 C 
HETATM   16  S   UNK N   1      34.140   9.463   4.401  0.00  0.00    -0.169 SA
HETATM   17  C   UNK N   1      32.340   9.176   4.507  0.00  0.00     0.083 C 
HETATM   18  C   UNK N   1      31.660  10.263   5.333  0.00  0.00     0.113 C 
HETATM   19  C   UNK N   1      31.664  11.604   4.673  0.00  0.00     0.219 C 
HETATM   20  O   UNK N   1      32.710  12.109   4.289  0.00  0.00    -0.274 OA
HETATM   21  N   UNK N   1      30.496  12.268   4.540  0.00  0.00    -0.347 N 
HETATM   22  C   UNK N   1      30.394  13.578   3.927  0.00  0.00     0.180 C 
HETATM   23  C   UNK N   1      29.145  14.264   4.410  0.00  0.00     0.241 C 
HETATM   24  O   UNK N   1      28.345  13.651   5.106  0.00  0.00    -0.271 OA
HETATM   25  N   UNK N   1      29.005  15.596   4.238  0.00  0.00    -0.346 N 
HETATM   26  H   UNK N   1      29.146  16.166   7.561  0.00  0.00     0.163 HD
HETATM   27  H   UNK N   1      32.651  14.198   5.897  0.00  0.00     0.163 HD
HETATM   28  H   UNK N   1      33.467  12.904   5.971  0.00  0.00     0.163 HD
HETATM   29  H   UNK N   1      29.674  11.840   4.875  0.00  0.00     0.163 HD
HETATM   30  H   UNK N   1      29.523  16.051   3.535  0.00  0.00     0.163 HD
ENDROOT
BRANCH  13  31
HETATM   31  C   UNK N   1      35.688  11.948   7.814  0.00  0.00     0.242 C 
HETATM   32  O   UNK N   1      35.850  11.333   8.868  0.00  0.00    -0.271 OA
HETATM   33  N   UNK N   1      36.561  12.951   7.497  0.00  0.00    -0.348 N 
HETATM   34  C   UNK N   1      36.421  13.750   6.301  0.00  0.00     0.153 C 
BRANCH  33  35
HETATM   35  C   UNK N   1      37.736  13.160   8.311  0.00  0.00     0.110 C 
BRANCH  35  36
HETATM   36  C   UNK N   1      37.647  14.091   9.507  0.00  0.00     0.029 C 
BRANCH  36  37
HETATM   37  C   UNK N   1      37.868  13.313  10.784  0.00  0.00     0.021 C 
BRANCH  37  38
HETATM   38  C   UNK N   1      36.714  13.552  11.740  0.00  0.00     0.111 C 
BRANCH  38  39
HETATM   39  N   UNK N   1      35.627  12.632  11.458  0.00  0.00    -0.430 N 
HETATM   40  H   UNK N   1      34.887  12.144  11.964  0.00  0.00     0.149 HD
HETATM   41  H   UNK N   1      35.593  12.406  10.463  0.00  0.00     0.149 HD
ENDBRANCH  38  39
ENDBRANCH  37  38
ENDBRANCH  36  37
ENDBRANCH  35  36
BRANCH  35  42
HETATM   42  C   UNK N   1      39.016  12.423   7.939  0.00  0.00     0.189 C 
BRANCH  42  43
HETATM   43  O   UNK N   1      38.909  11.070   8.260  0.00  0.00    -0.399 OA
HETATM   44  H   UNK N   1      38.138  10.724   8.737  0.00  0.00     0.209 HD
ENDBRANCH  42  43
ENDBRANCH  35  42
ENDBRANCH  33  35
ENDBRANCH  13  31
BRANCH   9  45
HETATM   45  C   UNK N   1      33.809  15.063   8.427  0.00  0.00     0.137 C 
BRANCH  45  46
HETATM   46  C   UNK N   1      33.919  15.424   9.870  0.00  0.00     0.217 C 
HETATM   47  O   UNK N   1      34.836  16.115  10.280  0.00  0.00    -0.274 OA
HETATM   48  N   UNK N   1      33.009  14.933  10.733  0.00  0.00    -0.370 N 
HETATM   49  H   UNK N   1      32.036  14.817  10.635  0.00  0.00     0.159 HD
HETATM   50  H   UNK N   1      33.374  14.644  11.600  0.00  0.00     0.159 HD
ENDBRANCH  45  46
ENDBRANCH   9  45
BRANCH   5  51
HETATM   51  C   UNK N   1      31.576  17.629   8.352  0.00  0.00     0.013 C 
HETATM   52  C   UNK N   1      32.904  18.285   8.026  0.00  0.00     0.012 C 
BRANCH  51  53
HETATM   53  C   UNK N   1      30.653  18.763   8.790  0.00  0.00     0.002 C 
HETATM   54  C   UNK N   1      29.682  18.320   9.865  0.00  0.00     0.005 C 
ENDBRANCH  51  53
ENDBRANCH   5  51
BRANCH  22  55
HETATM   55  C   UNK N   1      30.606  13.588   2.393  0.00  0.00     0.075 C 
BRANCH  55  56
HETATM   56  C   UNK N   1      29.807  12.522   1.705  0.00  0.00    -0.028 A 
HETATM   57  C   UNK N   1      28.420  12.405   1.647  0.00  0.00     0.096 A 
HETATM   58  N   UNK N   1      28.089  11.378   0.820  0.00  0.00    -0.365 N 
HETATM   59  C   UNK N   1      29.254  10.870   0.374  0.00  0.00     0.042 A 
HETATM   60  H   UNK N   1      27.182  11.069   0.594  0.00  0.00     0.165 HD
HETATM   61  C   UNK N   1      30.315  11.541   0.903  0.00  0.00    -0.002 A 
HETATM   62  C   UNK N   1      29.429   9.823  -0.526  0.00  0.00     0.030 A 
HETATM   63  C   UNK N   1      31.632  11.226   0.581  0.00  0.00     0.014 A 
HETATM   64  C   UNK N   1      31.847  10.168  -0.316  0.00  0.00     0.001 A 
HETATM   65  C   UNK N   1      30.749   9.471  -0.871  0.00  0.00     0.002 A 
ENDBRANCH  55  56
ENDBRANCH  22  55
BRANCH   1  66
HETATM   66  C   UNK N   1      27.032  17.113   4.272  0.00  0.00     0.013 C 
HETATM   67  C   UNK N   1      25.797  17.260   5.144  0.00  0.00     0.012 C 
BRANCH  66  68
HETATM   68  C   UNK N   1      26.625  16.350   3.020  0.00  0.00     0.002 C 
HETATM   69  C   UNK N   1      25.460  15.420   3.307  0.00  0.00     0.005 C 
ENDBRANCH  66  68
ENDBRANCH   1  66
TORSDOF 16
ENDMDL
MODEL 6
REMARK VINA RESULT:      -6.2      5.941     11.403
REMARK  16 active torsions:
REMARK  status: ('A' for Active; 'I' for Inactive)
REMARK    1  A    between atoms: C_2  and  C_3 
REMARK    2  A    between atoms: C_5  and  C_3 
REMARK    3  A    between atoms: C_9  and  C_55 
REMARK    4  A    between atoms: C_13  and  C_51 
REMARK    5  A    between atoms: C_17  and  C_40 
REMARK    6  A    between atoms: C_26  and  C_30 
REMARK    7  A    between atoms: C_30  and  C_31 
REMARK       I    between atoms: C_40  and  N_42 
REMARK    8  A    between atoms: C_44  and  N_42 
REMARK    9  A    between atoms: C_44  and  C_45 
REMARK   10  A    between atoms: C_44  and  C_49 
REMARK   11  A    between atoms: C_45  and  C_46 
REMARK   12  A    between atoms: C_46  and  C_47 
REMARK   13  A    between atoms: C_47  and  N_48 
REMARK   14  A    between atoms: C_49  and  O_50 
REMARK   15  A    between atoms: C_51  and  C_52 
REMARK       I    between atoms: C_52  and  N_54 
REMARK   16  A    between atoms: C_55  and  C_57 
ROOT
HETATM    1  C   UNK N   1      23.168  17.291   4.734  0.00  0.00     0.180 C 
HETATM    2  C   UNK N   1      24.552  17.846   4.831  0.00  0.00     0.241 C 
HETATM    3  O   UNK N   1      24.863  18.774   4.092  0.00  0.00    -0.271 OA
HETATM    4  N   UNK N   1      25.510  17.011   5.302  0.00  0.00    -0.346 N 
HETATM    5  C   UNK N   1      26.765  16.926   4.601  0.00  0.00     0.180 C 
HETATM    6  C   UNK N   1      26.617  16.005   3.408  0.00  0.00     0.241 C 
HETATM    7  O   UNK N   1      26.050  16.451   2.426  0.00  0.00    -0.271 OA
HETATM    8  N   UNK N   1      26.950  14.690   3.408  0.00  0.00    -0.346 N 
HETATM    9  C   UNK N   1      27.741  13.992   4.388  0.00  0.00     0.185 C 
HETATM   10  C   UNK N   1      27.641  12.516   4.095  0.00  0.00     0.241 C 
HETATM   11  O   UNK N   1      28.008  11.708   4.938  0.00  0.00    -0.271 OA
HETATM   12  N   UNK N   1      27.466  12.132   2.797  0.00  0.00    -0.346 N 
HETATM   13  C   UNK N   1      27.987  10.905   2.236  0.00  0.00     0.177 C 
HETATM   14  C   UNK N   1      27.280   9.664   2.781  0.00  0.00     0.045 C 
HETATM   15  C   UNK N   1      26.829   8.725   1.660  0.00  0.00     0.076 C 
HETATM   16  S   UNK N   1      25.684   9.537   0.484  0.00  0.00    -0.169 SA
HETATM   17  C   UNK N   1      24.269   9.601   1.637  0.00  0.00     0.083 C 
HETATM   18  C   UNK N   1      24.496  10.647   2.723  0.00  0.00     0.113 C 
HETATM   19  C   UNK N   1      24.470  12.052   2.214  0.00  0.00     0.219 C 
HETATM   20  O   UNK N   1      25.197  12.396   1.291  0.00  0.00    -0.274 OA
HETATM   21  N   UNK N   1      23.659  12.948   2.814  0.00  0.00    -0.347 N 
HETATM   22  C   UNK N   1      23.570  14.337   2.405  0.00  0.00     0.180 C 
HETATM   23  C   UNK N   1      23.054  15.167   3.549  0.00  0.00     0.241 C 
HETATM   24  O   UNK N   1      22.670  14.617   4.573  0.00  0.00    -0.271 OA
HETATM   25  N   UNK N   1      23.193  16.510   3.516  0.00  0.00    -0.346 N 
HETATM   26  H   UNK N   1      25.351  16.472   6.110  0.00  0.00     0.163 HD
HETATM   27  H   UNK N   1      26.615  14.153   2.653  0.00  0.00     0.163 HD
HETATM   28  H   UNK N   1      26.954  12.729   2.204  0.00  0.00     0.163 HD
HETATM   29  H   UNK N   1      23.100  12.643   3.566  0.00  0.00     0.163 HD
HETATM   30  H   UNK N   1      23.313  16.963   2.650  0.00  0.00     0.163 HD
ENDROOT
BRANCH  13  31
HETATM   31  C   UNK N   1      29.487  11.052   2.346  0.00  0.00     0.242 C 
HETATM   32  O   UNK N   1      30.033  10.372   3.213  0.00  0.00    -0.271 OA
HETATM   33  N   UNK N   1      30.268  11.760   1.475  0.00  0.00    -0.348 N 
HETATM   34  C   UNK N   1      29.710  12.616   0.453  0.00  0.00     0.153 C 
BRANCH  33  35
HETATM   35  C   UNK N   1      31.700  11.571   1.484  0.00  0.00     0.110 C 
BRANCH  35  36
HETATM   36  C   UNK N   1      32.315  10.554   0.539  0.00  0.00     0.029 C 
BRANCH  36  37
HETATM   37  C   UNK N   1      33.768  10.892   0.292  0.00  0.00     0.021 C 
BRANCH  37  38
HETATM   38  C   UNK N   1      33.905  11.665  -1.006  0.00  0.00     0.111 C 
BRANCH  38  39
HETATM   39  N   UNK N   1      34.188  13.063  -0.733  0.00  0.00    -0.430 N 
HETATM   40  H   UNK N   1      33.679  13.943  -0.645  0.00  0.00     0.149 HD
HETATM   41  H   UNK N   1      35.187  13.207  -0.586  0.00  0.00     0.149 HD
ENDBRANCH  38  39
ENDBRANCH  37  38
ENDBRANCH  36  37
ENDBRANCH  35  36
BRANCH  35  42
HETATM   42  C   UNK N   1      32.537  12.413   2.439  0.00  0.00     0.189 C 
BRANCH  42  43
HETATM   43  O   UNK N   1      32.691  13.706   1.937  0.00  0.00    -0.399 OA
HETATM   44  H   UNK N   1      32.417  14.483   2.450  0.00  0.00     0.209 HD
ENDBRANCH  42  43
ENDBRANCH  35  42
ENDBRANCH  33  35
ENDBRANCH  13  31
BRANCH   9  45
HETATM   45  C   UNK N   1      29.186  14.331   4.010  0.00  0.00     0.137 C 
BRANCH  45  46
HETATM   46  C   UNK N   1      30.237  14.160   5.054  0.00  0.00     0.217 C 
HETATM   47  O   UNK N   1      30.654  15.111   5.694  0.00  0.00    -0.274 OA
HETATM   48  N   UNK N   1      30.759  12.934   5.254  0.00  0.00    -0.370 N 
HETATM   49  H   UNK N   1      30.324  12.051   5.268  0.00  0.00     0.159 HD
HETATM   50  H   UNK N   1      31.731  12.919   5.411  0.00  0.00     0.159 HD
ENDBRANCH  45  46
ENDBRANCH   9  45
BRANCH   5  51
HETATM   51  C   UNK N   1      28.075  17.267   5.323  0.00  0.00     0.013 C 
HETATM   52  C   UNK N   1      28.451  18.693   4.972  0.00  0.00     0.012 C 
BRANCH  51  53
HETATM   53  C   UNK N   1      27.892  17.249   6.838  0.00  0.00     0.002 C 
HETATM   54  C   UNK N   1      29.054  17.903   7.556  0.00  0.00     0.005 C 
ENDBRANCH  51  53
ENDBRANCH   5  51
BRANCH  22  55
HETATM   55  C   UNK N   1      22.861  14.562   1.047  0.00  0.00     0.075 C 
BRANCH  55  56
HETATM   56  C   UNK N   1      21.371  14.432   1.159  0.00  0.00    -0.028 A 
HETATM   57  C   UNK N   1      20.444  15.449   1.373  0.00  0.00     0.096 A 
HETATM   58  N   UNK N   1      19.187  14.940   1.281  0.00  0.00    -0.365 N 
HETATM   59  C   UNK N   1      19.337  13.628   1.013  0.00  0.00     0.042 A 
HETATM   60  H   UNK N   1      18.341  15.430   1.389  0.00  0.00     0.165 HD
HETATM   61  C   UNK N   1      20.655  13.290   0.941  0.00  0.00    -0.002 A 
HETATM   62  C   UNK N   1      18.331  12.691   0.796  0.00  0.00     0.030 A 
HETATM   63  C   UNK N   1      21.078  11.997   0.651  0.00  0.00     0.014 A 
HETATM   64  C   UNK N   1      20.091  11.022   0.437  0.00  0.00     0.001 A 
HETATM   65  C   UNK N   1      18.722  11.368   0.506  0.00  0.00     0.002 A 
ENDBRANCH  55  56
ENDBRANCH  22  55
BRANCH   1  66
HETATM   66  C   UNK N   1      22.073  18.361   4.744  0.00  0.00     0.013 C 
HETATM   67  C   UNK N   1      21.363  18.312   6.086  0.00  0.00     0.012 C 
BRANCH  66  68
HETATM   68  C   UNK N   1      21.032  18.115   3.661  0.00  0.00     0.002 C 
HETATM   69  C   UNK N   1      20.831  19.357   2.812  0.00  0.00     0.005 C 
ENDBRANCH  66  68
ENDBRANCH   1  66
TORSDOF 16
ENDMDL
MODEL 7
REMARK VINA RESULT:      -6.2      6.091     10.046
REMARK  16 active torsions:
REMARK  status: ('A' for Active; 'I' for Inactive)
REMARK    1  A    between atoms: C_2  and  C_3 
REMARK    2  A    between atoms: C_5  and  C_3 
REMARK    3  A    between atoms: C_9  and  C_55 
REMARK    4  A    between atoms: C_13  and  C_51 
REMARK    5  A    between atoms: C_17  and  C_40 
REMARK    6  A    between atoms: C_26  and  C_30 
REMARK    7  A    between atoms: C_30  and  C_31 
REMARK       I    between atoms: C_40  and  N_42 
REMARK    8  A    between atoms: C_44  and  N_42 
REMARK    9  A    between atoms: C_44  and  C_45 
REMARK   10  A    between atoms: C_44  and  C_49 
REMARK   11  A    between atoms: C_45  and  C_46 
REMARK   12  A    between atoms: C_46  and  C_47 
REMARK   13  A    between atoms: C_47  and  N_48 
REMARK   14  A    between atoms: C_49  and  O_50 
REMARK   15  A    between atoms: C_51  and  C_52 
REMARK       I    between atoms: C_52  and  N_54 
REMARK   16  A    between atoms: C_55  and  C_57 
ROOT
HETATM    1  C   UNK N   1      26.785  19.053   4.481  0.00  0.00     0.180 C 
HETATM    2  C   UNK N   1      25.299  19.113   4.634  0.00  0.00     0.241 C 
HETATM    3  O   UNK N   1      24.832  19.230   5.762  0.00  0.00    -0.271 OA
HETATM    4  N   UNK N   1      24.564  18.527   3.658  0.00  0.00    -0.346 N 
HETATM    5  C   UNK N   1      23.476  17.662   4.032  0.00  0.00     0.180 C 
HETATM    6  C   UNK N   1      24.017  16.290   4.381  0.00  0.00     0.241 C 
HETATM    7  O   UNK N   1      24.549  16.161   5.470  0.00  0.00    -0.271 OA
HETATM    8  N   UNK N   1      24.067  15.242   3.520  0.00  0.00    -0.346 N 
HETATM    9  C   UNK N   1      23.392  15.124   2.254  0.00  0.00     0.185 C 
HETATM   10  C   UNK N   1      23.934  13.902   1.555  0.00  0.00     0.241 C 
HETATM   11  O   UNK N   1      23.710  13.741   0.363  0.00  0.00    -0.271 OA
HETATM   12  N   UNK N   1      24.362  12.862   2.327  0.00  0.00    -0.346 N 
HETATM   13  C   UNK N   1      24.276  11.471   1.936  0.00  0.00     0.177 C 
HETATM   14  C   UNK N   1      25.232  11.122   0.795  0.00  0.00     0.045 C 
HETATM   15  C   UNK N   1      26.057   9.871   1.104  0.00  0.00     0.076 C 
HETATM   16  S   UNK N   1      27.061  10.053   2.625  0.00  0.00    -0.169 SA
HETATM   17  C   UNK N   1      28.255  11.233   1.905  0.00  0.00     0.083 C 
HETATM   18  C   UNK N   1      27.616  12.605   1.710  0.00  0.00     0.113 C 
HETATM   19  C   UNK N   1      27.309  13.308   2.992  0.00  0.00     0.219 C 
HETATM   20  O   UNK N   1      26.630  12.766   3.855  0.00  0.00    -0.274 OA
HETATM   21  N   UNK N   1      27.760  14.568   3.169  0.00  0.00    -0.347 N 
HETATM   22  C   UNK N   1      27.505  15.340   4.370  0.00  0.00     0.180 C 
HETATM   23  C   UNK N   1      27.629  16.807   4.061  0.00  0.00     0.241 C 
HETATM   24  O   UNK N   1      28.026  17.165   2.959  0.00  0.00    -0.271 OA
HETATM   25  N   UNK N   1      27.125  17.717   4.923  0.00  0.00    -0.346 N 
HETATM   26  H   UNK N   1      24.771  18.690   2.710  0.00  0.00     0.163 HD
HETATM   27  H   UNK N   1      24.626  14.479   3.791  0.00  0.00     0.163 HD
HETATM   28  H   UNK N   1      24.754  13.070   3.206  0.00  0.00     0.163 HD
HETATM   29  H   UNK N   1      28.288  14.981   2.448  0.00  0.00     0.163 HD
HETATM   30  H   UNK N   1      26.987  17.467   5.865  0.00  0.00     0.163 HD
ENDROOT
BRANCH  13  31
HETATM   31  C   UNK N   1      22.793  11.211   1.811  0.00  0.00     0.242 C 
HETATM   32  O   UNK N   1      22.377  10.998   0.673  0.00  0.00    -0.271 OA
HETATM   33  N   UNK N   1      21.936  11.058   2.865  0.00  0.00    -0.348 N 
HETATM   34  C   UNK N   1      22.328  11.327   4.230  0.00  0.00     0.153 C 
BRANCH  33  35
HETATM   35  C   UNK N   1      20.622  10.499   2.642  0.00  0.00     0.110 C 
BRANCH  35  36
HETATM   36  C   UNK N   1      20.462   8.989   2.595  0.00  0.00     0.029 C 
BRANCH  36  37
HETATM   37  C   UNK N   1      19.429   8.613   1.558  0.00  0.00     0.021 C 
BRANCH  37  38
HETATM   38  C   UNK N   1      20.114   8.266   0.249  0.00  0.00     0.111 C 
BRANCH  38  39
HETATM   39  N   UNK N   1      21.524   7.998   0.473  0.00  0.00    -0.430 N 
HETATM   40  H   UNK N   1      22.400   8.023  -0.049  0.00  0.00     0.149 HD
HETATM   41  H   UNK N   1      21.685   7.694   1.434  0.00  0.00     0.149 HD
ENDBRANCH  38  39
ENDBRANCH  37  38
ENDBRANCH  36  37
ENDBRANCH  35  36
BRANCH  35  42
HETATM   42  C   UNK N   1      19.447  11.454   2.473  0.00  0.00     0.189 C 
BRANCH  42  43
HETATM   43  O   UNK N   1      19.525  12.108   1.244  0.00  0.00    -0.399 OA
HETATM   44  H   UNK N   1      18.767  12.141   0.640  0.00  0.00     0.209 HD
ENDBRANCH  42  43
ENDBRANCH  35  42
ENDBRANCH  33  35
ENDBRANCH  13  31
BRANCH   9  45
HETATM   45  C   UNK N   1      21.965  14.712   2.630  0.00  0.00     0.137 C 
BRANCH  45  46
HETATM   46  C   UNK N   1      20.849  15.208   1.774  0.00  0.00     0.217 C 
HETATM   47  O   UNK N   1      21.066  15.732   0.694  0.00  0.00    -0.274 OA
HETATM   48  N   UNK N   1      19.587  15.110   2.233  0.00  0.00    -0.370 N 
HETATM   49  H   UNK N   1      19.143  14.385   2.729  0.00  0.00     0.159 HD
HETATM   50  H   UNK N   1      19.015  15.889   2.040  0.00  0.00     0.159 HD
ENDBRANCH  45  46
ENDBRANCH   9  45
BRANCH   5  51
HETATM   51  C   UNK N   1      22.047  17.979   3.575  0.00  0.00     0.013 C 
HETATM   52  C   UNK N   1      21.108  17.703   4.733  0.00  0.00     0.012 C 
BRANCH  51  53
HETATM   53  C   UNK N   1      21.885  19.464   3.258  0.00  0.00     0.002 C 
HETATM   54  C   UNK N   1      20.887  19.699   2.143  0.00  0.00     0.005 C 
ENDBRANCH  51  53
ENDBRANCH   5  51
BRANCH  22  55
HETATM   55  C   UNK N   1      28.279  14.857   5.621  0.00  0.00     0.075 C 
BRANCH  55  56
HETATM   56  C   UNK N   1      29.735  15.211   5.556  0.00  0.00    -0.028 A 
HETATM   57  C   UNK N   1      30.653  14.855   4.571  0.00  0.00     0.096 A 
HETATM   58  N   UNK N   1      31.836  15.480   4.809  0.00  0.00    -0.365 N 
HETATM   59  C   UNK N   1      31.650  16.212   5.925  0.00  0.00     0.042 A 
HETATM   60  H   UNK N   1      32.660  15.411   4.276  0.00  0.00     0.165 HD
HETATM   61  C   UNK N   1      30.385  16.061   6.405  0.00  0.00    -0.002 A 
HETATM   62  C   UNK N   1      32.570  17.054   6.544  0.00  0.00     0.030 A 
HETATM   63  C   UNK N   1      29.932  16.731   7.538  0.00  0.00     0.014 A 
HETATM   64  C   UNK N   1      30.835  17.581   8.195  0.00  0.00     0.001 A 
HETATM   65  C   UNK N   1      32.149  17.745   7.699  0.00  0.00     0.002 A 
ENDBRANCH  55  56
ENDBRANCH  22  55
BRANCH   1  66
HETATM   66  C   UNK N   1      27.528  20.150   5.248  0.00  0.00     0.013 C 
HETATM   67  C   UNK N   1      27.873  19.624   6.630  0.00  0.00     0.012 C 
BRANCH  66  68
HETATM   68  C   UNK N   1      26.670  21.394   5.428  0.00  0.00     0.002 C 
HETATM   69  C   UNK N   1      26.620  21.811   6.887  0.00  0.00     0.005 C 
ENDBRANCH  66  68
ENDBRANCH   1  66
TORSDOF 16
ENDMDL
MODEL 8
REMARK VINA RESULT:      -6.1      6.690     10.758
REMARK  16 active torsions:
REMARK  status: ('A' for Active; 'I' for Inactive)
REMARK    1  A    between atoms: C_2  and  C_3 
REMARK    2  A    between atoms: C_5  and  C_3 
REMARK    3  A    between atoms: C_9  and  C_55 
REMARK    4  A    between atoms: C_13  and  C_51 
REMARK    5  A    between atoms: C_17  and  C_40 
REMARK    6  A    between atoms: C_26  and  C_30 
REMARK    7  A    between atoms: C_30  and  C_31 
REMARK       I    between atoms: C_40  and  N_42 
REMARK    8  A    between atoms: C_44  and  N_42 
REMARK    9  A    between atoms: C_44  and  C_45 
REMARK   10  A    between atoms: C_44  and  C_49 
REMARK   11  A    between atoms: C_45  and  C_46 
REMARK   12  A    between atoms: C_46  and  C_47 
REMARK   13  A    between atoms: C_47  and  N_48 
REMARK   14  A    between atoms: C_49  and  O_50 
REMARK   15  A    between atoms: C_51  and  C_52 
REMARK       I    between atoms: C_52  and  N_54 
REMARK   16  A    between atoms: C_55  and  C_57 
ROOT
HETATM    1  C   UNK N   1      24.575  18.268   3.842  0.00  0.00     0.180 C 
HETATM    2  C   UNK N   1      23.263  17.787   4.375  0.00  0.00     0.241 C 
HETATM    3  O   UNK N   1      22.959  18.078   5.526  0.00  0.00    -0.271 OA
HETATM    4  N   UNK N   1      22.746  16.673   3.803  0.00  0.00    -0.346 N 
HETATM    5  C   UNK N   1      22.238  15.627   4.652  0.00  0.00     0.180 C 
HETATM    6  C   UNK N   1      23.388  14.778   5.153  0.00  0.00     0.241 C 
HETATM    7  O   UNK N   1      24.068  15.236   6.055  0.00  0.00    -0.271 OA
HETATM    8  N   UNK N   1      23.788  13.613   4.583  0.00  0.00    -0.346 N 
HETATM    9  C   UNK N   1      23.070  12.828   3.614  0.00  0.00     0.185 C 
HETATM   10  C   UNK N   1      24.006  11.760   3.102  0.00  0.00     0.241 C 
HETATM   11  O   UNK N   1      23.714  11.139   2.088  0.00  0.00    -0.271 OA
HETATM   12  N   UNK N   1      24.965  11.291   3.951  0.00  0.00    -0.346 N 
HETATM   13  C   UNK N   1      25.468   9.934   3.937  0.00  0.00     0.177 C 
HETATM   14  C   UNK N   1      26.306   9.632   2.695  0.00  0.00     0.045 C 
HETATM   15  C   UNK N   1      27.645   8.984   3.054  0.00  0.00     0.076 C 
HETATM   16  S   UNK N   1      28.659  10.038   4.157  0.00  0.00    -0.169 SA
HETATM   17  C   UNK N   1      29.068  11.280   2.882  0.00  0.00     0.083 C 
HETATM   18  C   UNK N   1      27.854  12.143   2.550  0.00  0.00     0.113 C 
HETATM   19  C   UNK N   1      27.444  13.050   3.665  0.00  0.00     0.219 C 
HETATM   20  O   UNK N   1      27.217  12.605   4.782  0.00  0.00    -0.274 OA
HETATM   21  N   UNK N   1      27.291  14.367   3.410  0.00  0.00    -0.347 N 
HETATM   22  C   UNK N   1      26.884  15.327   4.418  0.00  0.00     0.180 C 
HETATM   23  C   UNK N   1      26.281  16.533   3.750  0.00  0.00     0.241 C 
HETATM   24  O   UNK N   1      26.312  16.630   2.530  0.00  0.00    -0.271 OA
HETATM   25  N   UNK N   1      25.545  17.401   4.477  0.00  0.00    -0.346 N 
HETATM   26  H   UNK N   1      22.720  16.580   2.823  0.00  0.00     0.163 HD
HETATM   27  H   UNK N   1      24.666  13.267   4.864  0.00  0.00     0.163 HD
HETATM   28  H   UNK N   1      25.338  11.914   4.615  0.00  0.00     0.163 HD
HETATM   29  H   UNK N   1      27.465  14.690   2.496  0.00  0.00     0.163 HD
HETATM   30  H   UNK N   1      25.670  17.444   5.452  0.00  0.00     0.163 HD
ENDROOT
BRANCH  13  31
HETATM   31  C   UNK N   1      24.266   9.089   4.286  0.00  0.00     0.242 C 
HETATM   32  O   UNK N   1      23.852   8.348   3.394  0.00  0.00    -0.271 OA
HETATM   33  N   UNK N   1      23.716   8.988   5.533  0.00  0.00    -0.348 N 
HETATM   34  C   UNK N   1      24.114   9.846   6.627  0.00  0.00     0.153 C 
BRANCH  33  35
HETATM   35  C   UNK N   1      22.788   7.920   5.821  0.00  0.00     0.110 C 
BRANCH  35  36
HETATM   36  C   UNK N   1      23.330   6.569   6.256  0.00  0.00     0.029 C 
BRANCH  36  37
HETATM   37  C   UNK N   1      23.687   6.606   7.724  0.00  0.00     0.021 C 
BRANCH  37  38
HETATM   38  C   UNK N   1      25.073   6.025   7.933  0.00  0.00     0.111 C 
BRANCH  38  39
HETATM   39  N   UNK N   1      26.049   6.752   7.141  0.00  0.00    -0.430 N 
HETATM   40  H   UNK N   1      26.300   7.719   6.935  0.00  0.00     0.149 HD
HETATM   41  H   UNK N   1      26.665   6.106   6.646  0.00  0.00     0.149 HD
ENDBRANCH  38  39
ENDBRANCH  37  38
ENDBRANCH  36  37
ENDBRANCH  35  36
BRANCH  35  42
HETATM   42  C   UNK N   1      21.296   8.199   5.687  0.00  0.00     0.189 C 
BRANCH  42  43
HETATM   43  O   UNK N   1      20.896   8.070   4.356  0.00  0.00    -0.399 OA
HETATM   44  H   UNK N   1      21.063   7.256   3.856  0.00  0.00     0.209 HD
ENDBRANCH  42  43
ENDBRANCH  35  42
ENDBRANCH  33  35
ENDBRANCH  13  31
BRANCH   9  45
HETATM   45  C   UNK N   1      22.057  12.039   4.450  0.00  0.00     0.137 C 
BRANCH  45  46
HETATM   46  C   UNK N   1      20.806  11.583   3.779  0.00  0.00     0.217 C 
HETATM   47  O   UNK N   1      19.713  11.990   4.135  0.00  0.00    -0.274 OA
HETATM   48  N   UNK N   1      20.895  10.670   2.793  0.00  0.00    -0.370 N 
HETATM   49  H   UNK N   1      21.551  10.581   2.064  0.00  0.00     0.159 HD
HETATM   50  H   UNK N   1      20.192   9.981   2.802  0.00  0.00     0.159 HD
ENDBRANCH  45  46
ENDBRANCH   9  45
BRANCH   5  51
HETATM   51  C   UNK N   1      20.773  15.188   4.539  0.00  0.00     0.013 C 
HETATM   52  C   UNK N   1      20.028  15.710   5.753  0.00  0.00     0.012 C 
BRANCH  51  53
HETATM   53  C   UNK N   1      20.094  15.830   3.332  0.00  0.00     0.002 C 
HETATM   54  C   UNK N   1      20.057  14.896   2.140  0.00  0.00     0.005 C 
ENDBRANCH  51  53
ENDBRANCH   5  51
BRANCH  22  55
HETATM   55  C   UNK N   1      27.962  15.631   5.488  0.00  0.00     0.075 C 
BRANCH  55  56
HETATM   56  C   UNK N   1      29.051  16.515   4.959  0.00  0.00    -0.028 A 
HETATM   57  C   UNK N   1      29.137  17.902   5.051  0.00  0.00     0.096 A 
HETATM   58  N   UNK N   1      30.338  18.312   4.562  0.00  0.00    -0.365 N 
HETATM   59  C   UNK N   1      30.983  17.194   4.176  0.00  0.00     0.042 A 
HETATM   60  H   UNK N   1      30.668  19.237   4.503  0.00  0.00     0.165 HD
HETATM   61  C   UNK N   1      30.220  16.088   4.398  0.00  0.00    -0.002 A 
HETATM   62  C   UNK N   1      32.265  17.101   3.643  0.00  0.00     0.030 A 
HETATM   63  C   UNK N   1      30.668  14.802   4.107  0.00  0.00     0.014 A 
HETATM   64  C   UNK N   1      31.953  14.671   3.558  0.00  0.00     0.001 A 
HETATM   65  C   UNK N   1      32.751  15.815   3.329  0.00  0.00     0.002 A 
ENDBRANCH  55  56
ENDBRANCH  22  55
BRANCH   1  66
HETATM   66  C   UNK N   1      24.835  19.755   4.097  0.00  0.00     0.013 C 
HETATM   67  C   UNK N   1      24.070  20.562   3.062  0.00  0.00     0.012 C 
BRANCH  66  68
HETATM   68  C   UNK N   1      26.310  20.103   3.956  0.00  0.00     0.002 C 
HETATM   69  C   UNK N   1      26.811  20.843   5.184  0.00  0.00     0.005 C 
ENDBRANCH  66  68
ENDBRANCH   1  66
TORSDOF 16
ENDMDL
MODEL 9
REMARK VINA RESULT:      -6.0      1.409      2.181
REMARK  16 active torsions:
REMARK  status: ('A' for Active; 'I' for Inactive)
REMARK    1  A    between atoms: C_2  and  C_3 
REMARK    2  A    between atoms: C_5  and  C_3 
REMARK    3  A    between atoms: C_9  and  C_55 
REMARK    4  A    between atoms: C_13  and  C_51 
REMARK    5  A    between atoms: C_17  and  C_40 
REMARK    6  A    between atoms: C_26  and  C_30 
REMARK    7  A    between atoms: C_30  and  C_31 
REMARK       I    between atoms: C_40  and  N_42 
REMARK    8  A    between atoms: C_44  and  N_42 
REMARK    9  A    between atoms: C_44  and  C_45 
REMARK   10  A    between atoms: C_44  and  C_49 
REMARK   11  A    between atoms: C_45  and  C_46 
REMARK   12  A    between atoms: C_46  and  C_47 
REMARK   13  A    between atoms: C_47  and  N_48 
REMARK   14  A    between atoms: C_49  and  O_50 
REMARK   15  A    between atoms: C_51  and  C_52 
REMARK       I    between atoms: C_52  and  N_54 
REMARK   16  A    between atoms: C_55  and  C_57 
ROOT
HETATM    1  C   UNK N   1      35.719  13.627   9.271  0.00  0.00     0.180 C 
HETATM    2  C   UNK N   1      34.919  14.884   9.144  0.00  0.00     0.241 C 
HETATM    3  O   UNK N   1      34.259  15.256  10.108  0.00  0.00    -0.271 OA
HETATM    4  N   UNK N   1      34.541  15.240   7.892  0.00  0.00    -0.346 N 
HETATM    5  C   UNK N   1      33.177  15.638   7.664  0.00  0.00     0.180 C 
HETATM    6  C   UNK N   1      32.307  14.407   7.524  0.00  0.00     0.241 C 
HETATM    7  O   UNK N   1      32.006  13.817   8.546  0.00  0.00    -0.271 OA
HETATM    8  N   UNK N   1      31.952  13.848   6.339  0.00  0.00    -0.346 N 
HETATM    9  C   UNK N   1      32.076  14.432   5.029  0.00  0.00     0.185 C 
HETATM   10  C   UNK N   1      31.780  13.356   4.014  0.00  0.00     0.241 C 
HETATM   11  O   UNK N   1      32.076  13.538   2.841  0.00  0.00    -0.271 OA
HETATM   12  N   UNK N   1      30.904  12.372   4.364  0.00  0.00    -0.346 N 
HETATM   13  C   UNK N   1      30.020  11.703   3.434  0.00  0.00     0.177 C 
HETATM   14  C   UNK N   1      30.772  10.797   2.459  0.00  0.00     0.045 C 
HETATM   15  C   UNK N   1      30.155   9.398   2.387  0.00  0.00     0.076 C 
HETATM   16  S   UNK N   1      30.136   8.557   4.014  0.00  0.00    -0.169 SA
HETATM   17  C   UNK N   1      31.939   8.269   4.081  0.00  0.00     0.083 C 
HETATM   18  C   UNK N   1      32.690   9.571   4.340  0.00  0.00     0.113 C 
HETATM   19  C   UNK N   1      32.471  10.124   5.711  0.00  0.00     0.219 C 
HETATM   20  O   UNK N   1      31.340  10.327   6.130  0.00  0.00    -0.274 OA
HETATM   21  N   UNK N   1      33.546  10.433   6.468  0.00  0.00    -0.347 N 
HETATM   22  C   UNK N   1      33.441  10.986   7.805  0.00  0.00     0.180 C 
HETATM   23  C   UNK N   1      34.711  11.716   8.148  0.00  0.00     0.241 C 
HETATM   24  O   UNK N   1      35.668  11.661   7.386  0.00  0.00    -0.271 OA
HETATM   25  N   UNK N   1      34.727  12.576   9.189  0.00  0.00    -0.346 N 
HETATM   26  H   UNK N   1      35.190  15.226   7.151  0.00  0.00     0.163 HD
HETATM   27  H   UNK N   1      31.568  12.942   6.380  0.00  0.00     0.163 HD
HETATM   28  H   UNK N   1      30.869  12.099   5.310  0.00  0.00     0.163 HD
HETATM   29  H   UNK N   1      34.443  10.274   6.094  0.00  0.00     0.163 HD
HETATM   30  H   UNK N   1      34.055  12.485   9.902  0.00  0.00     0.163 HD
ENDROOT
BRANCH  13  31
HETATM   31  C   UNK N   1      29.112  12.799   2.930  0.00  0.00     0.242 C 
HETATM   32  O   UNK N   1      29.260  13.123   1.751  0.00  0.00    -0.271 OA
HETATM   33  N   UNK N   1      28.070  13.336   3.633  0.00  0.00    -0.348 N 
HETATM   34  C   UNK N   1      27.846  13.044   5.031  0.00  0.00     0.153 C 
BRANCH  33  35
HETATM   35  C   UNK N   1      27.081  14.135   2.948  0.00  0.00     0.110 C 
BRANCH  35  36
HETATM   36  C   UNK N   1      25.689  13.565   2.738  0.00  0.00     0.029 C 
BRANCH  36  37
HETATM   37  C   UNK N   1      25.685  12.647   1.537  0.00  0.00     0.021 C 
BRANCH  37  38
HETATM   38  C   UNK N   1      25.377  11.227   1.974  0.00  0.00     0.111 C 
BRANCH  38  39
HETATM   39  N   UNK N   1      26.605  10.464   2.107  0.00  0.00    -0.430 N 
HETATM   40  H   UNK N   1      27.611  10.612   2.022  0.00  0.00     0.149 HD
HETATM   41  H   UNK N   1      26.404   9.495   2.359  0.00  0.00     0.149 HD
ENDBRANCH  38  39
ENDBRANCH  37  38
ENDBRANCH  36  37
ENDBRANCH  35  36
BRANCH  35  42
HETATM   42  C   UNK N   1      27.477  15.528   2.473  0.00  0.00     0.189 C 
BRANCH  42  43
HETATM   43  O   UNK N   1      27.534  16.411   3.552  0.00  0.00    -0.399 OA
HETATM   44  H   UNK N   1      28.379  16.652   3.963  0.00  0.00     0.209 HD
ENDBRANCH  42  43
ENDBRANCH  35  42
ENDBRANCH  33  35
ENDBRANCH  13  31
BRANCH   9  45
HETATM   45  C   UNK N   1      30.864  15.363   4.922  0.00  0.00     0.137 C 
BRANCH  45  46
HETATM   46  C   UNK N   1      31.037  16.649   4.186  0.00  0.00     0.217 C 
HETATM   47  O   UNK N   1      32.007  16.843   3.473  0.00  0.00    -0.274 OA
HETATM   48  N   UNK N   1      30.122  17.622   4.356  0.00  0.00    -0.370 N 
HETATM   49  H   UNK N   1      29.142  17.570   4.427  0.00  0.00     0.159 HD
HETATM   50  H   UNK N   1      30.493  18.532   4.419  0.00  0.00     0.159 HD
ENDBRANCH  45  46
ENDBRANCH   9  45
BRANCH   5  51
HETATM   51  C   UNK N   1      32.865  17.034   7.108  0.00  0.00     0.013 C 
HETATM   52  C   UNK N   1      32.060  17.788   8.148  0.00  0.00     0.012 C 
BRANCH  51  53
HETATM   53  C   UNK N   1      34.141  17.846   6.905  0.00  0.00     0.002 C 
HETATM   54  C   UNK N   1      34.537  18.601   8.157  0.00  0.00     0.005 C 
ENDBRANCH  51  53
ENDBRANCH   5  51
BRANCH  22  55
HETATM   55  C   UNK N   1      32.938   9.988   8.876  0.00  0.00     0.075 C 
BRANCH  55  56
HETATM   56  C   UNK N   1      34.063   9.223   9.508  0.00  0.00    -0.028 A 
HETATM   57  C   UNK N   1      35.024   8.443   8.869  0.00  0.00     0.096 A 
HETATM   58  N   UNK N   1      35.943   8.025   9.780  0.00  0.00    -0.365 N 
HETATM   59  C   UNK N   1      35.554   8.540  10.962  0.00  0.00     0.042 A 
HETATM   60  H   UNK N   1      36.731   7.461   9.609  0.00  0.00     0.165 HD
HETATM   61  C   UNK N   1      34.409   9.266  10.828  0.00  0.00    -0.002 A 
HETATM   62  C   UNK N   1      36.199   8.415  12.189  0.00  0.00     0.030 A 
HETATM   63  C   UNK N   1      33.813   9.922  11.901  0.00  0.00     0.014 A 
HETATM   64  C   UNK N   1      34.430   9.810  13.156  0.00  0.00     0.001 A 
HETATM   65  C   UNK N   1      35.621   9.061  13.301  0.00  0.00     0.002 A 
ENDBRANCH  55  56
ENDBRANCH  22  55
BRANCH   1  66
HETATM   66  C   UNK N   1      36.565  13.563  10.546  0.00  0.00     0.013 C 
HETATM   67  C   UNK N   1      38.007  13.869  10.183  0.00  0.00     0.012 C 
BRANCH  66  68
HETATM   68  C   UNK N   1      36.532  12.178  11.177  0.00  0.00     0.002 C 
HETATM   69  C   UNK N   1      37.857  11.462  10.982  0.00  0.00     0.005 C 
ENDBRANCH  66  68
ENDBRANCH   1  66
TORSDOF 16
ENDMDL
