MODEL 1
REMARK VINA RESULT:      -8.6      0.000      0.000
REMARK  3 active torsions:
REMARK  status: ('A' for Active; 'I' for Inactive)
REMARK    1  A    between atoms: C_2  and  C_13 
REMARK       I    between atoms: C_8  and  N_11 
REMARK    2  A    between atoms: C_15  and  N_20 
REMARK       I    between atoms: N_20  and  C_21 
REMARK    3  A    between atoms: C_21  and  C_23 
ROOT
HETATM    1  C   UNK N   1      30.110  16.810   6.868  0.00  0.00     0.012 A 
HETATM    2  C   UNK N   1      29.153  17.815   7.082  0.00  0.00     0.042 A 
HETATM    3  C   UNK N   1      27.865  17.706   6.534  0.00  0.00     0.035 A 
HETATM    4  C   UNK N   1      27.544  16.600   5.749  0.00  0.00     0.032 A 
HETATM    5  C   UNK N   1      28.484  15.604   5.514  0.00  0.00     0.045 A 
HETATM    6  C   UNK N   1      29.765  15.706   6.054  0.00  0.00     0.125 A 
HETATM    7  F   UNK N   1      30.663  14.724   5.797  0.00  0.00    -0.205 F 
ENDROOT
BRANCH   1   8
HETATM    8  C   UNK N   1      31.473  16.891   7.530  0.00  0.00     0.088 C 
HETATM    9  C   UNK N   1      31.536  18.137   8.410  0.00  0.00     0.045 C 
HETATM   10  C   UNK N   1      32.480  16.998   6.382  0.00  0.00     0.200 C 
HETATM   11  S   UNK N   1      34.131  16.907   7.049  0.00  0.00     0.248 S 
HETATM   12  O   UNK N   1      34.758  18.206   7.575  0.00  0.00    -0.205 OA
HETATM   13  O   UNK N   1      35.172  16.304   6.093  0.00  0.00    -0.205 OA
HETATM   14  N   UNK N   1      34.091  15.815   8.401  0.00  0.00    -0.113 N 
HETATM   15  C   UNK N   1      32.841  15.265   8.824  0.00  0.00     0.683 C 
HETATM   16  C   UNK N   1      35.331  15.287   8.915  0.00  0.00     0.189 C 
HETATM   17  N   UNK N   1      31.702  15.716   8.375  0.00  0.00    -0.212 N 
HETATM   18  N   UNK N   1      32.828  14.170   9.715  0.00  0.00    -0.234 N 
ATOM     19  HN  UNK N   1      30.872  15.189   8.645  1.00  0.00     0.179 HD
HETATM   20  H   UNK N   1      31.999  13.700   9.958  0.00  0.00     0.174 HD
HETATM   21  H   UNK N   1      33.679  13.866  10.106  0.00  0.00     0.174 HD
ENDBRANCH   1   8
BRANCH   3  22
HETATM   22  N   UNK N   1      26.988  18.810   6.492  0.00  0.00    -0.322 N 
HETATM   23  C   UNK N   1      26.826  19.602   5.410  0.00  0.00     0.272 C 
HETATM   24  O   UNK N   1      27.786  20.046   4.794  0.00  0.00    -0.266 OA
HETATM   25  H   UNK N   1      26.463  19.016   7.299  0.00  0.00     0.169 HD
BRANCH  23  26
HETATM   26  C   UNK N   1      25.479  19.614   4.829  0.00  0.00     0.101 A 
HETATM   27  C   UNK N   1      25.150  20.415   3.731  0.00  0.00     0.038 A 
HETATM   28  C   UNK N   1      23.902  20.249   3.122  0.00  0.00     0.046 A 
HETATM   29  C   UNK N   1      23.016  19.277   3.601  0.00  0.00     0.131 A 
HETATM   30  C   UNK N   1      23.381  18.498   4.693  0.00  0.00     0.130 A 
HETATM   31  F   UNK N   1      21.813  19.088   3.013  0.00  0.00    -0.205 F 
HETATM   32  N   UNK N   1      24.591  18.679   5.273  0.00  0.00    -0.359 N 
ATOM     33  HN  UNK N   1      24.847  18.096   6.070  1.00  0.00     0.165 HD
ENDBRANCH  23  26
ENDBRANCH   3  22
TORSDOF 3
ENDMDL
MODEL 2
REMARK VINA RESULT:      -8.4      2.233      3.073
REMARK  3 active torsions:
REMARK  status: ('A' for Active; 'I' for Inactive)
REMARK    1  A    between atoms: C_2  and  C_13 
REMARK       I    between atoms: C_8  and  N_11 
REMARK    2  A    between atoms: C_15  and  N_20 
REMARK       I    between atoms: N_20  and  C_21 
REMARK    3  A    between atoms: C_21  and  C_23 
ROOT
HETATM    1  C   UNK N   1      32.337  16.362   6.717  0.00  0.00     0.012 A 
HETATM    2  C   UNK N   1      30.936  16.294   6.781  0.00  0.00     0.042 A 
HETATM    3  C   UNK N   1      30.145  16.855   5.767  0.00  0.00     0.035 A 
HETATM    4  C   UNK N   1      30.757  17.507   4.698  0.00  0.00     0.032 A 
HETATM    5  C   UNK N   1      32.143  17.599   4.628  0.00  0.00     0.045 A 
HETATM    6  C   UNK N   1      32.934  17.046   5.632  0.00  0.00     0.125 A 
HETATM    7  F   UNK N   1      34.282  17.161   5.541  0.00  0.00    -0.205 F 
ENDROOT
BRANCH   1   8
HETATM    8  C   UNK N   1      33.190  15.684   7.773  0.00  0.00     0.088 C 
HETATM    9  C   UNK N   1      32.360  14.622   8.490  0.00  0.00     0.045 C 
HETATM   10  C   UNK N   1      33.594  16.792   8.748  0.00  0.00     0.200 C 
HETATM   11  S   UNK N   1      34.759  16.132   9.925  0.00  0.00     0.248 S 
HETATM   12  O   UNK N   1      34.195  15.406  11.154  0.00  0.00    -0.205 OA
HETATM   13  O   UNK N   1      35.760  17.160  10.476  0.00  0.00    -0.205 OA
HETATM   14  N   UNK N   1      35.742  14.965   9.092  0.00  0.00    -0.113 N 
HETATM   15  C   UNK N   1      35.450  14.644   7.730  0.00  0.00     0.683 C 
HETATM   16  C   UNK N   1      36.978  14.528   9.695  0.00  0.00     0.189 C 
HETATM   17  N   UNK N   1      34.344  15.028   7.153  0.00  0.00    -0.212 N 
HETATM   18  N   UNK N   1      36.398  13.933   6.964  0.00  0.00    -0.234 N 
ATOM     19  HN  UNK N   1      34.275  14.850   6.151  1.00  0.00     0.179 HD
HETATM   20  H   UNK N   1      36.281  13.772   6.000  0.00  0.00     0.174 HD
HETATM   21  H   UNK N   1      37.205  13.585   7.409  0.00  0.00     0.174 HD
ENDBRANCH   1   8
BRANCH   3  22
HETATM   22  N   UNK N   1      28.758  17.051   5.938  0.00  0.00    -0.322 N 
HETATM   23  C   UNK N   1      28.213  18.184   6.430  0.00  0.00     0.272 C 
HETATM   24  O   UNK N   1      28.649  18.715   7.444  0.00  0.00    -0.266 OA
HETATM   25  H   UNK N   1      28.152  16.317   5.685  0.00  0.00     0.169 HD
BRANCH  23  26
HETATM   26  C   UNK N   1      27.323  18.908   5.517  0.00  0.00     0.101 A 
HETATM   27  C   UNK N   1      27.812  19.741   4.506  0.00  0.00     0.038 A 
HETATM   28  C   UNK N   1      26.916  20.261   3.565  0.00  0.00     0.046 A 
HETATM   29  C   UNK N   1      25.560  19.926   3.635  0.00  0.00     0.131 A 
HETATM   30  C   UNK N   1      25.112  19.093   4.654  0.00  0.00     0.130 A 
HETATM   31  F   UNK N   1      24.682  20.403   2.723  0.00  0.00    -0.205 F 
HETATM   32  N   UNK N   1      25.993  18.605   5.559  0.00  0.00    -0.359 N 
ATOM     33  HN  UNK N   1      25.651  17.990   6.297  1.00  0.00     0.165 HD
ENDBRANCH  23  26
ENDBRANCH   3  22
TORSDOF 3
ENDMDL
MODEL 3
REMARK VINA RESULT:      -8.1      4.650      9.068
REMARK  3 active torsions:
REMARK  status: ('A' for Active; 'I' for Inactive)
REMARK    1  A    between atoms: C_2  and  C_13 
REMARK       I    between atoms: C_8  and  N_11 
REMARK    2  A    between atoms: C_15  and  N_20 
REMARK       I    between atoms: N_20  and  C_21 
REMARK    3  A    between atoms: C_21  and  C_23 
ROOT
HETATM    1  C   UNK N   1      22.995  18.472   4.307  0.00  0.00     0.012 A 
HETATM    2  C   UNK N   1      24.382  18.626   4.461  0.00  0.00     0.042 A 
HETATM    3  C   UNK N   1      25.061  19.679   3.829  0.00  0.00     0.035 A 
HETATM    4  C   UNK N   1      24.353  20.564   3.018  0.00  0.00     0.032 A 
HETATM    5  C   UNK N   1      22.982  20.417   2.840  0.00  0.00     0.045 A 
HETATM    6  C   UNK N   1      22.302  19.373   3.465  0.00  0.00     0.125 A 
HETATM    7  F   UNK N   1      20.967  19.249   3.263  0.00  0.00    -0.205 F 
ENDROOT
BRANCH   1   8
HETATM    8  C   UNK N   1      22.252  17.383   5.057  0.00  0.00     0.088 C 
HETATM    9  C   UNK N   1      21.329  16.641   4.092  0.00  0.00     0.045 C 
HETATM   10  C   UNK N   1      21.432  18.107   6.127  0.00  0.00     0.200 C 
HETATM   11  S   UNK N   1      20.666  16.898   7.190  0.00  0.00     0.248 S 
HETATM   12  O   UNK N   1      19.332  16.293   6.732  0.00  0.00    -0.205 OA
HETATM   13  O   UNK N   1      20.431  17.374   8.631  0.00  0.00    -0.205 OA
HETATM   14  N   UNK N   1      21.768  15.562   7.342  0.00  0.00    -0.113 N 
HETATM   15  C   UNK N   1      22.983  15.562   6.588  0.00  0.00     0.683 C 
HETATM   16  C   UNK N   1      21.569  14.604   8.402  0.00  0.00     0.189 C 
HETATM   17  N   UNK N   1      23.197  16.418   5.626  0.00  0.00    -0.212 N 
HETATM   18  N   UNK N   1      24.006  14.647   6.916  0.00  0.00    -0.234 N 
ATOM     19  HN  UNK N   1      24.133  16.415   5.223  1.00  0.00     0.179 HD
HETATM   20  H   UNK N   1      24.892  14.674   6.488  0.00  0.00     0.174 HD
HETATM   21  H   UNK N   1      23.827  13.958   7.596  0.00  0.00     0.174 HD
ENDBRANCH   1   8
BRANCH   3  22
HETATM   22  N   UNK N   1      26.469  19.695   3.734  0.00  0.00    -0.322 N 
HETATM   23  C   UNK N   1      27.284  20.144   4.713  0.00  0.00     0.272 C 
HETATM   24  O   UNK N   1      27.078  21.211   5.277  0.00  0.00    -0.266 OA
HETATM   25  H   UNK N   1      26.881  19.360   2.905  0.00  0.00     0.169 HD
BRANCH  23  26
HETATM   26  C   UNK N   1      28.200  19.149   5.280  0.00  0.00     0.101 A 
HETATM   27  C   UNK N   1      28.177  18.804   6.635  0.00  0.00     0.038 A 
HETATM   28  C   UNK N   1      28.956  17.728   7.073  0.00  0.00     0.046 A 
HETATM   29  C   UNK N   1      29.724  17.004   6.155  0.00  0.00     0.131 A 
HETATM   30  C   UNK N   1      29.719  17.376   4.815  0.00  0.00     0.130 A 
HETATM   31  F   UNK N   1      30.468  15.948   6.556  0.00  0.00    -0.205 F 
HETATM   32  N   UNK N   1      28.963  18.425   4.412  0.00  0.00    -0.359 N 
ATOM     33  HN  UNK N   1      28.965  18.682   3.425  1.00  0.00     0.165 HD
ENDBRANCH  23  26
ENDBRANCH   3  22
TORSDOF 3
ENDMDL
MODEL 4
REMARK VINA RESULT:      -8.0      1.885      2.129
REMARK  3 active torsions:
REMARK  status: ('A' for Active; 'I' for Inactive)
REMARK    1  A    between atoms: C_2  and  C_13 
REMARK       I    between atoms: C_8  and  N_11 
REMARK    2  A    between atoms: C_15  and  N_20 
REMARK       I    between atoms: N_20  and  C_21 
REMARK    3  A    between atoms: C_21  and  C_23 
ROOT
HETATM    1  C   UNK N   1      30.460  17.368   7.032  0.00  0.00     0.012 A 
HETATM    2  C   UNK N   1      29.865  17.583   5.779  0.00  0.00     0.042 A 
HETATM    3  C   UNK N   1      28.649  18.275   5.673  0.00  0.00     0.035 A 
HETATM    4  C   UNK N   1      28.015  18.731   6.827  0.00  0.00     0.032 A 
HETATM    5  C   UNK N   1      28.582  18.512   8.077  0.00  0.00     0.045 A 
HETATM    6  C   UNK N   1      29.788  17.825   8.190  0.00  0.00     0.125 A 
HETATM    7  F   UNK N   1      30.310  17.618   9.424  0.00  0.00    -0.205 F 
ENDROOT
BRANCH   1   8
HETATM    8  C   UNK N   1      31.815  16.692   7.137  0.00  0.00     0.088 C 
HETATM    9  C   UNK N   1      32.821  17.665   7.748  0.00  0.00     0.045 C 
HETATM   10  C   UNK N   1      32.213  16.347   5.701  0.00  0.00     0.200 C 
HETATM   11  S   UNK N   1      33.708  15.375   5.730  0.00  0.00     0.248 S 
HETATM   12  O   UNK N   1      35.044  16.129   5.804  0.00  0.00    -0.205 OA
HETATM   13  O   UNK N   1      33.853  14.392   4.559  0.00  0.00    -0.205 OA
HETATM   14  N   UNK N   1      33.650  14.368   7.146  0.00  0.00    -0.113 N 
HETATM   15  C   UNK N   1      32.565  14.509   8.066  0.00  0.00     0.683 C 
HETATM   16  C   UNK N   1      34.549  13.244   7.246  0.00  0.00     0.189 C 
HETATM   17  N   UNK N   1      31.731  15.511   8.000  0.00  0.00    -0.212 N 
HETATM   18  N   UNK N   1      32.351  13.517   9.047  0.00  0.00    -0.234 N 
ATOM     19  HN  UNK N   1      30.926  15.467   8.624  1.00  0.00     0.179 HD
HETATM   20  H   UNK N   1      31.564  13.524   9.638  0.00  0.00     0.174 HD
HETATM   21  H   UNK N   1      33.011  12.793   9.143  0.00  0.00     0.174 HD
ENDBRANCH   1   8
BRANCH   3  22
HETATM   22  N   UNK N   1      27.896  18.260   4.480  0.00  0.00    -0.322 N 
HETATM   23  C   UNK N   1      26.665  17.715   4.374  0.00  0.00     0.272 C 
HETATM   24  O   UNK N   1      26.419  16.600   4.816  0.00  0.00    -0.266 OA
HETATM   25  H   UNK N   1      28.291  18.670   3.677  0.00  0.00     0.169 HD
BRANCH  23  26
HETATM   26  C   UNK N   1      25.588  18.646   4.020  0.00  0.00     0.101 A 
HETATM   27  C   UNK N   1      25.821  19.803   3.271  0.00  0.00     0.038 A 
HETATM   28  C   UNK N   1      24.728  20.552   2.824  0.00  0.00     0.046 A 
HETATM   29  C   UNK N   1      23.426  20.124   3.109  0.00  0.00     0.131 A 
HETATM   30  C   UNK N   1      23.235  18.967   3.855  0.00  0.00     0.130 A 
HETATM   31  F   UNK N   1      22.356  20.824   2.668  0.00  0.00    -0.205 F 
HETATM   32  N   UNK N   1      24.307  18.260   4.286  0.00  0.00    -0.359 N 
ATOM     33  HN  UNK N   1      24.150  17.409   4.826  1.00  0.00     0.165 HD
ENDBRANCH  23  26
ENDBRANCH   3  22
TORSDOF 3
ENDMDL
MODEL 5
REMARK VINA RESULT:      -7.9      3.612      5.165
REMARK  3 active torsions:
REMARK  status: ('A' for Active; 'I' for Inactive)
REMARK    1  A    between atoms: C_2  and  C_13 
REMARK       I    between atoms: C_8  and  N_11 
REMARK    2  A    between atoms: C_15  and  N_20 
REMARK       I    between atoms: N_20  and  C_21 
REMARK    3  A    between atoms: C_21  and  C_23 
ROOT
HETATM    1  C   UNK N   1      33.640  15.828   8.958  0.00  0.00     0.012 A 
HETATM    2  C   UNK N   1      32.406  15.616   8.323  0.00  0.00     0.042 A 
HETATM    3  C   UNK N   1      31.745  16.668   7.670  0.00  0.00     0.035 A 
HETATM    4  C   UNK N   1      32.310  17.942   7.676  0.00  0.00     0.032 A 
HETATM    5  C   UNK N   1      33.522  18.175   8.315  0.00  0.00     0.045 A 
HETATM    6  C   UNK N   1      34.183  17.134   8.965  0.00  0.00     0.125 A 
HETATM    7  F   UNK N   1      35.358  17.395   9.589  0.00  0.00    -0.205 F 
ENDROOT
BRANCH   1   8
HETATM    8  C   UNK N   1      34.390  14.671   9.590  0.00  0.00     0.088 C 
HETATM    9  C   UNK N   1      33.651  13.367   9.299  0.00  0.00     0.045 C 
HETATM   10  C   UNK N   1      34.393  14.957  11.094  0.00  0.00     0.200 C 
HETATM   11  S   UNK N   1      35.418  13.749  11.912  0.00  0.00     0.248 S 
HETATM   12  O   UNK N   1      34.776  12.404  12.279  0.00  0.00    -0.205 OA
HETATM   13  O   UNK N   1      36.090  14.251  13.199  0.00  0.00    -0.205 OA
HETATM   14  N   UNK N   1      36.737  13.373  10.845  0.00  0.00    -0.113 N 
HETATM   15  C   UNK N   1      36.770  13.948   9.537  0.00  0.00     0.683 C 
HETATM   16  C   UNK N   1      37.897  12.695  11.373  0.00  0.00     0.189 C 
HETATM   17  N   UNK N   1      35.741  14.572   9.032  0.00  0.00    -0.212 N 
HETATM   18  N   UNK N   1      37.960  13.889   8.780  0.00  0.00    -0.234 N 
ATOM     19  HN  UNK N   1      35.895  15.046   8.142  1.00  0.00     0.179 HD
HETATM   20  H   UNK N   1      38.058  14.352   7.917  0.00  0.00     0.174 HD
HETATM   21  H   UNK N   1      38.719  13.366   9.127  0.00  0.00     0.174 HD
ENDBRANCH   1   8
BRANCH   3  22
HETATM   22  N   UNK N   1      30.396  16.557   7.275  0.00  0.00    -0.322 N 
HETATM   23  C   UNK N   1      29.381  17.225   7.865  0.00  0.00     0.272 C 
HETATM   24  O   UNK N   1      29.263  17.262   9.083  0.00  0.00    -0.266 OA
HETATM   25  H   UNK N   1      30.180  15.956   6.526  0.00  0.00     0.169 HD
BRANCH  23  26
HETATM   26  C   UNK N   1      28.653  18.162   7.003  0.00  0.00     0.101 A 
HETATM   27  C   UNK N   1      28.041  19.315   7.507  0.00  0.00     0.038 A 
HETATM   28  C   UNK N   1      27.515  20.249   6.609  0.00  0.00     0.046 A 
HETATM   29  C   UNK N   1      27.627  20.032   5.231  0.00  0.00     0.131 A 
HETATM   30  C   UNK N   1      28.244  18.874   4.769  0.00  0.00     0.130 A 
HETATM   31  F   UNK N   1      27.142  20.933   4.347  0.00  0.00    -0.205 F 
HETATM   32  N   UNK N   1      28.740  17.978   5.654  0.00  0.00    -0.359 N 
ATOM     33  HN  UNK N   1      29.196  17.137   5.300  1.00  0.00     0.165 HD
ENDBRANCH  23  26
ENDBRANCH   3  22
TORSDOF 3
ENDMDL
MODEL 6
REMARK VINA RESULT:      -7.7      6.763     10.303
REMARK  3 active torsions:
REMARK  status: ('A' for Active; 'I' for Inactive)
REMARK    1  A    between atoms: C_2  and  C_13 
REMARK       I    between atoms: C_8  and  N_11 
REMARK    2  A    between atoms: C_15  and  N_20 
REMARK       I    between atoms: N_20  and  C_21 
REMARK    3  A    between atoms: C_21  and  C_23 
ROOT
HETATM    1  C   UNK N   1      35.786  12.536  13.050  0.00  0.00     0.012 A 
HETATM    2  C   UNK N   1      35.154  13.763  12.793  0.00  0.00     0.042 A 
HETATM    3  C   UNK N   1      34.772  14.114  11.489  0.00  0.00     0.035 A 
HETATM    4  C   UNK N   1      35.047  13.243  10.435  0.00  0.00     0.032 A 
HETATM    5  C   UNK N   1      35.687  12.031  10.670  0.00  0.00     0.045 A 
HETATM    6  C   UNK N   1      36.069  11.678  11.962  0.00  0.00     0.125 A 
HETATM    7  F   UNK N   1      36.701  10.495  12.156  0.00  0.00    -0.205 F 
ENDROOT
BRANCH   1   8
HETATM    8  C   UNK N   1      36.122  12.125  14.471  0.00  0.00     0.088 C 
HETATM    9  C   UNK N   1      37.627  11.887  14.587  0.00  0.00     0.045 C 
HETATM   10  C   UNK N   1      35.357  10.823  14.715  0.00  0.00     0.200 C 
HETATM   11  S   UNK N   1      35.536  10.356  16.426  0.00  0.00     0.248 S 
HETATM   12  O   UNK N   1      36.791   9.564  16.819  0.00  0.00    -0.205 OA
HETATM   13  O   UNK N   1      34.351   9.562  16.997  0.00  0.00    -0.205 OA
HETATM   14  N   UNK N   1      35.580  11.817  17.366  0.00  0.00    -0.113 N 
HETATM   15  C   UNK N   1      35.571  13.082  16.700  0.00  0.00     0.683 C 
HETATM   16  C   UNK N   1      35.373  11.742  18.792  0.00  0.00     0.189 C 
HETATM   17  N   UNK N   1      35.749  13.185  15.412  0.00  0.00    -0.212 N 
HETATM   18  N   UNK N   1      35.313  14.257  17.441  0.00  0.00    -0.234 N 
ATOM     19  HN  UNK N   1      35.613  14.113  15.012  1.00  0.00     0.179 HD
HETATM   20  H   UNK N   1      35.204  15.135  17.011  0.00  0.00     0.174 HD
HETATM   21  H   UNK N   1      35.241  14.194  18.421  0.00  0.00     0.174 HD
ENDBRANCH   1   8
BRANCH   3  22
HETATM   22  N   UNK N   1      34.401  15.434  11.160  0.00  0.00    -0.322 N 
HETATM   23  C   UNK N   1      35.181  16.283  10.457  0.00  0.00     0.272 C 
HETATM   24  O   UNK N   1      36.365  16.437  10.729  0.00  0.00    -0.266 OA
HETATM   25  H   UNK N   1      33.521  15.757  11.462  0.00  0.00     0.169 HD
BRANCH  23  26
HETATM   26  C   UNK N   1      34.632  16.732   9.173  0.00  0.00     0.101 A 
HETATM   27  C   UNK N   1      34.953  16.103   7.966  0.00  0.00     0.038 A 
HETATM   28  C   UNK N   1      34.262  16.472   6.807  0.00  0.00     0.046 A 
HETATM   29  C   UNK N   1      33.253  17.439   6.874  0.00  0.00     0.131 A 
HETATM   30  C   UNK N   1      32.962  18.041   8.093  0.00  0.00     0.130 A 
HETATM   31  F   UNK N   1      32.561  17.794   5.768  0.00  0.00    -0.205 F 
HETATM   32  N   UNK N   1      33.647  17.676   9.203  0.00  0.00    -0.359 N 
ATOM     33  HN  UNK N   1      33.418  18.121  10.091  1.00  0.00     0.165 HD
ENDBRANCH  23  26
ENDBRANCH   3  22
TORSDOF 3
ENDMDL
MODEL 7
REMARK VINA RESULT:      -7.7      3.668      6.218
REMARK  3 active torsions:
REMARK  status: ('A' for Active; 'I' for Inactive)
REMARK    1  A    between atoms: C_2  and  C_13 
REMARK       I    between atoms: C_8  and  N_11 
REMARK    2  A    between atoms: C_15  and  N_20 
REMARK       I    between atoms: N_20  and  C_21 
REMARK    3  A    between atoms: C_21  and  C_23 
ROOT
HETATM    1  C   UNK N   1      25.558  19.299   4.419  0.00  0.00     0.012 A 
HETATM    2  C   UNK N   1      24.435  18.609   4.901  0.00  0.00     0.042 A 
HETATM    3  C   UNK N   1      23.168  18.817   4.334  0.00  0.00     0.035 A 
HETATM    4  C   UNK N   1      23.021  19.739   3.299  0.00  0.00     0.032 A 
HETATM    5  C   UNK N   1      24.120  20.444   2.821  0.00  0.00     0.045 A 
HETATM    6  C   UNK N   1      25.380  20.242   3.381  0.00  0.00     0.125 A 
HETATM    7  F   UNK N   1      26.430  20.953   2.900  0.00  0.00    -0.205 F 
ENDROOT
BRANCH   1   8
HETATM    8  C   UNK N   1      26.938  19.011   4.979  0.00  0.00     0.088 C 
HETATM    9  C   UNK N   1      27.924  20.055   4.458  0.00  0.00     0.045 C 
HETATM   10  C   UNK N   1      27.310  17.622   4.457  0.00  0.00     0.200 C 
HETATM   11  S   UNK N   1      28.841  17.108   5.215  0.00  0.00     0.248 S 
HETATM   12  O   UNK N   1      30.149  17.581   4.567  0.00  0.00    -0.205 OA
HETATM   13  O   UNK N   1      28.990  15.588   5.383  0.00  0.00    -0.205 OA
HETATM   14  N   UNK N   1      28.858  17.733   6.837  0.00  0.00    -0.113 N 
HETATM   15  C   UNK N   1      27.793  18.581   7.275  0.00  0.00     0.683 C 
HETATM   16  C   UNK N   1      29.800  17.195   7.788  0.00  0.00     0.189 C 
HETATM   17  N   UNK N   1      26.922  19.080   6.442  0.00  0.00    -0.212 N 
HETATM   18  N   UNK N   1      27.642  18.852   8.652  0.00  0.00    -0.234 N 
ATOM     19  HN  UNK N   1      26.135  19.578   6.859  1.00  0.00     0.179 HD
HETATM   20  H   UNK N   1      26.872  19.351   9.008  0.00  0.00     0.174 HD
HETATM   21  H   UNK N   1      28.331  18.532   9.278  0.00  0.00     0.174 HD
ENDBRANCH   1   8
BRANCH   3  22
HETATM   22  N   UNK N   1      21.993  18.362   4.970  0.00  0.00    -0.322 N 
HETATM   23  C   UNK N   1      21.631  17.063   5.041  0.00  0.00     0.272 C 
HETATM   24  O   UNK N   1      21.656  16.338   4.055  0.00  0.00    -0.266 OA
HETATM   25  H   UNK N   1      21.402  19.031   5.385  0.00  0.00     0.169 HD
BRANCH  23  26
HETATM   26  C   UNK N   1      21.541  16.504   6.394  0.00  0.00     0.101 A 
HETATM   27  C   UNK N   1      20.688  17.037   7.365  0.00  0.00     0.038 A 
HETATM   28  C   UNK N   1      20.524  16.352   8.573  0.00  0.00     0.046 A 
HETATM   29  C   UNK N   1      21.193  15.141   8.784  0.00  0.00     0.131 A 
HETATM   30  C   UNK N   1      22.032  14.642   7.794  0.00  0.00     0.130 A 
HETATM   31  F   UNK N   1      21.032  14.454   9.937  0.00  0.00    -0.205 F 
HETATM   32  N   UNK N   1      22.183  15.324   6.634  0.00  0.00    -0.359 N 
ATOM     33  HN  UNK N   1      22.796  14.942   5.914  1.00  0.00     0.165 HD
ENDBRANCH  23  26
ENDBRANCH   3  22
TORSDOF 3
ENDMDL
MODEL 8
REMARK VINA RESULT:      -7.7      5.179     10.428
REMARK  3 active torsions:
REMARK  status: ('A' for Active; 'I' for Inactive)
REMARK    1  A    between atoms: C_2  and  C_13 
REMARK       I    between atoms: C_8  and  N_11 
REMARK    2  A    between atoms: C_15  and  N_20 
REMARK       I    between atoms: N_20  and  C_21 
REMARK    3  A    between atoms: C_21  and  C_23 
ROOT
HETATM    1  C   UNK N   1      33.799  15.960   8.385  0.00  0.00     0.012 A 
HETATM    2  C   UNK N   1      33.612  14.867   9.245  0.00  0.00     0.042 A 
HETATM    3  C   UNK N   1      34.156  14.872  10.539  0.00  0.00     0.035 A 
HETATM    4  C   UNK N   1      34.911  15.964  10.963  0.00  0.00     0.032 A 
HETATM    5  C   UNK N   1      35.120  17.048  10.118  0.00  0.00     0.045 A 
HETATM    6  C   UNK N   1      34.583  17.049   8.832  0.00  0.00     0.125 A 
HETATM    7  F   UNK N   1      34.814  18.116   8.028  0.00  0.00    -0.205 F 
ENDROOT
BRANCH   1   8
HETATM    8  C   UNK N   1      33.140  15.986   7.018  0.00  0.00     0.088 C 
HETATM    9  C   UNK N   1      34.192  16.299   5.956  0.00  0.00     0.045 C 
HETATM   10  C   UNK N   1      32.102  17.107   7.085  0.00  0.00     0.200 C 
HETATM   11  S   UNK N   1      31.138  17.096   5.584  0.00  0.00     0.248 S 
HETATM   12  O   UNK N   1      31.706  17.842   4.369  0.00  0.00    -0.205 OA
HETATM   13  O   UNK N   1      29.698  17.607   5.747  0.00  0.00    -0.205 OA
HETATM   14  N   UNK N   1      30.963  15.439   5.087  0.00  0.00    -0.113 N 
HETATM   15  C   UNK N   1      31.635  14.410   5.819  0.00  0.00     0.683 C 
HETATM   16  C   UNK N   1      29.956  15.101   4.112  0.00  0.00     0.189 C 
HETATM   17  N   UNK N   1      32.547  14.683   6.712  0.00  0.00    -0.212 N 
HETATM   18  N   UNK N   1      31.274  13.061   5.613  0.00  0.00    -0.234 N 
ATOM     19  HN  UNK N   1      32.887  13.894   7.261  1.00  0.00     0.179 HD
HETATM   20  H   UNK N   1      31.641  12.330   6.160  0.00  0.00     0.174 HD
HETATM   21  H   UNK N   1      30.634  12.844   4.898  0.00  0.00     0.174 HD
ENDBRANCH   1   8
BRANCH   3  22
HETATM   22  N   UNK N   1      34.228  13.694  11.312  0.00  0.00    -0.322 N 
HETATM   23  C   UNK N   1      35.385  13.135  11.727  0.00  0.00     0.272 C 
HETATM   24  O   UNK N   1      36.323  12.965  10.960  0.00  0.00    -0.266 OA
HETATM   25  H   UNK N   1      33.384  13.253  11.564  0.00  0.00     0.169 HD
BRANCH  23  26
HETATM   26  C   UNK N   1      35.570  13.065  13.180  0.00  0.00     0.101 A 
HETATM   27  C   UNK N   1      36.484  13.880  13.854  0.00  0.00     0.038 A 
HETATM   28  C   UNK N   1      36.485  13.884  15.253  0.00  0.00     0.046 A 
HETATM   29  C   UNK N   1      35.565  13.096  15.953  0.00  0.00     0.131 A 
HETATM   30  C   UNK N   1      34.670  12.300  15.248  0.00  0.00     0.130 A 
HETATM   31  F   UNK N   1      35.538  13.101  17.305  0.00  0.00    -0.205 F 
HETATM   32  N   UNK N   1      34.689  12.305  13.894  0.00  0.00    -0.359 N 
ATOM     33  HN  UNK N   1      34.022  11.721  13.390  1.00  0.00     0.165 HD
ENDBRANCH  23  26
ENDBRANCH   3  22
TORSDOF 3
ENDMDL
MODEL 9
REMARK VINA RESULT:      -7.7      4.494      9.470
REMARK  3 active torsions:
REMARK  status: ('A' for Active; 'I' for Inactive)
REMARK    1  A    between atoms: C_2  and  C_13 
REMARK       I    between atoms: C_8  and  N_11 
REMARK    2  A    between atoms: C_15  and  N_20 
REMARK       I    between atoms: N_20  and  C_21 
REMARK    3  A    between atoms: C_21  and  C_23 
ROOT
HETATM    1  C   UNK N   1      23.213  18.557   4.480  0.00  0.00     0.012 A 
HETATM    2  C   UNK N   1      24.509  18.580   5.018  0.00  0.00     0.042 A 
HETATM    3  C   UNK N   1      25.456  19.512   4.565  0.00  0.00     0.035 A 
HETATM    4  C   UNK N   1      25.111  20.405   3.553  0.00  0.00     0.032 A 
HETATM    5  C   UNK N   1      23.837  20.385   2.997  0.00  0.00     0.045 A 
HETATM    6  C   UNK N   1      22.893  19.462   3.442  0.00  0.00     0.125 A 
HETATM    7  F   UNK N   1      21.663  19.460   2.872  0.00  0.00    -0.205 F 
ENDROOT
BRANCH   1   8
HETATM    8  C   UNK N   1      22.168  17.604   5.029  0.00  0.00     0.088 C 
HETATM    9  C   UNK N   1      21.317  18.330   6.069  0.00  0.00     0.045 C 
HETATM   10  C   UNK N   1      22.953  16.466   5.685  0.00  0.00     0.200 C 
HETATM   11  S   UNK N   1      21.814  15.193   6.196  0.00  0.00     0.248 S 
HETATM   12  O   UNK N   1      21.128  15.359   7.560  0.00  0.00    -0.205 OA
HETATM   13  O   UNK N   1      22.403  13.774   6.200  0.00  0.00    -0.205 OA
HETATM   14  N   UNK N   1      20.533  15.135   5.023  0.00  0.00    -0.113 N 
HETATM   15  C   UNK N   1      20.509  16.090   3.959  0.00  0.00     0.683 C 
HETATM   16  C   UNK N   1      19.662  13.985   4.989  0.00  0.00     0.189 C 
HETATM   17  N   UNK N   1      21.287  17.137   3.955  0.00  0.00    -0.212 N 
HETATM   18  N   UNK N   1      19.659  15.877   2.852  0.00  0.00    -0.234 N 
ATOM     19  HN  UNK N   1      21.280  17.699   3.104  1.00  0.00     0.179 HD
HETATM   20  H   UNK N   1      19.678  16.456   2.057  0.00  0.00     0.174 HD
HETATM   21  H   UNK N   1      19.025  15.124   2.877  0.00  0.00     0.174 HD
ENDBRANCH   1   8
BRANCH   3  22
HETATM   22  N   UNK N   1      26.826  19.379   4.876  0.00  0.00    -0.322 N 
HETATM   23  C   UNK N   1      27.402  19.903   5.979  0.00  0.00     0.272 C 
HETATM   24  O   UNK N   1      27.201  21.062   6.316  0.00  0.00    -0.266 OA
HETATM   25  H   UNK N   1      27.396  18.875   4.250  0.00  0.00     0.169 HD
BRANCH  23  26
HETATM   26  C   UNK N   1      27.988  18.932   6.910  0.00  0.00     0.101 A 
HETATM   27  C   UNK N   1      28.945  17.996   6.505  0.00  0.00     0.038 A 
HETATM   28  C   UNK N   1      29.585  17.220   7.476  0.00  0.00     0.046 A 
HETATM   29  C   UNK N   1      29.279  17.403   8.829  0.00  0.00     0.131 A 
HETATM   30  C   UNK N   1      28.323  18.345   9.192  0.00  0.00     0.130 A 
HETATM   31  F   UNK N   1      29.902  16.676   9.783  0.00  0.00    -0.205 F 
HETATM   32  N   UNK N   1      27.709  19.082   8.237  0.00  0.00    -0.359 N 
ATOM     33  HN  UNK N   1      27.015  19.774   8.519  1.00  0.00     0.165 HD
ENDBRANCH  23  26
ENDBRANCH   3  22
TORSDOF 3
ENDMDL
