REMARK  12 active torsions:
REMARK  status: ('A' for Active; 'I' for Inactive)
REMARK    1  A    between atoms: C_11  and  C_3 
REMARK    2  A    between atoms: C_16  and  C_3 
REMARK    3  A    between atoms: C_15  and  C_7 
REMARK    4  A    between atoms: C_17  and  C_7 
REMARK    5  A    between atoms: C_12  and  C_9 
REMARK    6  A    between atoms: N_25  and  C_9 
REMARK    7  A    between atoms: C_18  and  C_16 
REMARK    8  A    between atoms: C_16  and  N_24 
REMARK    9  A    between atoms: C_19  and  C_17 
REMARK   10  A    between atoms: C_17  and  N_24 
REMARK   11  A    between atoms: O_27  and  C_18 
REMARK   12  A    between atoms: O_29  and  C_19 
ROOT
HETATM    1  C   UNK N   1       3.714  -7.197  -0.306  0.00  0.00     0.094 C 
ENDROOT
BRANCH   1   2
HETATM    2  C   UNK N   1       5.189  -7.226  -0.584  0.00  0.00     0.030 A 
HETATM    3  C   UNK N   1       5.887  -6.378  -1.419  0.00  0.00     0.114 A 
HETATM    4  N   UNK N   1       7.197  -6.696  -1.331  0.00  0.00    -0.360 N 
HETATM    5  C   UNK N   1       7.277  -7.717  -0.448  0.00  0.00     0.183 A 
ATOM      6  HN  UNK N   1       7.969  -6.255  -1.830  1.00  0.00     0.166 HD
HETATM    7  N   UNK N   1       6.057  -8.055   0.007  0.00  0.00    -0.341 N 
BRANCH   7   8
HETATM    8  C   UNK N   1       5.736  -9.083   0.996  0.00  0.00     0.168 C 
BRANCH   8   9
HETATM    9  C   UNK N   1       6.275 -10.412   0.595  0.00  0.00    -0.037 A 
HETATM   10  C   UNK N   1       7.657 -10.616   0.562  0.00  0.00     0.032 A 
HETATM   11  C   UNK N   1       8.174 -11.857   0.197  0.00  0.00     0.036 A 
HETATM   12  C   UNK N   1       7.309 -12.904  -0.134  0.00  0.00     0.047 A 
HETATM   13 Cl   UNK N   1       9.906 -12.094   0.152  0.00  0.00    -0.084 Cl
HETATM   14  C   UNK N   1       5.924 -12.705  -0.096  0.00  0.00     0.036 A 
HETATM   15  C   UNK N   1       5.406 -11.458   0.271  0.00  0.00     0.032 A 
HETATM   16 Cl   UNK N   1       4.843 -14.017  -0.509  0.00  0.00    -0.084 Cl
ENDBRANCH   8   9
ENDBRANCH   7   8
ENDBRANCH   1   2
BRANCH   1  17
HETATM   17  C   UNK N   1       3.306  -5.905   0.421  0.00  0.00     0.181 C 
BRANCH  17  18
HETATM   18  C   UNK N   1       3.969  -5.736   1.767  0.00  0.00     0.163 C 
HETATM   19  O   UNK N   1       4.711  -6.590   2.223  0.00  0.00    -0.648 OA
BRANCH  18  20
HETATM   20  O   UNK N   1       3.731  -4.620   2.482  0.00  0.00    -0.775 OA
HETATM   21  H   UNK N   1       4.321  -4.089   2.980  0.00  0.00     0.167 HD
ENDBRANCH  18  20
ENDBRANCH  17  18
BRANCH  17  22
HETATM   22  N   UNK N   1       1.850  -5.891   0.642  0.00  0.00    -0.395 N 
HETATM   23  H   UNK N   1       1.405  -6.296   1.465  0.00  0.00     0.155 HD
BRANCH  22  24
HETATM   24  C   UNK N   1       1.104  -5.238  -0.440  0.00  0.00     0.176 C 
BRANCH  24  25
HETATM   25  C   UNK N   1      -0.406  -5.493  -0.243  0.00  0.00     0.039 C 
BRANCH  25  26
HETATM   26  C   UNK N   1      -1.191  -4.409   0.495  0.00  0.00    -0.020 C 
HETATM   27  C   UNK N   1      -2.424  -5.007   1.135  0.00  0.00     0.009 C 
HETATM   28  C   UNK N   1      -1.636  -3.357  -0.506  0.00  0.00     0.009 C 
ENDBRANCH  25  26
ENDBRANCH  24  25
BRANCH  24  29
HETATM   29  C   UNK N   1       1.462  -3.768  -0.513  0.00  0.00     0.163 C 
HETATM   30  O   UNK N   1       1.337  -3.052   0.469  0.00  0.00    -0.648 OA
BRANCH  29  31
HETATM   31  O   UNK N   1       1.971  -3.255  -1.649  0.00  0.00    -0.775 OA
HETATM   32  H   UNK N   1       2.457  -3.384  -2.439  0.00  0.00     0.167 HD
ENDBRANCH  29  31
ENDBRANCH  24  29
ENDBRANCH  22  24
ENDBRANCH  17  22
ENDBRANCH   1  17
TORSDOF 12
