MODEL 1
REMARK VINA RESULT:      -7.0      0.000      0.000
REMARK  6 active torsions:
REMARK  status: ('A' for Active; 'I' for Inactive)
REMARK    1  A    between atoms: C_8  and  C_7 
REMARK    2  A    between atoms: C_12  and  C_7 
REMARK    3  A    between atoms: C_17  and  C_8 
REMARK    4  A    between atoms: C_16  and  C_9 
REMARK    5  A    between atoms: O_23  and  C_17 
REMARK    6  A    between atoms: O_24  and  C_18 
ROOT
HETATM    1  C   UNK N   1      28.448  17.559   8.469  0.00  0.00     0.051 C 
HETATM    2  C   UNK N   1      32.116  16.842   5.021  0.00  0.00     0.068 C 
HETATM    3  C   UNK N   1      29.206  17.381   7.195  0.00  0.00    -0.027 A 
HETATM    4  C   UNK N   1      30.812  17.068   5.706  0.00  0.00     0.012 A 
HETATM    5  C   UNK N   1      30.571  17.178   7.072  0.00  0.00    -0.027 A 
HETATM    6  C   UNK N   1      28.684  17.386   5.908  0.00  0.00     0.040 A 
HETATM    7  N   UNK N   1      29.669  17.195   5.017  0.00  0.00    -0.359 N 
HETATM    8  H   UNK N   1      29.571  17.156   4.038  0.00  0.00     0.166 HD
ENDROOT
BRANCH   6   9
HETATM    9  C   UNK N   1      27.258  17.571   5.536  0.00  0.00     0.046 C 
HETATM   10  C   UNK N   1      26.774  18.591   4.782  0.00  0.00     0.029 A 
HETATM   11  C   UNK N   1      25.368  18.766   4.421  0.00  0.00     0.005 A 
HETATM   12  C   UNK N   1      27.427  19.767   4.127  0.00  0.00     0.151 A 
HETATM   13  C   UNK N   1      24.229  18.016   4.712  0.00  0.00     0.014 A 
HETATM   14  C   UNK N   1      25.297  19.907   3.660  0.00  0.00     0.045 A 
HETATM   15  C   UNK N   1      22.997  18.465   4.201  0.00  0.00     0.001 A 
HETATM   16  C   UNK N   1      22.931  19.641   3.419  0.00  0.00     0.002 A 
HETATM   17  C   UNK N   1      24.096  20.376   3.142  0.00  0.00     0.030 A 
HETATM   18  N   UNK N   1      26.567  20.490   3.502  0.00  0.00    -0.336 N 
ATOM     19  HN  UNK N   1      26.772  21.342   2.979  1.00  0.00     0.168 HD
BRANCH  12  20
HETATM   20  O   UNK N   1      28.731  20.091   4.144  0.00  0.00    -0.345 OA
HETATM   21  H   UNK N   1      29.262  19.861   4.881  0.00  0.00     0.219 HD
ENDBRANCH  12  20
ENDBRANCH   6   9
BRANCH   5  22
HETATM   22  C   UNK N   1      31.556  17.097   8.216  0.00  0.00     0.051 C 
BRANCH  22  23
HETATM   23  C   UNK N   1      32.465  18.321   8.290  0.00  0.00     0.114 C 
BRANCH  23  24
HETATM   24  C   UNK N   1      33.928  18.020   8.277  0.00  0.00     0.139 C 
HETATM   25  O   UNK N   1      34.557  18.176   7.244  0.00  0.00    -0.650 OA
BRANCH  24  26
HETATM   26  O   UNK N   1      34.557  17.580   9.383  0.00  0.00    -0.776 OA
HETATM   27  H   UNK N   1      34.303  16.767   9.774  0.00  0.00     0.167 HD
ENDBRANCH  24  26
ENDBRANCH  23  24
ENDBRANCH  22  23
ENDBRANCH   5  22
TORSDOF 6
ENDMDL
MODEL 2
REMARK VINA RESULT:      -6.9      9.313     12.141
REMARK  6 active torsions:
REMARK  status: ('A' for Active; 'I' for Inactive)
REMARK    1  A    between atoms: C_8  and  C_7 
REMARK    2  A    between atoms: C_12  and  C_7 
REMARK    3  A    between atoms: C_17  and  C_8 
REMARK    4  A    between atoms: C_16  and  C_9 
REMARK    5  A    between atoms: O_23  and  C_17 
REMARK    6  A    between atoms: O_24  and  C_18 
ROOT
HETATM    1  C   UNK N   1      34.880  12.229  13.370  0.00  0.00     0.051 C 
HETATM    2  C   UNK N   1      37.565  15.586  16.086  0.00  0.00     0.068 C 
HETATM    3  C   UNK N   1      35.671  13.417  13.807  0.00  0.00    -0.027 A 
HETATM    4  C   UNK N   1      36.838  14.869  15.002  0.00  0.00     0.012 A 
HETATM    5  C   UNK N   1      36.181  13.644  15.075  0.00  0.00    -0.027 A 
HETATM    6  C   UNK N   1      36.038  14.506  13.027  0.00  0.00     0.040 A 
HETATM    7  N   UNK N   1      36.745  15.377  13.764  0.00  0.00    -0.359 N 
HETATM    8  H   UNK N   1      37.123  16.231  13.454  0.00  0.00     0.166 HD
ENDROOT
BRANCH   6   9
HETATM    9  C   UNK N   1      35.716  14.710  11.591  0.00  0.00     0.046 C 
HETATM   10  C   UNK N   1      36.456  14.246  10.551  0.00  0.00     0.029 A 
HETATM   11  C   UNK N   1      36.131  14.451   9.141  0.00  0.00     0.005 A 
HETATM   12  C   UNK N   1      37.721  13.451  10.482  0.00  0.00     0.151 A 
HETATM   13  C   UNK N   1      35.077  15.114   8.512  0.00  0.00     0.014 A 
HETATM   14  C   UNK N   1      37.119  13.831   8.416  0.00  0.00     0.045 A 
HETATM   15  C   UNK N   1      35.056  15.129   7.104  0.00  0.00     0.001 A 
HETATM   16  C   UNK N   1      36.075  14.489   6.365  0.00  0.00     0.002 A 
HETATM   17  C   UNK N   1      37.125  13.829   7.026  0.00  0.00     0.030 A 
HETATM   18  N   UNK N   1      38.069  13.234   9.264  0.00  0.00    -0.336 N 
ATOM     19  HN  UNK N   1      38.895  12.715   8.963  1.00  0.00     0.168 HD
BRANCH  12  20
HETATM   20  O   UNK N   1      38.453  12.990  11.510  0.00  0.00    -0.345 OA
HETATM   21  H   UNK N   1      38.030  12.595  12.247  0.00  0.00     0.219 HD
ENDBRANCH  12  20
ENDBRANCH   6   9
BRANCH   5  22
HETATM   22  C   UNK N   1      36.031  12.722  16.264  0.00  0.00     0.051 C 
BRANCH  22  23
HETATM   23  C   UNK N   1      34.838  13.091  17.142  0.00  0.00     0.114 C 
BRANCH  23  24
HETATM   24  C   UNK N   1      35.190  13.750  18.435  0.00  0.00     0.139 C 
HETATM   25  O   UNK N   1      35.287  14.965  18.475  0.00  0.00    -0.650 OA
BRANCH  24  26
HETATM   26  O   UNK N   1      35.400  13.026  19.550  0.00  0.00    -0.776 OA
HETATM   27  H   UNK N   1      36.237  12.632  19.702  0.00  0.00     0.167 HD
ENDBRANCH  24  26
ENDBRANCH  23  24
ENDBRANCH  22  23
ENDBRANCH   5  22
TORSDOF 6
ENDMDL
MODEL 3
REMARK VINA RESULT:      -6.9      7.143     11.027
REMARK  6 active torsions:
REMARK  status: ('A' for Active; 'I' for Inactive)
REMARK    1  A    between atoms: C_8  and  C_7 
REMARK    2  A    between atoms: C_12  and  C_7 
REMARK    3  A    between atoms: C_17  and  C_8 
REMARK    4  A    between atoms: C_16  and  C_9 
REMARK    5  A    between atoms: O_23  and  C_17 
REMARK    6  A    between atoms: O_24  and  C_18 
ROOT
HETATM    1  C   UNK N   1      32.464  15.126   9.662  0.00  0.00     0.051 C 
HETATM    2  C   UNK N   1      36.394  14.493   6.498  0.00  0.00     0.068 C 
HETATM    3  C   UNK N   1      33.759  14.711   9.047  0.00  0.00    -0.027 A 
HETATM    4  C   UNK N   1      35.463  14.444   7.660  0.00  0.00     0.012 A 
HETATM    5  C   UNK N   1      34.222  15.062   7.789  0.00  0.00    -0.027 A 
HETATM    6  C   UNK N   1      34.732  13.902   9.620  0.00  0.00     0.040 A 
HETATM    7  N   UNK N   1      35.757  13.749   8.768  0.00  0.00    -0.359 N 
HETATM    8  H   UNK N   1      36.574  13.224   8.927  0.00  0.00     0.166 HD
ENDROOT
BRANCH   6   9
HETATM    9  C   UNK N   1      34.680  13.281  10.969  0.00  0.00     0.046 C 
HETATM   10  C   UNK N   1      35.346  13.732  12.062  0.00  0.00     0.029 A 
HETATM   11  C   UNK N   1      35.289  13.115  13.386  0.00  0.00     0.005 A 
HETATM   12  C   UNK N   1      36.271  14.887  12.281  0.00  0.00     0.151 A 
HETATM   13  C   UNK N   1      34.605  11.999  13.868  0.00  0.00     0.014 A 
HETATM   14  C   UNK N   1      36.096  13.867  14.205  0.00  0.00     0.045 A 
HETATM   15  C   UNK N   1      34.767  11.663  15.225  0.00  0.00     0.001 A 
HETATM   16  C   UNK N   1      35.599  12.440  16.062  0.00  0.00     0.002 A 
HETATM   17  C   UNK N   1      36.275  13.560  15.549  0.00  0.00     0.030 A 
HETATM   18  N   UNK N   1      36.677  14.936  13.500  0.00  0.00    -0.336 N 
ATOM     19  HN  UNK N   1      37.313  15.632  13.890  1.00  0.00     0.168 HD
BRANCH  12  20
HETATM   20  O   UNK N   1      36.672  15.795  11.376  0.00  0.00    -0.345 OA
HETATM   21  H   UNK N   1      37.181  15.527  10.635  0.00  0.00     0.219 HD
ENDBRANCH  12  20
ENDBRANCH   6   9
BRANCH   5  22
HETATM   22  C   UNK N   1      33.495  15.940   6.796  0.00  0.00     0.051 C 
BRANCH  22  23
HETATM   23  C   UNK N   1      34.139  17.316   6.653  0.00  0.00     0.114 C 
BRANCH  23  24
HETATM   24  C   UNK N   1      33.912  18.240   7.805  0.00  0.00     0.139 C 
HETATM   25  O   UNK N   1      32.803  18.299   8.309  0.00  0.00    -0.650 OA
BRANCH  24  26
HETATM   26  O   UNK N   1      34.908  19.004   8.290  0.00  0.00    -0.776 OA
HETATM   27  H   UNK N   1      35.220  18.868   9.164  0.00  0.00     0.167 HD
ENDBRANCH  24  26
ENDBRANCH  23  24
ENDBRANCH  22  23
ENDBRANCH   5  22
TORSDOF 6
ENDMDL
MODEL 4
REMARK VINA RESULT:      -6.9      7.361      8.556
REMARK  6 active torsions:
REMARK  status: ('A' for Active; 'I' for Inactive)
REMARK    1  A    between atoms: C_8  and  C_7 
REMARK    2  A    between atoms: C_12  and  C_7 
REMARK    3  A    between atoms: C_17  and  C_8 
REMARK    4  A    between atoms: C_16  and  C_9 
REMARK    5  A    between atoms: O_23  and  C_17 
REMARK    6  A    between atoms: O_24  and  C_18 
ROOT
HETATM    1  C   UNK N   1      24.147  14.234   6.349  0.00  0.00     0.051 C 
HETATM    2  C   UNK N   1      20.683  13.673  10.029  0.00  0.00     0.068 C 
HETATM    3  C   UNK N   1      22.975  14.411   7.256  0.00  0.00    -0.027 A 
HETATM    4  C   UNK N   1      21.475  14.155   8.863  0.00  0.00     0.012 A 
HETATM    5  C   UNK N   1      22.629  13.596   8.322  0.00  0.00    -0.027 A 
HETATM    6  C   UNK N   1      22.021  15.419   7.198  0.00  0.00     0.040 A 
HETATM    7  N   UNK N   1      21.120  15.251   8.177  0.00  0.00    -0.359 N 
HETATM    8  H   UNK N   1      20.341  15.825   8.358  0.00  0.00     0.166 HD
ENDROOT
BRANCH   6   9
HETATM    9  C   UNK N   1      21.975  16.533   6.214  0.00  0.00     0.046 C 
HETATM   10  C   UNK N   1      20.990  16.726   5.300  0.00  0.00     0.029 A 
HETATM   11  C   UNK N   1      20.952  17.824   4.336  0.00  0.00     0.005 A 
HETATM   12  C   UNK N   1      19.736  15.974   4.986  0.00  0.00     0.151 A 
HETATM   13  C   UNK N   1      21.824  18.886   4.095  0.00  0.00     0.014 A 
HETATM   14  C   UNK N   1      19.804  17.662   3.601  0.00  0.00     0.045 A 
HETATM   15  C   UNK N   1      21.491  19.792   3.071  0.00  0.00     0.001 A 
HETATM   16  C   UNK N   1      20.308  19.619   2.317  0.00  0.00     0.002 A 
HETATM   17  C   UNK N   1      19.448  18.539   2.583  0.00  0.00     0.030 A 
HETATM   18  N   UNK N   1      19.089  16.527   4.023  0.00  0.00    -0.336 N 
ATOM     19  HN  UNK N   1      18.206  16.198   3.630  1.00  0.00     0.168 HD
BRANCH  12  20
HETATM   20  O   UNK N   1      19.279  14.861   5.585  0.00  0.00    -0.345 OA
HETATM   21  H   UNK N   1      19.540  14.018   5.271  0.00  0.00     0.219 HD
ENDBRANCH  12  20
ENDBRANCH   6   9
BRANCH   5  22
HETATM   22  C   UNK N   1      23.383  12.365   8.770  0.00  0.00     0.051 C 
BRANCH  22  23
HETATM   23  C   UNK N   1      24.282  12.636   9.973  0.00  0.00     0.114 C 
BRANCH  23  24
HETATM   24  C   UNK N   1      23.887  11.925  11.226  0.00  0.00     0.139 C 
HETATM   25  O   UNK N   1      24.601  12.016  12.211  0.00  0.00    -0.650 OA
BRANCH  24  26
HETATM   26  O   UNK N   1      22.761  11.190  11.283  0.00  0.00    -0.776 OA
HETATM   27  H   UNK N   1      22.220  11.103  10.522  0.00  0.00     0.167 HD
ENDBRANCH  24  26
ENDBRANCH  23  24
ENDBRANCH  22  23
ENDBRANCH   5  22
TORSDOF 6
ENDMDL
MODEL 5
REMARK VINA RESULT:      -6.8      7.773     10.904
REMARK  6 active torsions:
REMARK  status: ('A' for Active; 'I' for Inactive)
REMARK    1  A    between atoms: C_8  and  C_7 
REMARK    2  A    between atoms: C_12  and  C_7 
REMARK    3  A    between atoms: C_17  and  C_8 
REMARK    4  A    between atoms: C_16  and  C_9 
REMARK    5  A    between atoms: O_23  and  C_17 
REMARK    6  A    between atoms: O_24  and  C_18 
ROOT
HETATM    1  C   UNK N   1      34.662  11.738  12.971  0.00  0.00     0.051 C 
HETATM    2  C   UNK N   1      37.243  15.412  15.359  0.00  0.00     0.068 C 
HETATM    3  C   UNK N   1      35.443  12.970  13.289  0.00  0.00    -0.027 A 
HETATM    4  C   UNK N   1      36.564  14.561  14.342  0.00  0.00     0.012 A 
HETATM    5  C   UNK N   1      35.890  13.360  14.541  0.00  0.00    -0.027 A 
HETATM    6  C   UNK N   1      35.863  13.944  12.393  0.00  0.00     0.040 A 
HETATM    7  N   UNK N   1      36.540  14.901  13.044  0.00  0.00    -0.359 N 
HETATM    8  H   UNK N   1      36.944  15.705  12.645  0.00  0.00     0.166 HD
ENDROOT
BRANCH   6   9
HETATM    9  C   UNK N   1      35.617  13.958  10.927  0.00  0.00     0.046 C 
HETATM   10  C   UNK N   1      35.275  15.054  10.203  0.00  0.00     0.029 A 
HETATM   11  C   UNK N   1      35.035  15.059   8.761  0.00  0.00     0.005 A 
HETATM   12  C   UNK N   1      35.047  16.485  10.576  0.00  0.00     0.151 A 
HETATM   13  C   UNK N   1      35.081  14.046   7.804  0.00  0.00     0.014 A 
HETATM   14  C   UNK N   1      34.717  16.351   8.421  0.00  0.00     0.045 A 
HETATM   15  C   UNK N   1      34.791  14.388   6.470  0.00  0.00     0.001 A 
HETATM   16  C   UNK N   1      34.464  15.719   6.125  0.00  0.00     0.002 A 
HETATM   17  C   UNK N   1      34.426  16.719   7.112  0.00  0.00     0.030 A 
HETATM   18  N   UNK N   1      34.734  17.191   9.548  0.00  0.00    -0.336 N 
ATOM     19  HN  UNK N   1      34.532  18.191   9.550  1.00  0.00     0.168 HD
BRANCH  12  20
HETATM   20  O   UNK N   1      35.138  17.035  11.798  0.00  0.00    -0.345 OA
HETATM   21  H   UNK N   1      35.538  16.558  12.499  0.00  0.00     0.219 HD
ENDBRANCH  12  20
ENDBRANCH   6   9
BRANCH   5  22
HETATM   22  C   UNK N   1      35.668  12.603  15.831  0.00  0.00     0.051 C 
BRANCH  22  23
HETATM   23  C   UNK N   1      34.661  13.293  16.747  0.00  0.00     0.114 C 
BRANCH  23  24
HETATM   24  C   UNK N   1      35.160  13.588  18.123  0.00  0.00     0.139 C 
HETATM   25  O   UNK N   1      35.476  14.731  18.408  0.00  0.00    -0.650 OA
BRANCH  24  26
HETATM   26  O   UNK N   1      35.266  12.615  19.047  0.00  0.00    -0.776 OA
HETATM   27  H   UNK N   1      35.767  12.762  19.826  0.00  0.00     0.167 HD
ENDBRANCH  24  26
ENDBRANCH  23  24
ENDBRANCH  22  23
ENDBRANCH   5  22
TORSDOF 6
ENDMDL
MODEL 6
REMARK VINA RESULT:      -6.8      7.925     10.343
REMARK  6 active torsions:
REMARK  status: ('A' for Active; 'I' for Inactive)
REMARK    1  A    between atoms: C_8  and  C_7 
REMARK    2  A    between atoms: C_12  and  C_7 
REMARK    3  A    between atoms: C_17  and  C_8 
REMARK    4  A    between atoms: C_16  and  C_9 
REMARK    5  A    between atoms: O_23  and  C_17 
REMARK    6  A    between atoms: O_24  and  C_18 
ROOT
HETATM    1  C   UNK N   1      21.803  18.297   5.994  0.00  0.00     0.051 C 
HETATM    2  C   UNK N   1      20.358  16.231   1.578  0.00  0.00     0.068 C 
HETATM    3  C   UNK N   1      21.538  17.350   4.870  0.00  0.00    -0.027 A 
HETATM    4  C   UNK N   1      20.904  16.465   2.943  0.00  0.00     0.012 A 
HETATM    5  C   UNK N   1      20.929  17.656   3.663  0.00  0.00    -0.027 A 
HETATM    6  C   UNK N   1      21.852  15.998   4.829  0.00  0.00     0.040 A 
HETATM    7  N   UNK N   1      21.463  15.475   3.656  0.00  0.00    -0.359 N 
HETATM    8  H   UNK N   1      21.566  14.539   3.372  0.00  0.00     0.166 HD
ENDROOT
BRANCH   6   9
HETATM    9  C   UNK N   1      22.519  15.215   5.901  0.00  0.00     0.046 C 
HETATM   10  C   UNK N   1      21.918  14.779   7.038  0.00  0.00     0.029 A 
HETATM   11  C   UNK N   1      22.582  14.008   8.088  0.00  0.00     0.005 A 
HETATM   12  C   UNK N   1      20.524  14.912   7.564  0.00  0.00     0.151 A 
HETATM   13  C   UNK N   1      23.890  13.543   8.220  0.00  0.00     0.014 A 
HETATM   14  C   UNK N   1      21.637  13.768   9.055  0.00  0.00     0.045 A 
HETATM   15  C   UNK N   1      24.216  12.816   9.380  0.00  0.00     0.001 A 
HETATM   16  C   UNK N   1      23.239  12.571  10.371  0.00  0.00     0.002 A 
HETATM   17  C   UNK N   1      21.928  13.053  10.211  0.00  0.00     0.030 A 
HETATM   18  N   UNK N   1      20.398  14.332   8.704  0.00  0.00    -0.336 N 
ATOM     19  HN  UNK N   1      19.543  14.287   9.259  1.00  0.00     0.168 HD
BRANCH  12  20
HETATM   20  O   UNK N   1      19.488  15.540   6.982  0.00  0.00    -0.345 OA
HETATM   21  H   UNK N   1      19.511  16.470   6.861  0.00  0.00     0.219 HD
ENDBRANCH  12  20
ENDBRANCH   6   9
BRANCH   5  22
HETATM   22  C   UNK N   1      20.415  19.018   3.256  0.00  0.00     0.051 C 
BRANCH  22  23
HETATM   23  C   UNK N   1      21.419  19.790   2.404  0.00  0.00     0.114 C 
BRANCH  23  24
HETATM   24  C   UNK N   1      20.855  20.395   1.161  0.00  0.00     0.139 C 
HETATM   25  O   UNK N   1      20.639  21.596   1.130  0.00  0.00    -0.650 OA
BRANCH  24  26
HETATM   26  O   UNK N   1      20.582  19.639   0.081  0.00  0.00    -0.776 OA
HETATM   27  H   UNK N   1      19.706  19.342  -0.073  0.00  0.00     0.167 HD
ENDBRANCH  24  26
ENDBRANCH  23  24
ENDBRANCH  22  23
ENDBRANCH   5  22
TORSDOF 6
ENDMDL
MODEL 7
REMARK VINA RESULT:      -6.8      2.464      7.948
REMARK  6 active torsions:
REMARK  status: ('A' for Active; 'I' for Inactive)
REMARK    1  A    between atoms: C_8  and  C_7 
REMARK    2  A    between atoms: C_12  and  C_7 
REMARK    3  A    between atoms: C_17  and  C_8 
REMARK    4  A    between atoms: C_16  and  C_9 
REMARK    5  A    between atoms: O_23  and  C_17 
REMARK    6  A    between atoms: O_24  and  C_18 
ROOT
HETATM    1  C   UNK N   1      27.891  19.958   4.856  0.00  0.00     0.051 C 
HETATM    2  C   UNK N   1      24.932  15.904   5.671  0.00  0.00     0.068 C 
HETATM    3  C   UNK N   1      27.387  18.589   5.171  0.00  0.00    -0.027 A 
HETATM    4  C   UNK N   1      26.087  16.833   5.522  0.00  0.00     0.012 A 
HETATM    5  C   UNK N   1      26.063  18.180   5.173  0.00  0.00    -0.027 A 
HETATM    6  C   UNK N   1      28.149  17.480   5.517  0.00  0.00     0.040 A 
HETATM    7  N   UNK N   1      27.348  16.424   5.726  0.00  0.00    -0.359 N 
HETATM    8  H   UNK N   1      27.632  15.518   5.983  0.00  0.00     0.166 HD
ENDROOT
BRANCH   6   9
HETATM    9  C   UNK N   1      29.629  17.432   5.645  0.00  0.00     0.046 C 
HETATM   10  C   UNK N   1      30.309  17.376   6.818  0.00  0.00     0.029 A 
HETATM   11  C   UNK N   1      31.766  17.329   6.935  0.00  0.00     0.005 A 
HETATM   12  C   UNK N   1      29.867  17.344   8.247  0.00  0.00     0.151 A 
HETATM   13  C   UNK N   1      32.780  17.330   5.978  0.00  0.00     0.014 A 
HETATM   14  C   UNK N   1      32.050  17.279   8.278  0.00  0.00     0.045 A 
HETATM   15  C   UNK N   1      34.112  17.276   6.430  0.00  0.00     0.001 A 
HETATM   16  C   UNK N   1      34.398  17.225   7.813  0.00  0.00     0.002 A 
HETATM   17  C   UNK N   1      33.355  17.226   8.755  0.00  0.00     0.030 A 
HETATM   18  N   UNK N   1      30.872  17.290   9.046  0.00  0.00    -0.336 N 
ATOM     19  HN  UNK N   1      30.824  17.259  10.065  1.00  0.00     0.168 HD
BRANCH  12  20
HETATM   20  O   UNK N   1      28.606  17.367   8.712  0.00  0.00    -0.345 OA
HETATM   21  H   UNK N   1      28.145  18.180   8.779  0.00  0.00     0.219 HD
ENDBRANCH  12  20
ENDBRANCH   6   9
BRANCH   5  22
HETATM   22  C   UNK N   1      24.871  19.053   4.853  0.00  0.00     0.051 C 
BRANCH  22  23
HETATM   23  C   UNK N   1      24.580  19.119   3.356  0.00  0.00     0.114 C 
BRANCH  23  24
HETATM   24  C   UNK N   1      24.542  20.497   2.783  0.00  0.00     0.139 C 
HETATM   25  O   UNK N   1      25.526  20.928   2.205  0.00  0.00    -0.650 OA
BRANCH  24  26
HETATM   26  O   UNK N   1      23.443  21.267   2.895  0.00  0.00    -0.776 OA
HETATM   27  H   UNK N   1      23.165  21.794   2.172  0.00  0.00     0.167 HD
ENDBRANCH  24  26
ENDBRANCH  23  24
ENDBRANCH  22  23
ENDBRANCH   5  22
TORSDOF 6
ENDMDL
MODEL 8
REMARK VINA RESULT:      -6.7      7.296     10.494
REMARK  6 active torsions:
REMARK  status: ('A' for Active; 'I' for Inactive)
REMARK    1  A    between atoms: C_8  and  C_7 
REMARK    2  A    between atoms: C_12  and  C_7 
REMARK    3  A    between atoms: C_17  and  C_8 
REMARK    4  A    between atoms: C_16  and  C_9 
REMARK    5  A    between atoms: O_23  and  C_17 
REMARK    6  A    between atoms: O_24  and  C_18 
ROOT
HETATM    1  C   UNK N   1      24.120  16.674   5.477  0.00  0.00     0.051 C 
HETATM    2  C   UNK N   1      19.192  16.040   4.401  0.00  0.00     0.068 C 
HETATM    3  C   UNK N   1      22.702  16.210   5.466  0.00  0.00    -0.027 A 
HETATM    4  C   UNK N   1      20.558  15.944   4.987  0.00  0.00     0.012 A 
HETATM    5  C   UNK N   1      21.695  16.663   4.629  0.00  0.00    -0.027 A 
HETATM    6  C   UNK N   1      22.135  15.244   6.287  0.00  0.00     0.040 A 
HETATM    7  N   UNK N   1      20.836  15.094   5.986  0.00  0.00    -0.359 N 
HETATM    8  H   UNK N   1      20.205  14.475   6.418  0.00  0.00     0.166 HD
ENDROOT
BRANCH   6   9
HETATM    9  C   UNK N   1      22.831  14.473   7.350  0.00  0.00     0.046 C 
HETATM   10  C   UNK N   1      22.244  13.993   8.478  0.00  0.00     0.029 A 
HETATM   11  C   UNK N   1      22.937  13.235   9.518  0.00  0.00     0.005 A 
HETATM   12  C   UNK N   1      20.844  14.060   9.000  0.00  0.00     0.151 A 
HETATM   13  C   UNK N   1      24.263  12.823   9.648  0.00  0.00     0.014 A 
HETATM   14  C   UNK N   1      21.999  12.940  10.477  0.00  0.00     0.045 A 
HETATM   15  C   UNK N   1      24.615  12.092  10.798  0.00  0.00     0.001 A 
HETATM   16  C   UNK N   1      23.645  11.791  11.781  0.00  0.00     0.002 A 
HETATM   17  C   UNK N   1      22.316  12.219  11.623  0.00  0.00     0.030 A 
HETATM   18  N   UNK N   1      20.738  13.457  10.130  0.00  0.00    -0.336 N 
ATOM     19  HN  UNK N   1      19.884  13.368  10.681  1.00  0.00     0.168 HD
BRANCH  12  20
HETATM   20  O   UNK N   1      19.785  14.653   8.423  0.00  0.00    -0.345 OA
HETATM   21  H   UNK N   1      19.394  14.275   7.660  0.00  0.00     0.219 HD
ENDBRANCH  12  20
ENDBRANCH   6   9
BRANCH   5  22
HETATM   22  C   UNK N   1      21.847  17.722   3.561  0.00  0.00     0.051 C 
BRANCH  22  23
HETATM   23  C   UNK N   1      21.621  19.132   4.101  0.00  0.00     0.114 C 
BRANCH  23  24
HETATM   24  C   UNK N   1      20.597  19.931   3.364  0.00  0.00     0.139 C 
HETATM   25  O   UNK N   1      19.585  19.377   2.966  0.00  0.00    -0.650 OA
BRANCH  24  26
HETATM   26  O   UNK N   1      20.774  21.245   3.134  0.00  0.00    -0.776 OA
HETATM   27  H   UNK N   1      21.535  21.680   3.465  0.00  0.00     0.167 HD
ENDBRANCH  24  26
ENDBRANCH  23  24
ENDBRANCH  22  23
ENDBRANCH   5  22
TORSDOF 6
ENDMDL
MODEL 9
REMARK VINA RESULT:      -6.6      2.533      8.060
REMARK  6 active torsions:
REMARK  status: ('A' for Active; 'I' for Inactive)
REMARK    1  A    between atoms: C_8  and  C_7 
REMARK    2  A    between atoms: C_12  and  C_7 
REMARK    3  A    between atoms: C_17  and  C_8 
REMARK    4  A    between atoms: C_16  and  C_9 
REMARK    5  A    between atoms: O_23  and  C_17 
REMARK    6  A    between atoms: O_24  and  C_18 
ROOT
HETATM    1  C   UNK N   1      27.679  20.255   5.335  0.00  0.00     0.051 C 
HETATM    2  C   UNK N   1      25.976  16.246   2.711  0.00  0.00     0.068 C 
HETATM    3  C   UNK N   1      27.487  18.889   4.765  0.00  0.00    -0.027 A 
HETATM    4  C   UNK N   1      26.735  17.153   3.617  0.00  0.00     0.012 A 
HETATM    5  C   UNK N   1      26.522  18.509   3.846  0.00  0.00    -0.027 A 
HETATM    6  C   UNK N   1      28.237  17.755   5.050  0.00  0.00     0.040 A 
HETATM    7  N   UNK N   1      27.770  16.712   4.347  0.00  0.00    -0.359 N 
HETATM    8  H   UNK N   1      28.121  15.792   4.365  0.00  0.00     0.166 HD
ENDROOT
BRANCH   6   9
HETATM    9  C   UNK N   1      29.388  17.672   5.985  0.00  0.00     0.046 C 
HETATM   10  C   UNK N   1      30.674  17.430   5.621  0.00  0.00     0.029 A 
HETATM   11  C   UNK N   1      31.801  17.350   6.549  0.00  0.00     0.005 A 
HETATM   12  C   UNK N   1      31.325  17.187   4.296  0.00  0.00     0.151 A 
HETATM   13  C   UNK N   1      31.882  17.484   7.935  0.00  0.00     0.014 A 
HETATM   14  C   UNK N   1      32.916  17.093   5.790  0.00  0.00     0.045 A 
HETATM   15  C   UNK N   1      33.147  17.347   8.536  0.00  0.00     0.001 A 
HETATM   16  C   UNK N   1      34.290  17.083   7.750  0.00  0.00     0.002 A 
HETATM   17  C   UNK N   1      34.179  16.953   6.355  0.00  0.00     0.030 A 
HETATM   18  N   UNK N   1      32.590  17.000   4.425  0.00  0.00    -0.336 N 
ATOM     19  HN  UNK N   1      33.246  16.816   3.665  1.00  0.00     0.168 HD
BRANCH  12  20
HETATM   20  O   UNK N   1      30.733  17.153   3.090  0.00  0.00    -0.345 OA
HETATM   21  H   UNK N   1      29.798  17.126   3.027  0.00  0.00     0.219 HD
ENDBRANCH  12  20
ENDBRANCH   6   9
BRANCH   5  22
HETATM   22  C   UNK N   1      25.474  19.417   3.243  0.00  0.00     0.051 C 
BRANCH  22  23
HETATM   23  C   UNK N   1      24.087  19.179   3.834  0.00  0.00     0.114 C 
BRANCH  23  24
HETATM   24  C   UNK N   1      22.998  20.005   3.232  0.00  0.00     0.139 C 
HETATM   25  O   UNK N   1      21.893  19.510   3.079  0.00  0.00    -0.650 OA
BRANCH  24  26
HETATM   26  O   UNK N   1      23.217  21.279   2.857  0.00  0.00    -0.776 OA
HETATM   27  H   UNK N   1      23.386  21.480   1.957  0.00  0.00     0.167 HD
ENDBRANCH  24  26
ENDBRANCH  23  24
ENDBRANCH  22  23
ENDBRANCH   5  22
TORSDOF 6
ENDMDL
