MODEL 1
REMARK VINA RESULT:      -6.2      0.000      0.000
REMARK  8 active torsions:
REMARK  status: ('A' for Active; 'I' for Inactive)
REMARK    1  A    between atoms: C_3  and  C_24 
REMARK    2  A    between atoms: C_7  and  N_10 
REMARK    3  A    between atoms: C_7  and  O_22 
REMARK       I    between atoms: N_10  and  C_11 
REMARK    4  A    between atoms: C_11  and  C_13 
REMARK    5  A    between atoms: C_13  and  C_14 
REMARK    6  A    between atoms: C_13  and  C_19 
REMARK    7  A    between atoms: C_19  and  O_21 
REMARK    8  A    between atoms: C_24  and  O_26 
ROOT
HETATM    1  C   UNK N   1      30.532  16.292   3.798  0.00  0.00     0.029 C 
HETATM    2  C   UNK N   1      31.445  15.088   3.920  0.00  0.00     0.029 C 
HETATM    3  C   UNK N   1      32.899  15.569   3.671  0.00  0.00     0.183 C 
HETATM    4  N   UNK N   1      33.425  15.849   4.974  0.00  0.00    -0.214 NA
HETATM    5  C   UNK N   1      32.858  15.284   6.155  0.00  0.00     0.194 A 
HETATM    6  S   UNK N   1      31.286  14.504   5.649  0.00  0.00    -0.132 SA
HETATM    7  C   UNK N   1      32.850  16.778   6.768  0.00  0.00     0.240 A 
HETATM    8  C   UNK N   1      33.490  17.060   5.454  0.00  0.00     0.260 A 
HETATM    9  O   UNK N   1      33.462  18.090   4.791  0.00  0.00    -0.274 OA
HETATM   10  C   UNK N   1      30.947  14.030   2.950  0.00  0.00     0.029 C 
ENDROOT
BRANCH   7  11
HETATM   11  N   UNK N   1      31.559  17.431   6.881  0.00  0.00    -0.319 N 
HETATM   12  C   UNK N   1      30.693  17.252   7.904  0.00  0.00     0.239 C 
HETATM   13  O   UNK N   1      30.927  16.440   8.789  0.00  0.00    -0.272 OA
HETATM   14  H   UNK N   1      31.295  18.050   6.162  0.00  0.00     0.166 HD
BRANCH  12  15
HETATM   15  C   UNK N   1      29.483  18.138   7.978  0.00  0.00     0.209 C 
BRANCH  15  16
HETATM   16  C   UNK N   1      28.487  17.848   6.872  0.00  0.00    -0.028 A 
HETATM   17  C   UNK N   1      28.048  16.545   6.492  0.00  0.00     0.016 A 
HETATM   18  C   UNK N   1      27.094  16.543   5.474  0.00  0.00     0.050 A 
HETATM   19  S   UNK N   1      26.835  18.136   5.101  0.00  0.00    -0.113 SA
HETATM   20  C   UNK N   1      27.871  18.882   6.157  0.00  0.00     0.058 A 
ENDBRANCH  15  16
BRANCH  15  21
HETATM   21  C   UNK N   1      28.974  18.141   9.405  0.00  0.00     0.157 C 
HETATM   22  O   UNK N   1      27.862  17.696   9.638  0.00  0.00    -0.649 OA
BRANCH  21  23
HETATM   23  O   UNK N   1      29.714  18.619  10.422  0.00  0.00    -0.775 OA
HETATM   24  H   UNK N   1      29.546  19.420  10.878  0.00  0.00     0.167 HD
ENDBRANCH  21  23
ENDBRANCH  15  21
ENDBRANCH  12  15
ENDBRANCH   7  11
BRANCH   7  25
HETATM   25  O   UNK N   1      33.690  16.907   7.895  0.00  0.00    -0.356 OA
HETATM   26  C   UNK N   1      33.911  18.274   8.125  0.00  0.00     0.205 C 
ENDBRANCH   7  25
BRANCH   3  27
HETATM   27  C   UNK N   1      33.891  14.711   2.923  0.00  0.00     0.160 C 
HETATM   28  O   UNK N   1      34.225  14.969   1.780  0.00  0.00    -0.649 OA
BRANCH  27  29
HETATM   29  O   UNK N   1      34.425  13.641   3.542  0.00  0.00    -0.775 OA
HETATM   30  H   UNK N   1      33.906  12.936   3.876  0.00  0.00     0.167 HD
ENDBRANCH  27  29
ENDBRANCH   3  27
TORSDOF 8
ENDMDL
MODEL 2
REMARK VINA RESULT:      -6.1      4.180      6.330
REMARK  8 active torsions:
REMARK  status: ('A' for Active; 'I' for Inactive)
REMARK    1  A    between atoms: C_3  and  C_24 
REMARK    2  A    between atoms: C_7  and  N_10 
REMARK    3  A    between atoms: C_7  and  O_22 
REMARK       I    between atoms: N_10  and  C_11 
REMARK    4  A    between atoms: C_11  and  C_13 
REMARK    5  A    between atoms: C_13  and  C_14 
REMARK    6  A    between atoms: C_13  and  C_19 
REMARK    7  A    between atoms: C_19  and  O_21 
REMARK    8  A    between atoms: C_24  and  O_26 
ROOT
HETATM    1  C   UNK N   1      34.551  14.892  11.206  0.00  0.00     0.029 C 
HETATM    2  C   UNK N   1      35.541  13.771  10.959  0.00  0.00     0.029 C 
HETATM    3  C   UNK N   1      34.731  12.487  10.637  0.00  0.00     0.183 C 
HETATM    4  N   UNK N   1      34.642  12.454   9.207  0.00  0.00    -0.214 NA
HETATM    5  C   UNK N   1      35.555  13.169   8.377  0.00  0.00     0.194 A 
HETATM    6  S   UNK N   1      36.509  14.263   9.485  0.00  0.00    -0.132 SA
HETATM    7  C   UNK N   1      34.266  13.748   7.596  0.00  0.00     0.240 A 
HETATM    8  C   UNK N   1      33.578  12.852   8.566  0.00  0.00     0.260 A 
HETATM    9  O   UNK N   1      32.456  12.957   9.046  0.00  0.00    -0.274 OA
HETATM   10  C   UNK N   1      36.439  13.670  12.180  0.00  0.00     0.029 C 
ENDROOT
BRANCH   7  11
HETATM   11  N   UNK N   1      33.931  15.141   7.828  0.00  0.00    -0.319 N 
HETATM   12  C   UNK N   1      34.446  16.182   7.136  0.00  0.00     0.239 C 
HETATM   13  O   UNK N   1      35.312  16.006   6.291  0.00  0.00    -0.272 OA
HETATM   14  H   UNK N   1      33.281  15.342   8.541  0.00  0.00     0.166 HD
BRANCH  12  15
HETATM   15  C   UNK N   1      33.863  17.547   7.362  0.00  0.00     0.209 C 
BRANCH  15  16
HETATM   16  C   UNK N   1      32.354  17.513   7.511  0.00  0.00    -0.028 A 
HETATM   17  C   UNK N   1      31.643  17.893   8.688  0.00  0.00     0.016 A 
HETATM   18  C   UNK N   1      30.255  17.814   8.562  0.00  0.00     0.050 A 
HETATM   19  S   UNK N   1      29.976  17.290   7.015  0.00  0.00    -0.113 SA
HETATM   20  C   UNK N   1      31.525  17.139   6.446  0.00  0.00     0.058 A 
ENDBRANCH  15  16
BRANCH  15  21
HETATM   21  C   UNK N   1      34.663  18.241   8.444  0.00  0.00     0.157 C 
HETATM   22  O   UNK N   1      34.937  19.422   8.313  0.00  0.00    -0.649 OA
BRANCH  21  23
HETATM   23  O   UNK N   1      35.082  17.591   9.546  0.00  0.00    -0.775 OA
HETATM   24  H   UNK N   1      34.788  17.767  10.417  0.00  0.00     0.167 HD
ENDBRANCH  21  23
ENDBRANCH  15  21
ENDBRANCH  12  15
ENDBRANCH   7  11
BRANCH   7  25
HETATM   25  O   UNK N   1      34.218  13.335   6.246  0.00  0.00    -0.356 OA
HETATM   26  C   UNK N   1      32.937  13.613   5.747  0.00  0.00     0.205 C 
ENDBRANCH   7  25
BRANCH   3  27
HETATM   27  C   UNK N   1      35.183  11.132  11.124  0.00  0.00     0.160 C 
HETATM   28  O   UNK N   1      36.029  10.488  10.528  0.00  0.00    -0.649 OA
BRANCH  27  29
HETATM   29  O   UNK N   1      34.644  10.631  12.251  0.00  0.00    -0.775 OA
HETATM   30  H   UNK N   1      35.092  10.017  12.800  0.00  0.00     0.167 HD
ENDBRANCH  27  29
ENDBRANCH   3  27
TORSDOF 8
ENDMDL
MODEL 3
REMARK VINA RESULT:      -5.9      4.338      6.771
REMARK  8 active torsions:
REMARK  status: ('A' for Active; 'I' for Inactive)
REMARK    1  A    between atoms: C_3  and  C_24 
REMARK    2  A    between atoms: C_7  and  N_10 
REMARK    3  A    between atoms: C_7  and  O_22 
REMARK       I    between atoms: N_10  and  C_11 
REMARK    4  A    between atoms: C_11  and  C_13 
REMARK    5  A    between atoms: C_13  and  C_14 
REMARK    6  A    between atoms: C_13  and  C_19 
REMARK    7  A    between atoms: C_19  and  O_21 
REMARK    8  A    between atoms: C_24  and  O_26 
ROOT
HETATM    1  C   UNK N   1      32.689  17.666   8.346  0.00  0.00     0.029 C 
HETATM    2  C   UNK N   1      31.790  16.881   7.412  0.00  0.00     0.029 C 
HETATM    3  C   UNK N   1      32.526  16.743   6.052  0.00  0.00     0.183 C 
HETATM    4  N   UNK N   1      33.210  15.485   6.128  0.00  0.00    -0.214 NA
HETATM    5  C   UNK N   1      32.813  14.464   7.040  0.00  0.00     0.194 A 
HETATM    6  S   UNK N   1      31.595  15.225   8.168  0.00  0.00    -0.132 SA
HETATM    7  C   UNK N   1      34.363  14.368   7.482  0.00  0.00     0.240 A 
HETATM    8  C   UNK N   1      34.480  15.399   6.414  0.00  0.00     0.260 A 
HETATM    9  O   UNK N   1      35.296  16.306   6.308  0.00  0.00    -0.274 OA
HETATM   10  C   UNK N   1      30.454  17.600   7.344  0.00  0.00     0.029 C 
ENDROOT
BRANCH   7  11
HETATM   11  N   UNK N   1      34.707  14.910   8.784  0.00  0.00    -0.319 N 
HETATM   12  C   UNK N   1      34.500  14.277   9.960  0.00  0.00     0.239 C 
HETATM   13  O   UNK N   1      33.923  13.199   9.999  0.00  0.00    -0.272 OA
HETATM   14  H   UNK N   1      35.120  15.804   8.812  0.00  0.00     0.166 HD
BRANCH  12  15
HETATM   15  C   UNK N   1      35.079  14.881  11.207  0.00  0.00     0.209 C 
BRANCH  15  16
HETATM   16  C   UNK N   1      35.762  13.849  12.085  0.00  0.00    -0.028 A 
HETATM   17  C   UNK N   1      36.742  12.915  11.632  0.00  0.00     0.016 A 
HETATM   18  C   UNK N   1      37.252  12.096  12.641  0.00  0.00     0.050 A 
HETATM   19  S   UNK N   1      36.481  12.566  14.031  0.00  0.00    -0.113 SA
HETATM   20  C   UNK N   1      35.502  13.774  13.458  0.00  0.00     0.058 A 
ENDBRANCH  15  16
BRANCH  15  21
HETATM   21  C   UNK N   1      35.868  16.115  10.824  0.00  0.00     0.157 C 
HETATM   22  O   UNK N   1      35.291  17.188  10.750  0.00  0.00    -0.649 OA
BRANCH  21  23
HETATM   23  O   UNK N   1      37.187  16.062  10.563  0.00  0.00    -0.775 OA
HETATM   24  H   UNK N   1      37.820  16.685  10.862  0.00  0.00     0.167 HD
ENDBRANCH  21  23
ENDBRANCH  15  21
ENDBRANCH  12  15
ENDBRANCH   7  11
BRANCH   7  25
HETATM   25  O   UNK N   1      34.938  13.114   7.183  0.00  0.00    -0.356 OA
HETATM   26  C   UNK N   1      36.310  13.180   7.466  0.00  0.00     0.205 C 
ENDBRANCH   7  25
BRANCH   3  27
HETATM   27  C   UNK N   1      31.776  16.807   4.745  0.00  0.00     0.160 C 
HETATM   28  O   UNK N   1      31.117  15.865   4.339  0.00  0.00    -0.649 OA
BRANCH  27  29
HETATM   29  O   UNK N   1      31.830  17.938   4.016  0.00  0.00    -0.775 OA
HETATM   30  H   UNK N   1      31.127  18.220   3.463  0.00  0.00     0.167 HD
ENDBRANCH  27  29
ENDBRANCH   3  27
TORSDOF 8
ENDMDL
MODEL 4
REMARK VINA RESULT:      -5.8      4.813      8.321
REMARK  8 active torsions:
REMARK  status: ('A' for Active; 'I' for Inactive)
REMARK    1  A    between atoms: C_3  and  C_24 
REMARK    2  A    between atoms: C_7  and  N_10 
REMARK    3  A    between atoms: C_7  and  O_22 
REMARK       I    between atoms: N_10  and  C_11 
REMARK    4  A    between atoms: C_11  and  C_13 
REMARK    5  A    between atoms: C_13  and  C_14 
REMARK    6  A    between atoms: C_13  and  C_19 
REMARK    7  A    between atoms: C_19  and  O_21 
REMARK    8  A    between atoms: C_24  and  O_26 
ROOT
HETATM    1  C   UNK N   1      37.643  14.134   9.853  0.00  0.00     0.029 C 
HETATM    2  C   UNK N   1      36.705  13.553  10.893  0.00  0.00     0.029 C 
HETATM    3  C   UNK N   1      36.247  14.712  11.817  0.00  0.00     0.183 C 
HETATM    4  N   UNK N   1      35.013  15.172  11.252  0.00  0.00    -0.214 NA
HETATM    5  C   UNK N   1      34.230  14.355  10.383  0.00  0.00     0.194 A 
HETATM    6  S   UNK N   1      35.262  12.906   9.969  0.00  0.00    -0.132 SA
HETATM    7  C   UNK N   1      34.178  15.615   9.376  0.00  0.00     0.240 A 
HETATM    8  C   UNK N   1      34.946  16.231  10.493  0.00  0.00     0.260 A 
HETATM    9  O   UNK N   1      35.779  17.129  10.450  0.00  0.00    -0.274 OA
HETATM   10  C   UNK N   1      37.438  12.425  11.598  0.00  0.00     0.029 C 
ENDROOT
BRANCH   7  11
HETATM   11  N   UNK N   1      34.979  15.522   8.169  0.00  0.00    -0.319 N 
HETATM   12  C   UNK N   1      34.623  14.834   7.061  0.00  0.00     0.239 C 
HETATM   13  O   UNK N   1      33.598  14.167   7.039  0.00  0.00    -0.272 OA
HETATM   14  H   UNK N   1      35.844  15.993   8.157  0.00  0.00     0.166 HD
BRANCH  12  15
HETATM   15  C   UNK N   1      35.464  14.985   5.826  0.00  0.00     0.209 C 
BRANCH  15  16
HETATM   16  C   UNK N   1      36.703  14.110   5.862  0.00  0.00    -0.028 A 
HETATM   17  C   UNK N   1      38.001  14.519   5.432  0.00  0.00     0.016 A 
HETATM   18  C   UNK N   1      38.987  13.547   5.604  0.00  0.00     0.050 A 
HETATM   19  S   UNK N   1      38.216  12.244   6.279  0.00  0.00    -0.113 SA
HETATM   20  C   UNK N   1      36.663  12.812   6.383  0.00  0.00     0.058 A 
ENDBRANCH  15  16
BRANCH  15  21
HETATM   21  C   UNK N   1      34.563  14.885   4.613  0.00  0.00     0.157 C 
HETATM   22  O   UNK N   1      34.855  14.105   3.721  0.00  0.00    -0.649 OA
BRANCH  21  23
HETATM   23  O   UNK N   1      33.451  15.632   4.491  0.00  0.00    -0.775 OA
HETATM   24  H   UNK N   1      33.161  16.039   3.699  0.00  0.00     0.167 HD
ENDBRANCH  21  23
ENDBRANCH  15  21
ENDBRANCH  12  15
ENDBRANCH   7  11
BRANCH   7  25
HETATM   25  O   UNK N   1      32.869  16.111   9.191  0.00  0.00    -0.356 OA
HETATM   26  C   UNK N   1      32.952  17.325   8.492  0.00  0.00     0.205 C 
ENDBRANCH   7  25
BRANCH   3  27
HETATM   27  C   UNK N   1      36.050  14.502  13.299  0.00  0.00     0.160 C 
HETATM   28  O   UNK N   1      35.137  13.821  13.732  0.00  0.00    -0.649 OA
BRANCH  27  29
HETATM   29  O   UNK N   1      36.914  15.074  14.159  0.00  0.00    -0.775 OA
HETATM   30  H   UNK N   1      37.121  15.989  14.139  0.00  0.00     0.167 HD
ENDBRANCH  27  29
ENDBRANCH   3  27
TORSDOF 8
ENDMDL
MODEL 5
REMARK VINA RESULT:      -5.8      2.417      5.195
REMARK  8 active torsions:
REMARK  status: ('A' for Active; 'I' for Inactive)
REMARK    1  A    between atoms: C_3  and  C_24 
REMARK    2  A    between atoms: C_7  and  N_10 
REMARK    3  A    between atoms: C_7  and  O_22 
REMARK       I    between atoms: N_10  and  C_11 
REMARK    4  A    between atoms: C_11  and  C_13 
REMARK    5  A    between atoms: C_13  and  C_14 
REMARK    6  A    between atoms: C_13  and  C_19 
REMARK    7  A    between atoms: C_19  and  O_21 
REMARK    8  A    between atoms: C_24  and  O_26 
ROOT
HETATM    1  C   UNK N   1      35.053  15.591   6.547  0.00  0.00     0.029 C 
HETATM    2  C   UNK N   1      34.835  15.037   7.941  0.00  0.00     0.029 C 
HETATM    3  C   UNK N   1      34.651  16.240   8.904  0.00  0.00     0.183 C 
HETATM    4  N   UNK N   1      33.234  16.442   8.979  0.00  0.00    -0.214 NA
HETATM    5  C   UNK N   1      32.306  15.411   8.645  0.00  0.00     0.194 A 
HETATM    6  S   UNK N   1      33.278  14.075   7.868  0.00  0.00    -0.132 SA
HETATM    7  C   UNK N   1      31.556  16.499   7.718  0.00  0.00     0.240 A 
HETATM    8  C   UNK N   1      32.624  17.365   8.288  0.00  0.00     0.260 A 
HETATM    9  O   UNK N   1      33.155  18.354   7.798  0.00  0.00    -0.274 OA
HETATM   10  C   UNK N   1      36.009  14.131   8.268  0.00  0.00     0.029 C 
ENDROOT
BRANCH   7  11
HETATM   11  N   UNK N   1      31.704  16.349   6.282  0.00  0.00    -0.319 N 
HETATM   12  C   UNK N   1      31.073  15.414   5.536  0.00  0.00     0.239 C 
HETATM   13  O   UNK N   1      30.370  14.563   6.063  0.00  0.00    -0.272 OA
HETATM   14  H   UNK N   1      32.308  16.973   5.817  0.00  0.00     0.166 HD
BRANCH  12  15
HETATM   15  C   UNK N   1      31.179  15.502   4.041  0.00  0.00     0.209 C 
BRANCH  15  16
HETATM   16  C   UNK N   1      29.833  15.359   3.358  0.00  0.00    -0.028 A 
HETATM   17  C   UNK N   1      29.501  14.339   2.417  0.00  0.00     0.016 A 
HETATM   18  C   UNK N   1      28.184  14.396   1.960  0.00  0.00     0.050 A 
HETATM   19  S   UNK N   1      27.497  15.687   2.739  0.00  0.00    -0.113 SA
HETATM   20  C   UNK N   1      28.771  16.222   3.653  0.00  0.00     0.058 A 
ENDBRANCH  15  16
BRANCH  15  21
HETATM   21  C   UNK N   1      32.027  16.706   3.688  0.00  0.00     0.157 C 
HETATM   22  O   UNK N   1      33.164  16.531   3.281  0.00  0.00    -0.649 OA
BRANCH  21  23
HETATM   23  O   UNK N   1      31.562  17.963   3.810  0.00  0.00    -0.775 OA
HETATM   24  H   UNK N   1      30.834  18.315   3.338  0.00  0.00     0.167 HD
ENDBRANCH  21  23
ENDBRANCH  15  21
ENDBRANCH  12  15
ENDBRANCH   7  11
BRANCH   7  25
HETATM   25  O   UNK N   1      30.245  16.779   8.160  0.00  0.00    -0.356 OA
HETATM   26  C   UNK N   1      29.688  17.743   7.307  0.00  0.00     0.205 C 
ENDBRANCH   7  25
BRANCH   3  27
HETATM   27  C   UNK N   1      35.210  16.214  10.306  0.00  0.00     0.160 C 
HETATM   28  O   UNK N   1      36.311  16.671  10.563  0.00  0.00    -0.649 OA
BRANCH  27  29
HETATM   29  O   UNK N   1      34.467  15.683  11.295  0.00  0.00    -0.775 OA
HETATM   30  H   UNK N   1      33.683  16.085  11.614  0.00  0.00     0.167 HD
ENDBRANCH  27  29
ENDBRANCH   3  27
TORSDOF 8
ENDMDL
MODEL 6
REMARK VINA RESULT:      -5.7     13.533     15.327
REMARK  8 active torsions:
REMARK  status: ('A' for Active; 'I' for Inactive)
REMARK    1  A    between atoms: C_3  and  C_24 
REMARK    2  A    between atoms: C_7  and  N_10 
REMARK    3  A    between atoms: C_7  and  O_22 
REMARK       I    between atoms: N_10  and  C_11 
REMARK    4  A    between atoms: C_11  and  C_13 
REMARK    5  A    between atoms: C_13  and  C_14 
REMARK    6  A    between atoms: C_13  and  C_19 
REMARK    7  A    between atoms: C_19  and  O_21 
REMARK    8  A    between atoms: C_24  and  O_26 
ROOT
HETATM    1  C   UNK N   1      30.296  26.278  -4.090  0.00  0.00     0.029 C 
HETATM    2  C   UNK N   1      30.513  24.793  -4.301  0.00  0.00     0.029 C 
HETATM    3  C   UNK N   1      29.624  24.035  -3.279  0.00  0.00     0.183 C 
HETATM    4  N   UNK N   1      28.408  23.754  -3.983  0.00  0.00    -0.214 NA
HETATM    5  C   UNK N   1      28.346  23.741  -5.408  0.00  0.00     0.194 A 
HETATM    6  S   UNK N   1      29.930  24.431  -5.999  0.00  0.00    -0.132 SA
HETATM    7  C   UNK N   1      27.053  24.699  -5.280  0.00  0.00     0.240 A 
HETATM    8  C   UNK N   1      27.333  24.479  -3.835  0.00  0.00     0.260 A 
HETATM    9  O   UNK N   1      27.099  25.216  -2.885  0.00  0.00    -0.274 OA
HETATM   10  C   UNK N   1      32.002  24.521  -4.177  0.00  0.00     0.029 C 
ENDROOT
BRANCH   7  11
HETATM   11  N   UNK N   1      27.231  26.092  -5.649  0.00  0.00    -0.319 N 
HETATM   12  C   UNK N   1      26.321  27.068  -5.434  0.00  0.00     0.239 C 
HETATM   13  O   UNK N   1      25.223  26.808  -4.962  0.00  0.00    -0.272 OA
HETATM   14  H   UNK N   1      28.076  26.343  -6.089  0.00  0.00     0.166 HD
BRANCH  12  15
HETATM   15  C   UNK N   1      26.723  28.490  -5.698  0.00  0.00     0.209 C 
BRANCH  15  16
HETATM   16  C   UNK N   1      27.011  29.255  -4.420  0.00  0.00    -0.028 A 
HETATM   17  C   UNK N   1      27.603  28.693  -3.250  0.00  0.00     0.016 A 
HETATM   18  C   UNK N   1      27.804  29.611  -2.219  0.00  0.00     0.050 A 
HETATM   19  S   UNK N   1      27.254  31.062  -2.801  0.00  0.00    -0.113 SA
HETATM   20  C   UNK N   1      26.750  30.626  -4.318  0.00  0.00     0.058 A 
ENDBRANCH  15  16
BRANCH  15  21
HETATM   21  C   UNK N   1      27.782  28.499  -6.780  0.00  0.00     0.157 C 
HETATM   22  O   UNK N   1      27.593  27.852  -7.798  0.00  0.00    -0.649 OA
BRANCH  21  23
HETATM   23  O   UNK N   1      28.924  29.198  -6.652  0.00  0.00    -0.775 OA
HETATM   24  H   UNK N   1      29.427  29.541  -7.363  0.00  0.00     0.167 HD
ENDBRANCH  21  23
ENDBRANCH  15  21
ENDBRANCH  12  15
ENDBRANCH   7  11
BRANCH   7  25
HETATM   25  O   UNK N   1      25.876  24.094  -5.771  0.00  0.00    -0.356 OA
HETATM   26  C   UNK N   1      25.914  24.130  -7.173  0.00  0.00     0.205 C 
ENDBRANCH   7  25
BRANCH   3  27
HETATM   27  C   UNK N   1      30.101  22.767  -2.614  0.00  0.00     0.160 C 
HETATM   28  O   UNK N   1      30.508  22.762  -1.465  0.00  0.00    -0.649 OA
BRANCH  27  29
HETATM   29  O   UNK N   1      30.066  21.614  -3.307  0.00  0.00    -0.775 OA
HETATM   30  H   UNK N   1      29.557  21.504  -4.087  0.00  0.00     0.167 HD
ENDBRANCH  27  29
ENDBRANCH   3  27
TORSDOF 8
ENDMDL
MODEL 7
REMARK VINA RESULT:      -5.6      2.652      5.236
REMARK  8 active torsions:
REMARK  status: ('A' for Active; 'I' for Inactive)
REMARK    1  A    between atoms: C_3  and  C_24 
REMARK    2  A    between atoms: C_7  and  N_10 
REMARK    3  A    between atoms: C_7  and  O_22 
REMARK       I    between atoms: N_10  and  C_11 
REMARK    4  A    between atoms: C_11  and  C_13 
REMARK    5  A    between atoms: C_13  and  C_14 
REMARK    6  A    between atoms: C_13  and  C_19 
REMARK    7  A    between atoms: C_19  and  O_21 
REMARK    8  A    between atoms: C_24  and  O_26 
ROOT
HETATM    1  C   UNK N   1      34.546  14.989   4.859  0.00  0.00     0.029 C 
HETATM    2  C   UNK N   1      33.482  14.938   3.780  0.00  0.00     0.029 C 
HETATM    3  C   UNK N   1      32.474  13.822   4.162  0.00  0.00     0.183 C 
HETATM    4  N   UNK N   1      31.431  14.494   4.879  0.00  0.00    -0.214 NA
HETATM    5  C   UNK N   1      31.209  15.897   4.749  0.00  0.00     0.194 A 
HETATM    6  S   UNK N   1      32.636  16.562   3.825  0.00  0.00    -0.132 SA
HETATM    7  C   UNK N   1      31.197  15.963   6.362  0.00  0.00     0.240 A 
HETATM    8  C   UNK N   1      31.371  14.495   6.182  0.00  0.00     0.260 A 
HETATM    9  O   UNK N   1      31.926  13.690   6.920  0.00  0.00    -0.274 OA
HETATM   10  C   UNK N   1      34.184  14.737   2.448  0.00  0.00     0.029 C 
ENDROOT
BRANCH   7  11
HETATM   11  N   UNK N   1      32.356  16.560   7.001  0.00  0.00    -0.319 N 
HETATM   12  C   UNK N   1      32.542  16.639   8.338  0.00  0.00     0.239 C 
HETATM   13  O   UNK N   1      31.676  16.261   9.115  0.00  0.00    -0.272 OA
HETATM   14  H   UNK N   1      33.056  16.935   6.419  0.00  0.00     0.166 HD
BRANCH  12  15
HETATM   15  C   UNK N   1      33.873  17.113   8.846  0.00  0.00     0.209 C 
BRANCH  15  16
HETATM   16  C   UNK N   1      34.786  15.964   9.230  0.00  0.00    -0.028 A 
HETATM   17  C   UNK N   1      34.950  14.766   8.473  0.00  0.00     0.016 A 
HETATM   18  C   UNK N   1      35.880  13.877   9.013  0.00  0.00     0.050 A 
HETATM   19  S   UNK N   1      36.455  14.610  10.384  0.00  0.00    -0.113 SA
HETATM   20  C   UNK N   1      35.595  16.027  10.370  0.00  0.00     0.058 A 
ENDBRANCH  15  16
BRANCH  15  21
HETATM   21  C   UNK N   1      34.412  18.154   7.888  0.00  0.00     0.157 C 
HETATM   22  O   UNK N   1      34.817  19.216   8.334  0.00  0.00    -0.649 OA
BRANCH  21  23
HETATM   23  O   UNK N   1      34.458  17.942   6.560  0.00  0.00    -0.775 OA
HETATM   24  H   UNK N   1      34.718  17.141   6.153  0.00  0.00     0.167 HD
ENDBRANCH  21  23
ENDBRANCH  15  21
ENDBRANCH  12  15
ENDBRANCH   7  11
BRANCH   7  25
HETATM   25  O   UNK N   1      29.949  16.369   6.881  0.00  0.00    -0.356 OA
HETATM   26  C   UNK N   1      29.732  17.705   6.512  0.00  0.00     0.205 C 
ENDBRANCH   7  25
BRANCH   3  27
HETATM   27  C   UNK N   1      31.846  12.940   3.110  0.00  0.00     0.160 C 
HETATM   28  O   UNK N   1      32.245  11.806   2.905  0.00  0.00    -0.649 OA
BRANCH  27  29
HETATM   29  O   UNK N   1      30.814  13.418   2.389  0.00  0.00    -0.775 OA
HETATM   30  H   UNK N   1      30.281  14.133   2.677  0.00  0.00     0.167 HD
ENDBRANCH  27  29
ENDBRANCH   3  27
TORSDOF 8
ENDMDL
MODEL 8
REMARK VINA RESULT:      -5.6      2.934      5.658
REMARK  8 active torsions:
REMARK  status: ('A' for Active; 'I' for Inactive)
REMARK    1  A    between atoms: C_3  and  C_24 
REMARK    2  A    between atoms: C_7  and  N_10 
REMARK    3  A    between atoms: C_7  and  O_22 
REMARK       I    between atoms: N_10  and  C_11 
REMARK    4  A    between atoms: C_11  and  C_13 
REMARK    5  A    between atoms: C_13  and  C_14 
REMARK    6  A    between atoms: C_13  and  C_19 
REMARK    7  A    between atoms: C_19  and  O_21 
REMARK    8  A    between atoms: C_24  and  O_26 
ROOT
HETATM    1  C   UNK N   1      35.129  15.234   6.763  0.00  0.00     0.029 C 
HETATM    2  C   UNK N   1      34.725  14.860   8.176  0.00  0.00     0.029 C 
HETATM    3  C   UNK N   1      35.014  16.081   9.089  0.00  0.00     0.183 C 
HETATM    4  N   UNK N   1      33.777  16.805   9.141  0.00  0.00    -0.214 NA
HETATM    5  C   UNK N   1      32.528  16.187   8.838  0.00  0.00     0.194 A 
HETATM    6  S   UNK N   1      32.921  14.553   8.124  0.00  0.00    -0.132 SA
HETATM    7  C   UNK N   1      32.238  17.440   7.861  0.00  0.00     0.240 A 
HETATM    8  C   UNK N   1      33.557  17.861   8.408  0.00  0.00     0.260 A 
HETATM    9  O   UNK N   1      34.420  18.556   7.885  0.00  0.00    -0.274 OA
HETATM   10  C   UNK N   1      35.473  13.592   8.550  0.00  0.00     0.029 C 
ENDROOT
BRANCH   7  11
HETATM   11  N   UNK N   1      32.312  17.187   6.434  0.00  0.00    -0.319 N 
HETATM   12  C   UNK N   1      31.286  16.734   5.679  0.00  0.00     0.239 C 
HETATM   13  O   UNK N   1      30.216  16.432   6.190  0.00  0.00    -0.272 OA
HETATM   14  H   UNK N   1      33.171  17.356   5.983  0.00  0.00     0.166 HD
BRANCH  12  15
HETATM   15  C   UNK N   1      31.457  16.701   4.187  0.00  0.00     0.209 C 
BRANCH  15  16
HETATM   16  C   UNK N   1      32.376  15.582   3.737  0.00  0.00    -0.028 A 
HETATM   17  C   UNK N   1      33.448  15.733   2.807  0.00  0.00     0.016 A 
HETATM   18  C   UNK N   1      34.175  14.563   2.586  0.00  0.00     0.050 A 
HETATM   19  S   UNK N   1      33.471  13.411   3.547  0.00  0.00    -0.113 SA
HETATM   20  C   UNK N   1      32.260  14.289   4.260  0.00  0.00     0.058 A 
ENDBRANCH  15  16
BRANCH  15  21
HETATM   21  C   UNK N   1      30.090  16.796   3.542  0.00  0.00     0.157 C 
HETATM   22  O   UNK N   1      29.788  15.992   2.675  0.00  0.00    -0.649 OA
BRANCH  21  23
HETATM   23  O   UNK N   1      29.200  17.740   3.899  0.00  0.00    -0.775 OA
HETATM   24  H   UNK N   1      28.824  17.830   4.752  0.00  0.00     0.167 HD
ENDBRANCH  21  23
ENDBRANCH  15  21
ENDBRANCH  12  15
ENDBRANCH   7  11
BRANCH   7  25
HETATM   25  O   UNK N   1      31.132  18.210   8.278  0.00  0.00    -0.356 OA
HETATM   26  C   UNK N   1      30.289  17.392   9.045  0.00  0.00     0.205 C 
ENDBRANCH   7  25
BRANCH   3  27
HETATM   27  C   UNK N   1      35.529  15.903  10.496  0.00  0.00     0.160 C 
HETATM   28  O   UNK N   1      34.815  15.480  11.390  0.00  0.00    -0.649 OA
BRANCH  27  29
HETATM   29  O   UNK N   1      36.812  16.211  10.765  0.00  0.00    -0.775 OA
HETATM   30  H   UNK N   1      37.486  15.563  10.835  0.00  0.00     0.167 HD
ENDBRANCH  27  29
ENDBRANCH   3  27
TORSDOF 8
ENDMDL
MODEL 9
REMARK VINA RESULT:      -5.5      3.419      5.615
REMARK  8 active torsions:
REMARK  status: ('A' for Active; 'I' for Inactive)
REMARK    1  A    between atoms: C_3  and  C_24 
REMARK    2  A    between atoms: C_7  and  N_10 
REMARK    3  A    between atoms: C_7  and  O_22 
REMARK       I    between atoms: N_10  and  C_11 
REMARK    4  A    between atoms: C_11  and  C_13 
REMARK    5  A    between atoms: C_13  and  C_14 
REMARK    6  A    between atoms: C_13  and  C_19 
REMARK    7  A    between atoms: C_19  and  O_21 
REMARK    8  A    between atoms: C_24  and  O_26 
ROOT
HETATM    1  C   UNK N   1      31.538  13.736   5.318  0.00  0.00     0.029 C 
HETATM    2  C   UNK N   1      32.079  14.492   4.121  0.00  0.00     0.029 C 
HETATM    3  C   UNK N   1      31.519  15.939   4.182  0.00  0.00     0.183 C 
HETATM    4  N   UNK N   1      32.526  16.697   4.864  0.00  0.00    -0.214 NA
HETATM    5  C   UNK N   1      33.880  16.256   4.941  0.00  0.00     0.194 A 
HETATM    6  S   UNK N   1      33.898  14.536   4.327  0.00  0.00    -0.132 SA
HETATM    7  C   UNK N   1      33.798  16.539   6.528  0.00  0.00     0.240 A 
HETATM    8  C   UNK N   1      32.437  16.994   6.131  0.00  0.00     0.260 A 
HETATM    9  O   UNK N   1      31.404  16.995   6.790  0.00  0.00    -0.274 OA
HETATM   10  C   UNK N   1      31.700  13.714   2.873  0.00  0.00     0.029 C 
ENDROOT
BRANCH   7  11
HETATM   11  N   UNK N   1      33.738  15.378   7.398  0.00  0.00    -0.319 N 
HETATM   12  C   UNK N   1      34.803  14.622   7.746  0.00  0.00     0.239 C 
HETATM   13  O   UNK N   1      35.909  14.839   7.271  0.00  0.00    -0.272 OA
HETATM   14  H   UNK N   1      32.858  15.123   7.759  0.00  0.00     0.166 HD
BRANCH  12  15
HETATM   15  C   UNK N   1      34.616  13.570   8.801  0.00  0.00     0.209 C 
BRANCH  15  16
HETATM   16  C   UNK N   1      35.029  14.053  10.178  0.00  0.00    -0.028 A 
HETATM   17  C   UNK N   1      34.969  13.269  11.368  0.00  0.00     0.016 A 
HETATM   18  C   UNK N   1      35.445  13.925  12.504  0.00  0.00     0.050 A 
HETATM   19  S   UNK N   1      35.920  15.426  11.986  0.00  0.00    -0.113 SA
HETATM   20  C   UNK N   1      35.563  15.333  10.371  0.00  0.00     0.058 A 
ENDBRANCH  15  16
BRANCH  15  21
HETATM   21  C   UNK N   1      33.233  12.973   8.647  0.00  0.00     0.157 C 
HETATM   22  O   UNK N   1      33.082  12.012   7.911  0.00  0.00    -0.649 OA
BRANCH  21  23
HETATM   23  O   UNK N   1      32.167  13.471   9.300  0.00  0.00    -0.775 OA
HETATM   24  H   UNK N   1      31.423  12.973   9.573  0.00  0.00     0.167 HD
ENDBRANCH  21  23
ENDBRANCH  15  21
ENDBRANCH  12  15
ENDBRANCH   7  11
BRANCH   7  25
HETATM   25  O   UNK N   1      34.682  17.557   6.945  0.00  0.00    -0.356 OA
HETATM   26  C   UNK N   1      34.312  17.959   8.238  0.00  0.00     0.205 C 
ENDBRANCH   7  25
BRANCH   3  27
HETATM   27  C   UNK N   1      31.122  16.679   2.929  0.00  0.00     0.160 C 
HETATM   28  O   UNK N   1      31.955  17.138   2.167  0.00  0.00    -0.649 OA
BRANCH  27  29
HETATM   29  O   UNK N   1      29.814  16.825   2.644  0.00  0.00    -0.775 OA
HETATM   30  H   UNK N   1      29.438  17.645   2.388  0.00  0.00     0.167 HD
ENDBRANCH  27  29
ENDBRANCH   3  27
TORSDOF 8
ENDMDL
