REMARK  5 active torsions:
REMARK  status: ('A' for Active; 'I' for Inactive)
REMARK    1  A    between atoms: N_6  and  C_10 
REMARK    2  A    between atoms: C_10  and  C_11 
REMARK    3  A    between atoms: C_11  and  C_12 
REMARK    4  A    between atoms: C_12  and  C_13 
REMARK    5  A    between atoms: C_13  and  N_14 
REMARK       I    between atoms: N_17  and  C_20 
ROOT
HETATM    1  N   UNK N   1       4.238  -4.559   0.160  0.00  0.00     0.091 N 
HETATM    2  C   UNK N   1       5.612  -4.064   0.044  0.00  0.00     0.292 C 
HETATM    3  C   UNK N   1       6.570  -5.008   0.778  0.00  0.00     0.171 C 
HETATM    4  N   UNK N   1       6.340  -6.376   0.354  0.00  0.00    -0.214 N 
HETATM    5  C   UNK N   1       4.980  -6.856   0.256  0.00  0.00     0.171 C 
HETATM    6  C   UNK N   1       4.170  -5.845  -0.540  0.00  0.00     0.292 C 
HETATM    7  C   UNK N   1       7.426  -7.264   0.125  0.00  0.00     0.679 A 
HETATM    8  N   UNK N   1       8.711  -6.818   0.210  0.00  0.00    -0.202 N 
ATOM      9  HN  UNK N   1       8.890  -5.834   0.408  1.00  0.00     0.183 HD
HETATM   10  C   UNK N   1       9.757  -7.668   0.033  0.00  0.00     0.107 A 
HETATM   11  C   UNK N   1       9.524  -9.016  -0.229  0.00  0.00     0.035 A 
HETATM   12  C   UNK N   1       8.206  -9.458  -0.313  0.00  0.00     0.107 A 
HETATM   13  N   UNK N   1       7.186  -8.580  -0.137  0.00  0.00    -0.202 N 
ATOM     14  HN  UNK N   1       6.223  -8.911  -0.203  1.00  0.00     0.183 HD
ENDROOT
BRANCH   1  15
HETATM   15  C   UNK N   1       3.363  -3.550  -0.442  0.00  0.00     0.272 C 
BRANCH  15  16
HETATM   16  C   UNK N   1       2.011  -4.082  -0.921  0.00  0.00     0.032 C 
BRANCH  16  17
HETATM   17  C   UNK N   1       1.223  -4.851   0.130  0.00  0.00     0.022 C 
BRANCH  17  18
HETATM   18  C   UNK N   1      -0.028  -5.344  -0.584  0.00  0.00     0.135 C 
BRANCH  18  19
HETATM   19  N   UNK N   1      -1.285  -4.828  -0.052  0.00  0.00    -0.288 N 
HETATM   20  C   UNK N   1      -1.420  -3.507   0.318  0.00  0.00     0.227 C 
HETATM   21  C   UNK N   1      -2.727  -2.979   0.841  0.00  0.00     0.112 C 
HETATM   22  O   UNK N   1      -0.482  -2.730   0.226  0.00  0.00    -0.273 OA
HETATM   23  C   UNK N   1      -3.894  -3.692   0.180  0.00  0.00    -0.031 C 
HETATM   24  C   UNK N   1      -5.187  -3.224   0.812  0.00  0.00     0.016 C 
HETATM   25  C   UNK N   1      -3.730  -5.190   0.416  0.00  0.00     0.112 C 
HETATM   26  C   UNK N   1      -3.944  -3.373  -1.310  0.00  0.00     0.016 C 
HETATM   27  C   UNK N   1      -2.365  -5.676  -0.006  0.00  0.00     0.227 C 
HETATM   28  O   UNK N   1      -2.247  -6.845  -0.349  0.00  0.00    -0.273 OA
ENDBRANCH  18  19
ENDBRANCH  17  18
ENDBRANCH  16  17
ENDBRANCH  15  16
ENDBRANCH   1  15
TORSDOF 5
