MODEL 1
REMARK VINA RESULT:      -8.2      0.000      0.000
REMARK  6 active torsions:
REMARK  status: ('A' for Active; 'I' for Inactive)
REMARK    1  A    between atoms: C_14  and  C_11 
REMARK    2  A    between atoms: N_26  and  C_13 
REMARK    3  A    between atoms: C_19  and  C_15 
REMARK    4  A    between atoms: O_27  and  C_17 
REMARK    5  A    between atoms: O_28  and  C_18 
REMARK    6  A    between atoms: O_29  and  C_20 
ROOT
HETATM    1  C   UNK N   1      29.707  17.403   4.433  0.00  0.00     0.143 A 
HETATM    2  C   UNK N   1      31.168  16.178   3.468  0.00  0.00     0.245 A 
HETATM    3  N   UNK N   1      29.368  17.283   3.131  0.00  0.00    -0.281 N 
ATOM      4  HN  UNK N   1      28.555  17.706   2.684  1.00  0.00     0.188 HD
HETATM    5  N   UNK N   1      30.271  16.524   2.537  0.00  0.00    -0.263 N 
ATOM      6  HN  UNK N   1      30.284  16.253   1.554  1.00  0.00     0.190 HD
HETATM    7  N   UNK N   1      30.874  16.700   4.686  0.00  0.00    -0.260 N 
ENDROOT
BRANCH   1   8
HETATM    8  C   UNK N   1      28.849  18.229   5.366  0.00  0.00     0.044 A 
HETATM    9  C   UNK N   1      28.859  18.006   6.735  0.00  0.00     0.028 A 
HETATM   10  C   UNK N   1      28.141  18.774   7.640  0.00  0.00    -0.021 A 
HETATM   11  C   UNK N   1      27.339  19.819   7.158  0.00  0.00     0.075 A 
HETATM   12  C   UNK N   1      27.271  20.053   5.782  0.00  0.00     0.074 A 
HETATM   13  C   UNK N   1      28.015  19.272   4.884  0.00  0.00     0.082 A 
BRANCH  10  14
HETATM   14  C   UNK N   1      28.304  18.458   9.098  0.00  0.00     0.013 C 
HETATM   15  C   UNK N   1      29.723  18.680   9.588  0.00  0.00     0.015 C 
HETATM   16  C   UNK N   1      27.836  17.051   9.418  0.00  0.00     0.015 C 
ENDBRANCH  10  14
BRANCH  11  17
HETATM   17  O   UNK N   1      26.640  20.597   8.003  0.00  0.00    -0.360 OA
HETATM   18  H   UNK N   1      26.155  20.214   8.708  0.00  0.00     0.217 HD
ENDBRANCH  11  17
BRANCH  13  19
HETATM   19  O   UNK N   1      27.935  19.552   3.572  0.00  0.00    -0.360 OA
HETATM   20  H   UNK N   1      27.163  19.335   3.088  0.00  0.00     0.217 HD
ENDBRANCH  13  19
ENDBRANCH   1   8
BRANCH   7  21
HETATM   21  C   UNK N   1      31.705  16.499   5.877  0.00  0.00     0.045 A 
HETATM   22  C   UNK N   1      31.579  15.312   6.660  0.00  0.00     0.032 A 
HETATM   23  C   UNK N   1      32.367  15.105   7.814  0.00  0.00     0.033 A 
HETATM   24  C   UNK N   1      33.277  16.103   8.164  0.00  0.00     0.044 A 
HETATM   25  C   UNK N   1      33.412  17.228   7.422  0.00  0.00    -0.006 A 
HETATM   26  N   UNK N   1      34.117  16.143   9.207  0.00  0.00    -0.360 N 
HETATM   27  C   UNK N   1      34.375  18.023   8.009  0.00  0.00     0.031 A 
HETATM   28  C   UNK N   1      32.655  17.444   6.286  0.00  0.00     0.044 A 
HETATM   29  C   UNK N   1      34.798  17.309   9.133  0.00  0.00     0.091 A 
HETATM   30  C   UNK N   1      34.281  15.135  10.240  0.00  0.00     0.155 C 
ENDBRANCH   7  21
BRANCH   2  31
HETATM   31  O   UNK N   1      32.242  15.413   3.194  0.00  0.00    -0.331 OA
HETATM   32  H   UNK N   1      32.879  15.704   2.571  0.00  0.00     0.221 HD
ENDBRANCH   2  31
TORSDOF 6
ENDMDL
MODEL 2
REMARK VINA RESULT:      -7.4      2.748      7.364
REMARK  6 active torsions:
REMARK  status: ('A' for Active; 'I' for Inactive)
REMARK    1  A    between atoms: C_14  and  C_11 
REMARK    2  A    between atoms: N_26  and  C_13 
REMARK    3  A    between atoms: C_19  and  C_15 
REMARK    4  A    between atoms: O_27  and  C_17 
REMARK    5  A    between atoms: O_28  and  C_18 
REMARK    6  A    between atoms: O_29  and  C_20 
ROOT
HETATM    1  C   UNK N   1      30.291  17.323   7.667  0.00  0.00     0.143 A 
HETATM    2  C   UNK N   1      28.758  17.810   9.074  0.00  0.00     0.245 A 
HETATM    3  N   UNK N   1      30.777  17.125   8.912  0.00  0.00    -0.281 N 
ATOM      4  HN  UNK N   1      31.716  16.800   9.142  1.00  0.00     0.188 HD
HETATM    5  N   UNK N   1      29.827  17.424   9.779  0.00  0.00    -0.263 N 
ATOM      6  HN  UNK N   1      29.895  17.373  10.796  1.00  0.00     0.190 HD
HETATM    7  N   UNK N   1      28.983  17.772   7.736  0.00  0.00    -0.260 N 
ENDROOT
BRANCH   1   8
HETATM    8  C   UNK N   1      31.168  17.063   6.462  0.00  0.00     0.044 A 
HETATM    9  C   UNK N   1      30.656  16.466   5.319  0.00  0.00     0.028 A 
HETATM   10  C   UNK N   1      31.399  16.263   4.166  0.00  0.00    -0.021 A 
HETATM   11  C   UNK N   1      32.746  16.654   4.146  0.00  0.00     0.075 A 
HETATM   12  C   UNK N   1      33.311  17.224   5.290  0.00  0.00     0.074 A 
HETATM   13  C   UNK N   1      32.539  17.432   6.444  0.00  0.00     0.082 A 
BRANCH  10  14
HETATM   14  C   UNK N   1      30.691  15.667   2.983  0.00  0.00     0.013 C 
HETATM   15  C   UNK N   1      29.258  16.151   2.856  0.00  0.00     0.015 C 
HETATM   16  C   UNK N   1      30.750  14.152   3.005  0.00  0.00     0.015 C 
ENDBRANCH  10  14
BRANCH  11  17
HETATM   17  O   UNK N   1      33.495  16.488   3.043  0.00  0.00    -0.360 OA
HETATM   18  H   UNK N   1      33.173  15.983   2.323  0.00  0.00     0.217 HD
ENDBRANCH  11  17
BRANCH  13  19
HETATM   19  O   UNK N   1      33.121  18.007   7.510  0.00  0.00    -0.360 OA
HETATM   20  H   UNK N   1      32.602  18.290   8.237  0.00  0.00     0.217 HD
ENDBRANCH  13  19
ENDBRANCH   1   8
BRANCH   7  21
HETATM   21  C   UNK N   1      27.987  18.167   6.735  0.00  0.00     0.045 A 
HETATM   22  C   UNK N   1      27.819  19.539   6.377  0.00  0.00     0.032 A 
HETATM   23  C   UNK N   1      26.859  19.938   5.420  0.00  0.00     0.033 A 
HETATM   24  C   UNK N   1      26.078  18.943   4.833  0.00  0.00     0.044 A 
HETATM   25  C   UNK N   1      26.236  17.637   5.158  0.00  0.00    -0.006 A 
HETATM   26  N   UNK N   1      25.106  19.070   3.920  0.00  0.00    -0.360 N 
HETATM   27  C   UNK N   1      25.332  16.895   4.426  0.00  0.00     0.031 A 
HETATM   28  C   UNK N   1      27.175  17.227   6.086  0.00  0.00     0.044 A 
HETATM   29  C   UNK N   1      24.635  17.829   3.656  0.00  0.00     0.091 A 
HETATM   30  C   UNK N   1      24.628  20.299   3.313  0.00  0.00     0.155 C 
ENDBRANCH   7  21
BRANCH   2  31
HETATM   31  O   UNK N   1      27.608  18.205   9.653  0.00  0.00    -0.331 OA
HETATM   32  H   UNK N   1      26.807  17.760   9.456  0.00  0.00     0.221 HD
ENDBRANCH   2  31
TORSDOF 6
ENDMDL
MODEL 3
REMARK VINA RESULT:      -7.4      2.916      4.689
REMARK  6 active torsions:
REMARK  status: ('A' for Active; 'I' for Inactive)
REMARK    1  A    between atoms: C_14  and  C_11 
REMARK    2  A    between atoms: N_26  and  C_13 
REMARK    3  A    between atoms: C_19  and  C_15 
REMARK    4  A    between atoms: O_27  and  C_17 
REMARK    5  A    between atoms: O_28  and  C_18 
REMARK    6  A    between atoms: O_29  and  C_20 
ROOT
HETATM    1  C   UNK N   1      28.148  18.517   7.314  0.00  0.00     0.143 A 
HETATM    2  C   UNK N   1      29.363  17.690   8.866  0.00  0.00     0.245 A 
HETATM    3  N   UNK N   1      27.690  18.970   8.500  0.00  0.00    -0.281 N 
ATOM      4  HN  UNK N   1      26.897  19.599   8.634  1.00  0.00     0.188 HD
HETATM    5  N   UNK N   1      28.442  18.460   9.458  0.00  0.00    -0.263 N 
ATOM      6  HN  UNK N   1      28.341  18.621  10.460  1.00  0.00     0.190 HD
HETATM    7  N   UNK N   1      29.233  17.679   7.515  0.00  0.00    -0.260 N 
ENDROOT
BRANCH   1   8
HETATM    8  C   UNK N   1      27.470  18.936   6.029  0.00  0.00     0.044 A 
HETATM    9  C   UNK N   1      26.952  17.996   5.151  0.00  0.00     0.028 A 
HETATM   10  C   UNK N   1      26.266  18.327   3.992  0.00  0.00    -0.021 A 
HETATM   11  C   UNK N   1      26.100  19.681   3.664  0.00  0.00     0.075 A 
HETATM   12  C   UNK N   1      26.640  20.661   4.503  0.00  0.00     0.074 A 
HETATM   13  C   UNK N   1      27.321  20.304   5.677  0.00  0.00     0.082 A 
BRANCH  10  14
HETATM   14  C   UNK N   1      25.702  17.201   3.175  0.00  0.00     0.013 C 
HETATM   15  C   UNK N   1      24.415  16.646   3.757  0.00  0.00     0.015 C 
HETATM   16  C   UNK N   1      26.723  16.098   2.970  0.00  0.00     0.015 C 
ENDBRANCH  10  14
BRANCH  11  17
HETATM   17  O   UNK N   1      25.428  20.045   2.559  0.00  0.00    -0.360 OA
HETATM   18  H   UNK N   1      24.817  19.456   2.161  0.00  0.00     0.217 HD
ENDBRANCH  11  17
BRANCH  13  19
HETATM   19  O   UNK N   1      27.800  21.284   6.463  0.00  0.00    -0.360 OA
HETATM   20  H   UNK N   1      28.406  21.911   6.120  0.00  0.00     0.217 HD
ENDBRANCH  13  19
ENDBRANCH   1   8
BRANCH   7  21
HETATM   21  C   UNK N   1      30.096  16.897   6.624  0.00  0.00     0.045 A 
HETATM   22  C   UNK N   1      29.610  15.712   5.994  0.00  0.00     0.032 A 
HETATM   23  C   UNK N   1      30.430  14.943   5.139  0.00  0.00     0.033 A 
HETATM   24  C   UNK N   1      31.737  15.382   4.929  0.00  0.00     0.044 A 
HETATM   25  C   UNK N   1      32.206  16.511   5.514  0.00  0.00    -0.006 A 
HETATM   26  N   UNK N   1      32.698  14.825   4.180  0.00  0.00    -0.360 N 
HETATM   27  C   UNK N   1      33.518  16.687   5.127  0.00  0.00     0.031 A 
HETATM   28  C   UNK N   1      31.416  17.279   6.347  0.00  0.00     0.044 A 
HETATM   29  C   UNK N   1      33.797  15.607   4.287  0.00  0.00     0.091 A 
HETATM   30  C   UNK N   1      32.602  13.608   3.393  0.00  0.00     0.155 C 
ENDBRANCH   7  21
BRANCH   2  31
HETATM   31  O   UNK N   1      30.288  16.999   9.559  0.00  0.00    -0.331 OA
HETATM   32  H   UNK N   1      30.038  16.515  10.322  0.00  0.00     0.221 HD
ENDBRANCH   2  31
TORSDOF 6
ENDMDL
MODEL 4
REMARK VINA RESULT:      -7.3      3.276      6.491
REMARK  6 active torsions:
REMARK  status: ('A' for Active; 'I' for Inactive)
REMARK    1  A    between atoms: C_14  and  C_11 
REMARK    2  A    between atoms: N_26  and  C_13 
REMARK    3  A    between atoms: C_19  and  C_15 
REMARK    4  A    between atoms: O_27  and  C_17 
REMARK    5  A    between atoms: O_28  and  C_18 
REMARK    6  A    between atoms: O_29  and  C_20 
ROOT
HETATM    1  C   UNK N   1      27.536  18.713   6.515  0.00  0.00     0.143 A 
HETATM    2  C   UNK N   1      25.997  19.307   5.158  0.00  0.00     0.245 A 
HETATM    3  N   UNK N   1      27.108  19.944   6.869  0.00  0.00    -0.281 N 
ATOM      4  HN  UNK N   1      27.461  20.498   7.651  1.00  0.00     0.188 HD
HETATM    5  N   UNK N   1      26.155  20.308   6.030  0.00  0.00    -0.263 N 
ATOM      6  HN  UNK N   1      25.638  21.187   6.044  1.00  0.00     0.190 HD
HETATM    7  N   UNK N   1      26.838  18.270   5.404  0.00  0.00    -0.260 N 
ENDROOT
BRANCH   1   8
HETATM    8  C   UNK N   1      28.638  18.039   7.303  0.00  0.00     0.044 A 
HETATM    9  C   UNK N   1      29.784  17.572   6.677  0.00  0.00     0.028 A 
HETATM   10  C   UNK N   1      30.850  17.004   7.358  0.00  0.00    -0.021 A 
HETATM   11  C   UNK N   1      30.770  16.865   8.751  0.00  0.00     0.075 A 
HETATM   12  C   UNK N   1      29.616  17.288   9.418  0.00  0.00     0.074 A 
HETATM   13  C   UNK N   1      28.553  17.871   8.710  0.00  0.00     0.082 A 
BRANCH  10  14
HETATM   14  C   UNK N   1      32.054  16.607   6.554  0.00  0.00     0.013 C 
HETATM   15  C   UNK N   1      33.184  17.614   6.659  0.00  0.00     0.015 C 
HETATM   16  C   UNK N   1      31.693  16.351   5.103  0.00  0.00     0.015 C 
ENDBRANCH  10  14
BRANCH  11  17
HETATM   17  O   UNK N   1      31.787  16.334   9.451  0.00  0.00    -0.360 OA
HETATM   18  H   UNK N   1      32.334  15.677   9.067  0.00  0.00     0.217 HD
ENDBRANCH  11  17
BRANCH  13  19
HETATM   19  O   UNK N   1      27.475  18.285   9.399  0.00  0.00    -0.360 OA
HETATM   20  H   UNK N   1      26.890  18.915   9.027  0.00  0.00     0.217 HD
ENDBRANCH  13  19
ENDBRANCH   1   8
BRANCH   7  21
HETATM   21  C   UNK N   1      26.890  17.056   4.584  0.00  0.00     0.045 A 
HETATM   22  C   UNK N   1      25.804  16.130   4.584  0.00  0.00     0.032 A 
HETATM   23  C   UNK N   1      25.841  14.952   3.806  0.00  0.00     0.033 A 
HETATM   24  C   UNK N   1      26.979  14.722   3.033  0.00  0.00     0.044 A 
HETATM   25  C   UNK N   1      28.011  15.600   3.017  0.00  0.00    -0.006 A 
HETATM   26  N   UNK N   1      27.252  13.685   2.230  0.00  0.00    -0.360 N 
HETATM   27  C   UNK N   1      28.986  15.109   2.173  0.00  0.00     0.031 A 
HETATM   28  C   UNK N   1      27.989  16.761   3.767  0.00  0.00     0.044 A 
HETATM   29  C   UNK N   1      28.475  13.900   1.694  0.00  0.00     0.091 A 
HETATM   30  C   UNK N   1      26.409  12.532   1.970  0.00  0.00     0.155 C 
ENDBRANCH   7  21
BRANCH   2  31
HETATM   31  O   UNK N   1      25.108  19.357   4.147  0.00  0.00    -0.331 OA
HETATM   32  H   UNK N   1      24.215  19.584   4.318  0.00  0.00     0.221 HD
ENDBRANCH   2  31
TORSDOF 6
ENDMDL
MODEL 5
REMARK VINA RESULT:      -7.2     12.010     15.374
REMARK  6 active torsions:
REMARK  status: ('A' for Active; 'I' for Inactive)
REMARK    1  A    between atoms: C_14  and  C_11 
REMARK    2  A    between atoms: N_26  and  C_13 
REMARK    3  A    between atoms: C_19  and  C_15 
REMARK    4  A    between atoms: O_27  and  C_17 
REMARK    5  A    between atoms: O_28  and  C_18 
REMARK    6  A    between atoms: O_29  and  C_20 
ROOT
HETATM    1  C   UNK N   1      27.321  23.780  -5.896  0.00  0.00     0.143 A 
HETATM    2  C   UNK N   1      26.091  24.587  -7.446  0.00  0.00     0.245 A 
HETATM    3  N   UNK N   1      26.976  22.776  -6.732  0.00  0.00    -0.281 N 
ATOM      4  HN  UNK N   1      27.253  21.798  -6.639  1.00  0.00     0.188 HD
HETATM    5  N   UNK N   1      26.218  23.278  -7.690  0.00  0.00    -0.263 N 
ATOM      6  HN  UNK N   1      25.805  22.764  -8.469  1.00  0.00     0.190 HD
HETATM    7  N   UNK N   1      26.760  24.970  -6.329  0.00  0.00    -0.260 N 
ENDROOT
BRANCH   1   8
HETATM    8  C   UNK N   1      28.192  23.497  -4.692  0.00  0.00     0.044 A 
HETATM    9  C   UNK N   1      29.523  23.135  -4.838  0.00  0.00     0.028 A 
HETATM   10  C   UNK N   1      30.380  22.926  -3.768  0.00  0.00    -0.021 A 
HETATM   11  C   UNK N   1      29.884  23.061  -2.463  0.00  0.00     0.075 A 
HETATM   12  C   UNK N   1      28.539  23.388  -2.271  0.00  0.00     0.074 A 
HETATM   13  C   UNK N   1      27.690  23.606  -3.368  0.00  0.00     0.082 A 
BRANCH  10  14
HETATM   14  C   UNK N   1      31.813  22.606  -4.082  0.00  0.00     0.013 C 
HETATM   15  C   UNK N   1      32.347  23.407  -5.255  0.00  0.00     0.015 C 
HETATM   16  C   UNK N   1      32.014  21.119  -4.306  0.00  0.00     0.015 C 
ENDBRANCH  10  14
BRANCH  11  17
HETATM   17  O   UNK N   1      30.686  22.883  -1.399  0.00  0.00    -0.360 OA
HETATM   18  H   UNK N   1      31.566  22.581  -1.515  0.00  0.00     0.217 HD
ENDBRANCH  11  17
BRANCH  13  19
HETATM   19  O   UNK N   1      26.411  23.942  -3.131  0.00  0.00    -0.360 OA
HETATM   20  H   UNK N   1      25.915  23.488  -2.479  0.00  0.00     0.217 HD
ENDBRANCH  13  19
ENDBRANCH   1   8
BRANCH   7  21
HETATM   21  C   UNK N   1      26.768  26.345  -5.819  0.00  0.00     0.045 A 
HETATM   22  C   UNK N   1      25.826  26.761  -4.831  0.00  0.00     0.032 A 
HETATM   23  C   UNK N   1      25.814  28.083  -4.335  0.00  0.00     0.033 A 
HETATM   24  C   UNK N   1      26.758  28.973  -4.845  0.00  0.00     0.044 A 
HETATM   25  C   UNK N   1      27.664  28.587  -5.775  0.00  0.00    -0.006 A 
HETATM   26  N   UNK N   1      26.939  30.267  -4.545  0.00  0.00    -0.360 N 
HETATM   27  C   UNK N   1      28.457  29.672  -6.086  0.00  0.00     0.031 A 
HETATM   28  C   UNK N   1      27.695  27.296  -6.266  0.00  0.00     0.044 A 
HETATM   29  C   UNK N   1      27.973  30.715  -5.293  0.00  0.00     0.091 A 
HETATM   30  C   UNK N   1      26.177  31.062  -3.598  0.00  0.00     0.155 C 
ENDBRANCH   7  21
BRANCH   2  31
HETATM   31  O   UNK N   1      25.360  25.405  -8.227  0.00  0.00    -0.331 OA
HETATM   32  H   UNK N   1      24.460  25.567  -8.024  0.00  0.00     0.221 HD
ENDBRANCH   2  31
TORSDOF 6
ENDMDL
MODEL 6
REMARK VINA RESULT:      -7.2      2.984      7.201
REMARK  6 active torsions:
REMARK  status: ('A' for Active; 'I' for Inactive)
REMARK    1  A    between atoms: C_14  and  C_11 
REMARK    2  A    between atoms: N_26  and  C_13 
REMARK    3  A    between atoms: C_19  and  C_15 
REMARK    4  A    between atoms: O_27  and  C_17 
REMARK    5  A    between atoms: O_28  and  C_18 
REMARK    6  A    between atoms: O_29  and  C_20 
ROOT
HETATM    1  C   UNK N   1      30.804  17.658   8.248  0.00  0.00     0.143 A 
HETATM    2  C   UNK N   1      28.881  18.340   8.883  0.00  0.00     0.245 A 
HETATM    3  N   UNK N   1      30.950  18.312   9.421  0.00  0.00    -0.281 N 
ATOM      4  HN  UNK N   1      31.830  18.457   9.919  1.00  0.00     0.188 HD
HETATM    5  N   UNK N   1      29.761  18.730   9.812  0.00  0.00    -0.263 N 
ATOM      6  HN  UNK N   1      29.551  19.254  10.663  1.00  0.00     0.190 HD
HETATM    7  N   UNK N   1      29.473  17.661   7.867  0.00  0.00    -0.260 N 
ENDROOT
BRANCH   1   8
HETATM    8  C   UNK N   1      32.012  17.068   7.554  0.00  0.00     0.044 A 
HETATM    9  C   UNK N   1      32.088  17.014   6.170  0.00  0.00     0.028 A 
HETATM   10  C   UNK N   1      33.197  16.542   5.484  0.00  0.00    -0.021 A 
HETATM   11  C   UNK N   1      34.298  16.069   6.213  0.00  0.00     0.075 A 
HETATM   12  C   UNK N   1      34.247  16.071   7.610  0.00  0.00     0.074 A 
HETATM   13  C   UNK N   1      33.120  16.564   8.286  0.00  0.00     0.082 A 
BRANCH  10  14
HETATM   14  C   UNK N   1      33.162  16.607   3.984  0.00  0.00     0.013 C 
HETATM   15  C   UNK N   1      32.091  17.548   3.466  0.00  0.00     0.015 C 
HETATM   16  C   UNK N   1      33.013  15.228   3.371  0.00  0.00     0.015 C 
ENDBRANCH  10  14
BRANCH  11  17
HETATM   17  O   UNK N   1      35.398  15.618   5.586  0.00  0.00    -0.360 OA
HETATM   18  H   UNK N   1      35.566  15.856   4.696  0.00  0.00     0.217 HD
ENDBRANCH  11  17
BRANCH  13  19
HETATM   19  O   UNK N   1      33.129  16.568   9.630  0.00  0.00    -0.360 OA
HETATM   20  H   UNK N   1      32.716  15.875  10.107  0.00  0.00     0.217 HD
ENDBRANCH  13  19
ENDBRANCH   1   8
BRANCH   7  21
HETATM   21  C   UNK N   1      28.743  17.142   6.706  0.00  0.00     0.045 A 
HETATM   22  C   UNK N   1      28.682  17.889   5.491  0.00  0.00     0.032 A 
HETATM   23  C   UNK N   1      27.978  17.408   4.365  0.00  0.00     0.033 A 
HETATM   24  C   UNK N   1      27.341  16.173   4.480  0.00  0.00     0.044 A 
HETATM   25  C   UNK N   1      27.401  15.450   5.625  0.00  0.00    -0.006 A 
HETATM   26  N   UNK N   1      26.610  15.518   3.568  0.00  0.00    -0.360 N 
HETATM   27  C   UNK N   1      26.681  14.287   5.443  0.00  0.00     0.031 A 
HETATM   28  C   UNK N   1      28.091  15.902   6.734  0.00  0.00     0.044 A 
HETATM   29  C   UNK N   1      26.196  14.362   4.136  0.00  0.00     0.091 A 
HETATM   30  C   UNK N   1      26.304  15.949   2.216  0.00  0.00     0.155 C 
ENDBRANCH   7  21
BRANCH   2  31
HETATM   31  O   UNK N   1      27.566  18.621   8.963  0.00  0.00    -0.331 OA
HETATM   32  H   UNK N   1      26.983  18.018   9.381  0.00  0.00     0.221 HD
ENDBRANCH   2  31
TORSDOF 6
ENDMDL
MODEL 7
REMARK VINA RESULT:      -7.0     11.434     14.757
REMARK  6 active torsions:
REMARK  status: ('A' for Active; 'I' for Inactive)
REMARK    1  A    between atoms: C_14  and  C_11 
REMARK    2  A    between atoms: N_26  and  C_13 
REMARK    3  A    between atoms: C_19  and  C_15 
REMARK    4  A    between atoms: O_27  and  C_17 
REMARK    5  A    between atoms: O_28  and  C_18 
REMARK    6  A    between atoms: O_29  and  C_20 
ROOT
HETATM    1  C   UNK N   1      30.104  21.808  -4.779  0.00  0.00     0.143 A 
HETATM    2  C   UNK N   1      30.560  22.374  -2.769  0.00  0.00     0.245 A 
HETATM    3  N   UNK N   1      30.931  20.879  -4.253  0.00  0.00    -0.281 N 
ATOM      4  HN  UNK N   1      31.281  20.050  -4.733  1.00  0.00     0.188 HD
HETATM    5  N   UNK N   1      31.210  21.230  -3.010  0.00  0.00    -0.263 N 
ATOM      6  HN  UNK N   1      31.809  20.724  -2.357  1.00  0.00     0.190 HD
HETATM    7  N   UNK N   1      29.845  22.796  -3.842  0.00  0.00    -0.260 N 
ENDROOT
BRANCH   1   8
HETATM    8  C   UNK N   1      29.618  21.669  -6.204  0.00  0.00     0.044 A 
HETATM    9  C   UNK N   1      28.308  21.971  -6.548  0.00  0.00     0.028 A 
HETATM   10  C   UNK N   1      27.828  21.921  -7.848  0.00  0.00    -0.021 A 
HETATM   11  C   UNK N   1      28.694  21.524  -8.877  0.00  0.00     0.075 A 
HETATM   12  C   UNK N   1      30.012  21.175  -8.569  0.00  0.00     0.074 A 
HETATM   13  C   UNK N   1      30.481  21.243  -7.248  0.00  0.00     0.082 A 
BRANCH  10  14
HETATM   14  C   UNK N   1      26.406  22.342  -8.077  0.00  0.00     0.013 C 
HETATM   15  C   UNK N   1      25.954  23.423  -7.112  0.00  0.00     0.015 C 
HETATM   16  C   UNK N   1      25.462  21.155  -8.039  0.00  0.00     0.015 C 
ENDBRANCH  10  14
BRANCH  11  17
HETATM   17  O   UNK N   1      28.273  21.478 -10.153  0.00  0.00    -0.360 OA
HETATM   18  H   UNK N   1      28.284  20.670 -10.626  0.00  0.00     0.217 HD
ENDBRANCH  11  17
BRANCH  13  19
HETATM   19  O   UNK N   1      31.763  20.921  -7.006  0.00  0.00    -0.360 OA
HETATM   20  H   UNK N   1      32.342  20.718  -7.714  0.00  0.00     0.217 HD
ENDBRANCH  13  19
ENDBRANCH   1   8
BRANCH   7  21
HETATM   21  C   UNK N   1      29.060  24.034  -3.857  0.00  0.00     0.045 A 
HETATM   22  C   UNK N   1      27.668  24.018  -3.542  0.00  0.00     0.032 A 
HETATM   23  C   UNK N   1      26.895  25.200  -3.559  0.00  0.00     0.033 A 
HETATM   24  C   UNK N   1      27.540  26.390  -3.894  0.00  0.00     0.044 A 
HETATM   25  C   UNK N   1      28.864  26.419  -4.184  0.00  0.00    -0.006 A 
HETATM   26  N   UNK N   1      27.027  27.624  -3.989  0.00  0.00    -0.360 N 
HETATM   27  C   UNK N   1      29.216  27.720  -4.477  0.00  0.00     0.031 A 
HETATM   28  C   UNK N   1      29.636  25.273  -4.166  0.00  0.00     0.044 A 
HETATM   29  C   UNK N   1      28.035  28.454  -4.345  0.00  0.00     0.091 A 
HETATM   30  C   UNK N   1      25.650  28.021  -3.759  0.00  0.00     0.155 C 
ENDBRANCH   7  21
BRANCH   2  31
HETATM   31  O   UNK N   1      30.640  23.021  -1.591  0.00  0.00    -0.331 OA
HETATM   32  H   UNK N   1      30.025  22.832  -0.909  0.00  0.00     0.221 HD
ENDBRANCH   2  31
TORSDOF 6
ENDMDL
MODEL 8
REMARK VINA RESULT:      -6.9     13.256     16.470
REMARK  6 active torsions:
REMARK  status: ('A' for Active; 'I' for Inactive)
REMARK    1  A    between atoms: C_14  and  C_11 
REMARK    2  A    between atoms: N_26  and  C_13 
REMARK    3  A    between atoms: C_19  and  C_15 
REMARK    4  A    between atoms: O_27  and  C_17 
REMARK    5  A    between atoms: O_28  and  C_18 
REMARK    6  A    between atoms: O_29  and  C_20 
ROOT
HETATM    1  C   UNK N   1      36.086  10.737  20.438  0.00  0.00     0.143 A 
HETATM    2  C   UNK N   1      36.228   9.450  22.137  0.00  0.00     0.245 A 
HETATM    3  N   UNK N   1      36.999  11.254  21.288  0.00  0.00    -0.281 N 
ATOM      4  HN  UNK N   1      37.530  12.114  21.144  1.00  0.00     0.188 HD
HETATM    5  N   UNK N   1      37.087  10.456  22.336  0.00  0.00    -0.263 N 
ATOM      6  HN  UNK N   1      37.694  10.583  23.146  1.00  0.00     0.190 HD
HETATM    7  N   UNK N   1      35.562   9.566  20.960  0.00  0.00    -0.260 N 
ENDROOT
BRANCH   1   8
HETATM    8  C   UNK N   1      35.770  11.449  19.141  0.00  0.00     0.044 A 
HETATM    9  C   UNK N   1      35.973  10.831  17.916  0.00  0.00     0.028 A 
HETATM   10  C   UNK N   1      35.642  11.413  16.701  0.00  0.00    -0.021 A 
HETATM   11  C   UNK N   1      35.094  12.704  16.693  0.00  0.00     0.075 A 
HETATM   12  C   UNK N   1      34.907  13.377  17.904  0.00  0.00     0.074 A 
HETATM   13  C   UNK N   1      35.238  12.765  19.123  0.00  0.00     0.082 A 
BRANCH  10  14
HETATM   14  C   UNK N   1      35.857  10.595  15.461  0.00  0.00     0.013 C 
HETATM   15  C   UNK N   1      35.314   9.184  15.590  0.00  0.00     0.015 C 
HETATM   16  C   UNK N   1      37.318  10.577  15.053  0.00  0.00     0.015 C 
ENDBRANCH  10  14
BRANCH  11  17
HETATM   17  O   UNK N   1      34.745  13.297  15.539  0.00  0.00    -0.360 OA
HETATM   18  H   UNK N   1      33.858  13.262  15.238  0.00  0.00     0.217 HD
ENDBRANCH  11  17
BRANCH  13  19
HETATM   19  O   UNK N   1      35.017  13.444  20.262  0.00  0.00    -0.360 OA
HETATM   20  H   UNK N   1      34.453  13.091  20.921  0.00  0.00     0.217 HD
ENDBRANCH  13  19
ENDBRANCH   1   8
BRANCH   7  21
HETATM   21  C   UNK N   1      34.545   8.613  20.507  0.00  0.00     0.045 A 
HETATM   22  C   UNK N   1      34.922   7.393  19.869  0.00  0.00     0.032 A 
HETATM   23  C   UNK N   1      33.955   6.467  19.420  0.00  0.00     0.033 A 
HETATM   24  C   UNK N   1      32.612   6.785  19.622  0.00  0.00     0.044 A 
HETATM   25  C   UNK N   1      32.242   7.935  20.236  0.00  0.00    -0.006 A 
HETATM   26  N   UNK N   1      31.523   6.083  19.279  0.00  0.00    -0.360 N 
HETATM   27  C   UNK N   1      30.864   7.975  20.290  0.00  0.00     0.031 A 
HETATM   28  C   UNK N   1      33.175   8.849  20.688  0.00  0.00     0.044 A 
HETATM   29  C   UNK N   1      30.443   6.793  19.677  0.00  0.00     0.091 A 
HETATM   30  C   UNK N   1      31.485   4.798  18.603  0.00  0.00     0.155 C 
ENDBRANCH   7  21
BRANCH   2  31
HETATM   31  O   UNK N   1      36.051   8.457  23.030  0.00  0.00    -0.331 OA
HETATM   32  H   UNK N   1      36.041   7.565  22.744  0.00  0.00     0.221 HD
ENDBRANCH   2  31
TORSDOF 6
ENDMDL
MODEL 9
REMARK VINA RESULT:      -6.9      6.499      9.402
REMARK  6 active torsions:
REMARK  status: ('A' for Active; 'I' for Inactive)
REMARK    1  A    between atoms: C_14  and  C_11 
REMARK    2  A    between atoms: N_26  and  C_13 
REMARK    3  A    between atoms: C_19  and  C_15 
REMARK    4  A    between atoms: O_27  and  C_17 
REMARK    5  A    between atoms: O_28  and  C_18 
REMARK    6  A    between atoms: O_29  and  C_20 
ROOT
HETATM    1  C   UNK N   1      22.036  18.780   3.376  0.00  0.00     0.143 A 
HETATM    2  C   UNK N   1      19.993  18.165   3.246  0.00  0.00     0.245 A 
HETATM    3  N   UNK N   1      21.435  19.501   2.406  0.00  0.00    -0.281 N 
ATOM      4  HN  UNK N   1      21.881  20.217   1.831  1.00  0.00     0.188 HD
HETATM    5  N   UNK N   1      20.173  19.121   2.328  0.00  0.00    -0.263 N 
ATOM      6  HN  UNK N   1      19.467  19.487   1.688  1.00  0.00     0.190 HD
HETATM    7  N   UNK N   1      21.128  17.898   3.941  0.00  0.00    -0.260 N 
ENDROOT
BRANCH   1   8
HETATM    8  C   UNK N   1      23.499  18.998   3.688  0.00  0.00     0.044 A 
HETATM    9  C   UNK N   1      24.281  17.980   4.212  0.00  0.00     0.028 A 
HETATM   10  C   UNK N   1      25.640  18.108   4.456  0.00  0.00    -0.021 A 
HETATM   11  C   UNK N   1      26.267  19.333   4.188  0.00  0.00     0.075 A 
HETATM   12  C   UNK N   1      25.507  20.398   3.695  0.00  0.00     0.074 A 
HETATM   13  C   UNK N   1      24.135  20.244   3.443  0.00  0.00     0.082 A 
BRANCH  10  14
HETATM   14  C   UNK N   1      26.370  16.896   4.960  0.00  0.00     0.013 C 
HETATM   15  C   UNK N   1      27.042  16.115   3.847  0.00  0.00     0.015 C 
HETATM   16  C   UNK N   1      25.460  15.999   5.777  0.00  0.00     0.015 C 
ENDBRANCH  10  14
BRANCH  11  17
HETATM   17  O   UNK N   1      27.585  19.494   4.396  0.00  0.00    -0.360 OA
HETATM   18  H   UNK N   1      28.191  18.832   4.126  0.00  0.00     0.217 HD
ENDBRANCH  11  17
BRANCH  13  19
HETATM   19  O   UNK N   1      23.454  21.290   2.946  0.00  0.00    -0.360 OA
HETATM   20  H   UNK N   1      23.903  22.076   2.703  0.00  0.00     0.217 HD
ENDBRANCH  13  19
ENDBRANCH   1   8
BRANCH   7  21
HETATM   21  C   UNK N   1      21.216  16.876   4.988  0.00  0.00     0.045 A 
HETATM   22  C   UNK N   1      21.667  15.557   4.683  0.00  0.00     0.032 A 
HETATM   23  C   UNK N   1      21.750  14.558   5.678  0.00  0.00     0.033 A 
HETATM   24  C   UNK N   1      21.376  14.905   6.976  0.00  0.00     0.044 A 
HETATM   25  C   UNK N   1      20.956  16.157   7.279  0.00  0.00    -0.006 A 
HETATM   26  N   UNK N   1      21.357  14.140   8.076  0.00  0.00    -0.360 N 
HETATM   27  C   UNK N   1      20.655  16.200   8.625  0.00  0.00     0.031 A 
HETATM   28  C   UNK N   1      20.875  17.149   6.320  0.00  0.00     0.044 A 
HETATM   29  C   UNK N   1      20.919  14.912   9.097  0.00  0.00     0.091 A 
HETATM   30  C   UNK N   1      21.731  12.741   8.177  0.00  0.00     0.155 C 
ENDBRANCH   7  21
BRANCH   2  31
HETATM   31  O   UNK N   1      18.813  17.541   3.424  0.00  0.00    -0.331 OA
HETATM   32  H   UNK N   1      18.731  16.627   3.228  0.00  0.00     0.221 HD
ENDBRANCH   2  31
TORSDOF 6
ENDMDL
