MODEL 1
REMARK VINA RESULT:      -7.1      0.000      0.000
REMARK  10 active torsions:
REMARK  status: ('A' for Active; 'I' for Inactive)
REMARK    1  A    between atoms: C_3  and  C_21 
REMARK    2  A    between atoms: C_7  and  N_10 
REMARK       I    between atoms: N_10  and  C_11 
REMARK    3  A    between atoms: C_11  and  C_13 
REMARK    4  A    between atoms: C_13  and  C_14 
REMARK    5  A    between atoms: C_13  and  N_20 
REMARK    6  A    between atoms: C_21  and  O_23 
REMARK    7  A    between atoms: O_23  and  C_24 
REMARK    8  A    between atoms: C_24  and  O_25 
REMARK    9  A    between atoms: O_25  and  C_26 
REMARK   10  A    between atoms: C_28  and  C_26 
ROOT
HETATM    1  C   UNK N   1      36.463  14.523   8.924  0.00  0.00     0.029 C 
HETATM    2  C   UNK N   1      35.022  14.443   8.460  0.00  0.00     0.028 C 
HETATM    3  C   UNK N   1      34.776  15.452   7.332  0.00  0.00     0.184 C 
HETATM    4  N   UNK N   1      33.380  15.782   7.421  0.00  0.00    -0.220 NA
HETATM    5  C   UNK N   1      32.621  15.345   8.550  0.00  0.00     0.160 A 
HETATM    6  S   UNK N   1      33.884  14.933   9.807  0.00  0.00    -0.135 SA
HETATM    7  C   UNK N   1      32.051  16.848   8.657  0.00  0.00     0.199 A 
HETATM    8  C   UNK N   1      32.931  17.010   7.468  0.00  0.00     0.227 A 
HETATM    9  O   UNK N   1      33.567  17.999   7.125  0.00  0.00    -0.277 OA
HETATM   10  C   UNK N   1      34.690  13.011   8.058  0.00  0.00     0.029 C 
ENDROOT
BRANCH   3  11
HETATM   11  C   UNK N   1      35.222  15.035   5.952  0.00  0.00     0.280 C 
HETATM   12  O   UNK N   1      36.410  15.076   5.666  0.00  0.00    -0.263 OA
BRANCH  11  13
HETATM   13  O   UNK N   1      34.295  14.763   4.999  0.00  0.00    -0.294 OA
BRANCH  13  14
HETATM   14  C   UNK N   1      34.007  15.609   3.941  0.00  0.00     0.358 C 
BRANCH  14  15
HETATM   15  O   UNK N   1      32.859  15.226   3.266  0.00  0.00    -0.294 OA
BRANCH  15  16
HETATM   16  C   UNK N   1      31.627  15.297   3.822  0.00  0.00     0.281 C 
HETATM   17  O   UNK N   1      31.322  16.262   4.505  0.00  0.00    -0.263 OA
BRANCH  16  18
HETATM   18  C   UNK N   1      30.621  14.208   3.625  0.00  0.00     0.189 C 
HETATM   19  C   UNK N   1      31.019  12.765   4.002  0.00  0.00     0.084 C 
HETATM   20  S   UNK N   1      29.386  12.019   4.162  0.00  0.00     0.172 S 
HETATM   21  C   UNK N   1      31.716  12.692   5.353  0.00  0.00     0.034 C 
HETATM   22  C   UNK N   1      31.870  12.113   2.930  0.00  0.00     0.034 C 
HETATM   23  O   UNK N   1      29.330  10.815   5.115  0.00  0.00    -0.225 OA
HETATM   24  O   UNK N   1      28.848  11.512   2.813  0.00  0.00    -0.225 OA
HETATM   25  C   UNK N   1      28.493  13.464   4.752  0.00  0.00     0.198 A 
HETATM   26  N   UNK N   1      29.305  14.500   4.182  0.00  0.00    -0.219 NA
HETATM   27  C   UNK N   1      27.285  13.995   3.835  0.00  0.00     0.132 A 
HETATM   28  C   UNK N   1      28.340  14.959   3.431  0.00  0.00     0.204 A 
HETATM   29  O   UNK N   1      28.480  15.540   2.366  0.00  0.00    -0.280 OA
ENDBRANCH  16  18
ENDBRANCH  15  16
ENDBRANCH  14  15
ENDBRANCH  13  14
ENDBRANCH  11  13
ENDBRANCH   3  11
BRANCH   7  30
HETATM   30  N   UNK N   1      30.628  16.936   8.338  0.00  0.00    -0.344 N 
HETATM   31  C   UNK N   1      29.810  17.999   8.580  0.00  0.00     0.245 C 
HETATM   32  O   UNK N   1      30.220  18.986   9.172  0.00  0.00    -0.271 OA
HETATM   33  H   UNK N   1      30.221  16.151   7.904  0.00  0.00     0.163 HD
BRANCH  31  34
HETATM   34  C   UNK N   1      28.391  17.996   8.093  0.00  0.00     0.201 C 
BRANCH  34  35
HETATM   35  C   UNK N   1      28.165  18.708   6.782  0.00  0.00    -0.027 A 
HETATM   36  C   UNK N   1      28.283  18.006   5.573  0.00  0.00     0.010 A 
HETATM   37  C   UNK N   1      28.017  18.641   4.357  0.00  0.00     0.001 A 
HETATM   38  C   UNK N   1      27.601  19.975   4.341  0.00  0.00     0.000 A 
HETATM   39  C   UNK N   1      27.459  20.677   5.540  0.00  0.00     0.001 A 
HETATM   40  C   UNK N   1      27.743  20.048   6.755  0.00  0.00     0.010 A 
ENDBRANCH  34  35
BRANCH  34  41
HETATM   41  N   UNK N   1      27.500  18.487   9.138  0.00  0.00    -0.415 N 
HETATM   42  H   UNK N   1      27.829  19.167   9.822  0.00  0.00     0.151 HD
HETATM   43  H   UNK N   1      26.540  18.148   9.184  0.00  0.00     0.151 HD
ENDBRANCH  34  41
ENDBRANCH  31  34
ENDBRANCH   7  30
TORSDOF 10
ENDMDL
MODEL 2
REMARK VINA RESULT:      -7.1      1.688      2.369
REMARK  10 active torsions:
REMARK  status: ('A' for Active; 'I' for Inactive)
REMARK    1  A    between atoms: C_3  and  C_21 
REMARK    2  A    between atoms: C_7  and  N_10 
REMARK       I    between atoms: N_10  and  C_11 
REMARK    3  A    between atoms: C_11  and  C_13 
REMARK    4  A    between atoms: C_13  and  C_14 
REMARK    5  A    between atoms: C_13  and  N_20 
REMARK    6  A    between atoms: C_21  and  O_23 
REMARK    7  A    between atoms: O_23  and  C_24 
REMARK    8  A    between atoms: C_24  and  O_25 
REMARK    9  A    between atoms: O_25  and  C_26 
REMARK   10  A    between atoms: C_28  and  C_26 
ROOT
HETATM    1  C   UNK N   1      36.722  14.834   9.859  0.00  0.00     0.029 C 
HETATM    2  C   UNK N   1      35.268  14.610   9.492  0.00  0.00     0.028 C 
HETATM    3  C   UNK N   1      35.034  14.975   8.021  0.00  0.00     0.184 C 
HETATM    4  N   UNK N   1      33.654  15.372   7.947  0.00  0.00    -0.220 NA
HETATM    5  C   UNK N   1      32.907  15.556   9.151  0.00  0.00     0.160 A 
HETATM    6  S   UNK N   1      34.183  15.730  10.449  0.00  0.00    -0.135 SA
HETATM    7  C   UNK N   1      32.398  16.955   8.535  0.00  0.00     0.199 A 
HETATM    8  C   UNK N   1      33.255  16.496   7.408  0.00  0.00     0.227 A 
HETATM    9  O   UNK N   1      33.921  17.174   6.637  0.00  0.00    -0.277 OA
HETATM   10  C   UNK N   1      34.870  13.175   9.816  0.00  0.00     0.029 C 
ENDROOT
BRANCH   3  11
HETATM   11  C   UNK N   1      35.430  13.936   7.002  0.00  0.00     0.280 C 
HETATM   12  O   UNK N   1      36.601  13.843   6.660  0.00  0.00    -0.263 OA
BRANCH  11  13
HETATM   13  O   UNK N   1      34.470  13.218   6.366  0.00  0.00    -0.294 OA
BRANCH  13  14
HETATM   14  C   UNK N   1      34.685  12.518   5.190  0.00  0.00     0.358 C 
BRANCH  14  15
HETATM   15  O   UNK N   1      34.392  13.280   4.070  0.00  0.00    -0.294 OA
BRANCH  15  16
HETATM   16  C   UNK N   1      33.345  13.009   3.256  0.00  0.00     0.281 C 
HETATM   17  O   UNK N   1      33.330  11.975   2.607  0.00  0.00    -0.263 OA
BRANCH  16  18
HETATM   18  C   UNK N   1      32.197  13.959   3.123  0.00  0.00     0.189 C 
HETATM   19  C   UNK N   1      30.765  13.406   3.283  0.00  0.00     0.084 C 
HETATM   20  S   UNK N   1      29.875  14.933   3.640  0.00  0.00     0.172 S 
HETATM   21  C   UNK N   1      30.633  12.482   4.485  0.00  0.00     0.034 C 
HETATM   22  C   UNK N   1      30.280  12.713   2.025  0.00  0.00     0.034 C 
HETATM   23  O   UNK N   1      28.594  14.742   4.464  0.00  0.00    -0.225 OA
HETATM   24  O   UNK N   1      29.444  15.662   2.356  0.00  0.00    -0.225 OA
HETATM   25  C   UNK N   1      31.186  15.805   4.509  0.00  0.00     0.198 A 
HETATM   26  N   UNK N   1      32.330  15.174   3.917  0.00  0.00    -0.219 NA
HETATM   27  C   UNK N   1      31.692  17.185   3.864  0.00  0.00     0.132 A 
HETATM   28  C   UNK N   1      32.771  16.283   3.388  0.00  0.00     0.204 A 
HETATM   29  O   UNK N   1      33.451  16.370   2.376  0.00  0.00    -0.280 OA
ENDBRANCH  16  18
ENDBRANCH  15  16
ENDBRANCH  14  15
ENDBRANCH  13  14
ENDBRANCH  11  13
ENDBRANCH   3  11
BRANCH   7  30
HETATM   30  N   UNK N   1      30.973  16.947   8.216  0.00  0.00    -0.344 N 
HETATM   31  C   UNK N   1      30.047  17.855   8.634  0.00  0.00     0.245 C 
HETATM   32  O   UNK N   1      30.351  18.757   9.399  0.00  0.00    -0.271 OA
HETATM   33  H   UNK N   1      30.650  16.214   7.643  0.00  0.00     0.163 HD
BRANCH  31  34
HETATM   34  C   UNK N   1      28.633  17.788   8.134  0.00  0.00     0.201 C 
BRANCH  34  35
HETATM   35  C   UNK N   1      28.354  18.610   6.900  0.00  0.00    -0.027 A 
HETATM   36  C   UNK N   1      28.538  18.049   5.627  0.00  0.00     0.010 A 
HETATM   37  C   UNK N   1      28.224  18.781   4.479  0.00  0.00     0.001 A 
HETATM   38  C   UNK N   1      27.696  20.070   4.594  0.00  0.00     0.000 A 
HETATM   39  C   UNK N   1      27.489  20.630   5.856  0.00  0.00     0.001 A 
HETATM   40  C   UNK N   1      27.819  19.905   7.005  0.00  0.00     0.010 A 
ENDBRANCH  34  35
BRANCH  34  41
HETATM   41  N   UNK N   1      27.703  18.097   9.214  0.00  0.00    -0.415 N 
HETATM   42  H   UNK N   1      28.040  18.494  10.090  0.00  0.00     0.151 HD
HETATM   43  H   UNK N   1      26.707  17.915   9.091  0.00  0.00     0.151 HD
ENDBRANCH  34  41
ENDBRANCH  31  34
ENDBRANCH   7  30
TORSDOF 10
ENDMDL
MODEL 3
REMARK VINA RESULT:      -7.1      9.424     12.177
REMARK  10 active torsions:
REMARK  status: ('A' for Active; 'I' for Inactive)
REMARK    1  A    between atoms: C_3  and  C_21 
REMARK    2  A    between atoms: C_7  and  N_10 
REMARK       I    between atoms: N_10  and  C_11 
REMARK    3  A    between atoms: C_11  and  C_13 
REMARK    4  A    between atoms: C_13  and  C_14 
REMARK    5  A    between atoms: C_13  and  N_20 
REMARK    6  A    between atoms: C_21  and  O_23 
REMARK    7  A    between atoms: O_23  and  C_24 
REMARK    8  A    between atoms: C_24  and  O_25 
REMARK    9  A    between atoms: O_25  and  C_26 
REMARK   10  A    between atoms: C_28  and  C_26 
ROOT
HETATM    1  C   UNK N   1      37.817  10.635  14.510  0.00  0.00     0.029 C 
HETATM    2  C   UNK N   1      36.590  10.279  15.326  0.00  0.00     0.028 C 
HETATM    3  C   UNK N   1      35.832  11.553  15.721  0.00  0.00     0.184 C 
HETATM    4  N   UNK N   1      35.159  11.225  16.947  0.00  0.00    -0.220 NA
HETATM    5  C   UNK N   1      35.467  10.001  17.617  0.00  0.00     0.160 A 
HETATM    6  S   UNK N   1      37.074   9.493  16.906  0.00  0.00    -0.135 SA
HETATM    7  C   UNK N   1      35.590  10.859  18.975  0.00  0.00     0.199 A 
HETATM    8  C   UNK N   1      35.238  11.954  18.031  0.00  0.00     0.227 A 
HETATM    9  O   UNK N   1      35.599  13.124  18.059  0.00  0.00    -0.277 OA
HETATM   10  C   UNK N   1      35.726   9.292  14.551  0.00  0.00     0.029 C 
ENDROOT
BRANCH   3  11
HETATM   11  C   UNK N   1      34.933  12.150  14.667  0.00  0.00     0.280 C 
HETATM   12  O   UNK N   1      33.723  12.155  14.840  0.00  0.00    -0.263 OA
BRANCH  11  13
HETATM   13  O   UNK N   1      35.459  12.538  13.477  0.00  0.00    -0.294 OA
BRANCH  13  14
HETATM   14  C   UNK N   1      35.408  13.838  13.000  0.00  0.00     0.358 C 
BRANCH  14  15
HETATM   15  O   UNK N   1      35.077  13.886  11.656  0.00  0.00    -0.294 OA
BRANCH  15  16
HETATM   16  C   UNK N   1      35.988  14.145  10.688  0.00  0.00     0.281 C 
HETATM   17  O   UNK N   1      37.157  13.832  10.852  0.00  0.00    -0.263 OA
BRANCH  16  18
HETATM   18  C   UNK N   1      35.597  14.820   9.412  0.00  0.00     0.189 C 
HETATM   19  C   UNK N   1      35.430  13.955   8.145  0.00  0.00     0.084 C 
HETATM   20  S   UNK N   1      34.420  15.058   7.139  0.00  0.00     0.172 S 
HETATM   21  C   UNK N   1      34.634  12.686   8.413  0.00  0.00     0.034 C 
HETATM   22  C   UNK N   1      36.764  13.619   7.507  0.00  0.00     0.034 C 
HETATM   23  O   UNK N   1      33.534  14.343   6.108  0.00  0.00    -0.225 OA
HETATM   24  O   UNK N   1      35.276  16.054   6.338  0.00  0.00    -0.225 OA
HETATM   25  C   UNK N   1      33.505  15.859   8.464  0.00  0.00     0.198 A 
HETATM   26  N   UNK N   1      34.450  15.712   9.533  0.00  0.00    -0.219 NA
HETATM   27  C   UNK N   1      33.682  17.448   8.611  0.00  0.00     0.132 A 
HETATM   28  C   UNK N   1      34.608  17.000   9.682  0.00  0.00     0.204 A 
HETATM   29  O   UNK N   1      35.611  17.552  10.107  0.00  0.00    -0.280 OA
ENDBRANCH  16  18
ENDBRANCH  15  16
ENDBRANCH  14  15
ENDBRANCH  13  14
ENDBRANCH  11  13
ENDBRANCH   3  11
BRANCH   7  30
HETATM   30  N   UNK N   1      34.527  10.558  19.930  0.00  0.00    -0.344 N 
HETATM   31  C   UNK N   1      34.682   9.987  21.158  0.00  0.00     0.245 C 
HETATM   32  O   UNK N   1      35.778   9.609  21.542  0.00  0.00    -0.271 OA
HETATM   33  H   UNK N   1      33.608  10.792  19.662  0.00  0.00     0.163 HD
BRANCH  31  34
HETATM   34  C   UNK N   1      33.511   9.841  22.086  0.00  0.00     0.201 C 
BRANCH  34  35
HETATM   35  C   UNK N   1      32.509   8.786  21.686  0.00  0.00    -0.027 A 
HETATM   36  C   UNK N   1      31.691   8.985  20.563  0.00  0.00     0.010 A 
HETATM   37  C   UNK N   1      30.804   7.987  20.149  0.00  0.00     0.001 A 
HETATM   38  C   UNK N   1      30.748   6.772  20.835  0.00  0.00     0.000 A 
HETATM   39  C   UNK N   1      31.573   6.555  21.941  0.00  0.00     0.001 A 
HETATM   40  C   UNK N   1      32.448   7.558  22.367  0.00  0.00     0.010 A 
ENDBRANCH  34  35
BRANCH  34  41
HETATM   41  N   UNK N   1      32.877  11.136  22.303  0.00  0.00    -0.415 N 
HETATM   42  H   UNK N   1      32.132  11.240  22.989  0.00  0.00     0.151 HD
HETATM   43  H   UNK N   1      33.184  11.945  21.763  0.00  0.00     0.151 HD
ENDBRANCH  34  41
ENDBRANCH  31  34
ENDBRANCH   7  30
TORSDOF 10
ENDMDL
MODEL 4
REMARK VINA RESULT:      -7.1      1.387      2.250
REMARK  10 active torsions:
REMARK  status: ('A' for Active; 'I' for Inactive)
REMARK    1  A    between atoms: C_3  and  C_21 
REMARK    2  A    between atoms: C_7  and  N_10 
REMARK       I    between atoms: N_10  and  C_11 
REMARK    3  A    between atoms: C_11  and  C_13 
REMARK    4  A    between atoms: C_13  and  C_14 
REMARK    5  A    between atoms: C_13  and  N_20 
REMARK    6  A    between atoms: C_21  and  O_23 
REMARK    7  A    between atoms: O_23  and  C_24 
REMARK    8  A    between atoms: C_24  and  O_25 
REMARK    9  A    between atoms: O_25  and  C_26 
REMARK   10  A    between atoms: C_28  and  C_26 
ROOT
HETATM    1  C   UNK N   1      36.538  14.666   8.997  0.00  0.00     0.029 C 
HETATM    2  C   UNK N   1      35.097  14.552   8.540  0.00  0.00     0.028 C 
HETATM    3  C   UNK N   1      34.849  15.484   7.347  0.00  0.00     0.184 C 
HETATM    4  N   UNK N   1      33.452  15.816   7.415  0.00  0.00    -0.220 NA
HETATM    5  C   UNK N   1      32.694  15.453   8.571  0.00  0.00     0.160 A 
HETATM    6  S   UNK N   1      33.958  15.127   9.851  0.00  0.00    -0.135 SA
HETATM    7  C   UNK N   1      32.121  16.958   8.578  0.00  0.00     0.199 A 
HETATM    8  C   UNK N   1      33.000  17.044   7.381  0.00  0.00     0.227 A 
HETATM    9  O   UNK N   1      33.634  18.009   6.974  0.00  0.00    -0.277 OA
HETATM   10  C   UNK N   1      34.768  13.096   8.232  0.00  0.00     0.029 C 
ENDROOT
BRANCH   3  11
HETATM   11  C   UNK N   1      35.296  14.978   5.998  0.00  0.00     0.280 C 
HETATM   12  O   UNK N   1      36.482  15.019   5.703  0.00  0.00    -0.263 OA
BRANCH  11  13
HETATM   13  O   UNK N   1      34.369  14.624   5.072  0.00  0.00    -0.294 OA
BRANCH  13  14
HETATM   14  C   UNK N   1      34.672  13.957   3.896  0.00  0.00     0.358 C 
BRANCH  14  15
HETATM   15  O   UNK N   1      33.728  12.989   3.590  0.00  0.00    -0.294 OA
BRANCH  15  16
HETATM   16  C   UNK N   1      32.795  13.159   2.624  0.00  0.00     0.281 C 
HETATM   17  O   UNK N   1      33.142  13.373   1.474  0.00  0.00    -0.263 OA
BRANCH  16  18
HETATM   18  C   UNK N   1      31.333  13.099   2.936  0.00  0.00     0.189 C 
HETATM   19  C   UNK N   1      30.710  14.247   3.758  0.00  0.00     0.084 C 
HETATM   20  S   UNK N   1      28.972  14.030   3.337  0.00  0.00     0.172 S 
HETATM   21  C   UNK N   1      31.156  15.617   3.267  0.00  0.00     0.034 C 
HETATM   22  C   UNK N   1      30.988  14.099   5.241  0.00  0.00     0.034 C 
HETATM   23  O   UNK N   1      28.131  15.312   3.432  0.00  0.00    -0.225 OA
HETATM   24  O   UNK N   1      28.279  13.007   4.254  0.00  0.00    -0.225 OA
HETATM   25  C   UNK N   1      29.181  13.411   1.662  0.00  0.00     0.198 A 
HETATM   26  N   UNK N   1      30.485  12.825   1.782  0.00  0.00    -0.219 NA
HETATM   27  C   UNK N   1      28.618  11.938   1.357  0.00  0.00     0.132 A 
HETATM   28  C   UNK N   1      30.058  11.618   1.528  0.00  0.00     0.204 A 
HETATM   29  O   UNK N   1      30.570  10.582   1.924  0.00  0.00    -0.280 OA
ENDBRANCH  16  18
ENDBRANCH  15  16
ENDBRANCH  14  15
ENDBRANCH  13  14
ENDBRANCH  11  13
ENDBRANCH   3  11
BRANCH   7  30
HETATM   30  N   UNK N   1      30.698  17.021   8.254  0.00  0.00    -0.344 N 
HETATM   31  C   UNK N   1      29.805  17.942   8.716  0.00  0.00     0.245 C 
HETATM   32  O   UNK N   1      30.138  18.790   9.529  0.00  0.00    -0.271 OA
HETATM   33  H   UNK N   1      30.350  16.333   7.642  0.00  0.00     0.163 HD
BRANCH  31  34
HETATM   34  C   UNK N   1      28.392  17.956   8.207  0.00  0.00     0.201 C 
BRANCH  34  35
HETATM   35  C   UNK N   1      28.197  18.660   6.887  0.00  0.00    -0.027 A 
HETATM   36  C   UNK N   1      27.735  19.984   6.860  0.00  0.00     0.010 A 
HETATM   37  C   UNK N   1      27.609  20.664   5.646  0.00  0.00     0.001 A 
HETATM   38  C   UNK N   1      27.973  20.038   4.451  0.00  0.00     0.000 A 
HETATM   39  C   UNK N   1      28.456  18.727   4.469  0.00  0.00     0.001 A 
HETATM   40  C   UNK N   1      28.565  18.039   5.681  0.00  0.00     0.010 A 
ENDBRANCH  34  35
BRANCH  34  41
HETATM   41  N   UNK N   1      27.494  18.470   9.235  0.00  0.00    -0.415 N 
HETATM   42  H   UNK N   1      27.090  19.402   9.151  0.00  0.00     0.151 HD
HETATM   43  H   UNK N   1      27.267  17.891  10.043  0.00  0.00     0.151 HD
ENDBRANCH  34  41
ENDBRANCH  31  34
ENDBRANCH   7  30
TORSDOF 10
ENDMDL
MODEL 5
REMARK VINA RESULT:      -7.0      7.831     10.672
REMARK  10 active torsions:
REMARK  status: ('A' for Active; 'I' for Inactive)
REMARK    1  A    between atoms: C_3  and  C_21 
REMARK    2  A    between atoms: C_7  and  N_10 
REMARK       I    between atoms: N_10  and  C_11 
REMARK    3  A    between atoms: C_11  and  C_13 
REMARK    4  A    between atoms: C_13  and  C_14 
REMARK    5  A    between atoms: C_13  and  N_20 
REMARK    6  A    between atoms: C_21  and  O_23 
REMARK    7  A    between atoms: O_23  and  C_24 
REMARK    8  A    between atoms: C_24  and  O_25 
REMARK    9  A    between atoms: O_25  and  C_26 
REMARK   10  A    between atoms: C_28  and  C_26 
ROOT
HETATM    1  C   UNK N   1      36.142   9.977  11.146  0.00  0.00     0.029 C 
HETATM    2  C   UNK N   1      35.389  10.367  12.402  0.00  0.00     0.028 C 
HETATM    3  C   UNK N   1      35.955  11.674  12.971  0.00  0.00     0.184 C 
HETATM    4  N   UNK N   1      35.698  11.612  14.384  0.00  0.00    -0.220 NA
HETATM    5  C   UNK N   1      35.232  10.391  14.964  0.00  0.00     0.160 A 
HETATM    6  S   UNK N   1      35.638   9.118  13.715  0.00  0.00    -0.135 SA
HETATM    7  C   UNK N   1      36.359  10.585  16.098  0.00  0.00     0.199 A 
HETATM    8  C   UNK N   1      36.618  11.809  15.293  0.00  0.00     0.227 A 
HETATM    9  O   UNK N   1      37.687  12.373  15.093  0.00  0.00    -0.277 OA
HETATM   10  C   UNK N   1      33.897  10.448  12.103  0.00  0.00     0.029 C 
ENDROOT
BRANCH   3  11
HETATM   11  C   UNK N   1      35.483  12.949  12.316  0.00  0.00     0.280 C 
HETATM   12  O   UNK N   1      34.591  13.601  12.841  0.00  0.00    -0.263 OA
BRANCH  11  13
HETATM   13  O   UNK N   1      35.942  13.280  11.083  0.00  0.00    -0.294 OA
BRANCH  13  14
HETATM   14  C   UNK N   1      36.675  14.425  10.816  0.00  0.00     0.358 C 
BRANCH  14  15
HETATM   15  O   UNK N   1      36.321  14.999   9.606  0.00  0.00    -0.294 OA
BRANCH  15  16
HETATM   16  C   UNK N   1      35.111  15.569   9.393  0.00  0.00     0.281 C 
HETATM   17  O   UNK N   1      34.579  16.216  10.282  0.00  0.00    -0.263 OA
BRANCH  16  18
HETATM   18  C   UNK N   1      34.400  15.419   8.087  0.00  0.00     0.189 C 
HETATM   19  C   UNK N   1      33.900  14.016   7.680  0.00  0.00     0.084 C 
HETATM   20  S   UNK N   1      32.666  14.466   6.447  0.00  0.00     0.172 S 
HETATM   21  C   UNK N   1      33.198  13.300   8.824  0.00  0.00     0.034 C 
HETATM   22  C   UNK N   1      35.017  13.156   7.121  0.00  0.00     0.034 C 
HETATM   23  O   UNK N   1      31.536  13.440   6.277  0.00  0.00    -0.225 OA
HETATM   24  O   UNK N   1      33.284  14.644   5.049  0.00  0.00    -0.225 OA
HETATM   25  C   UNK N   1      32.137  16.030   7.161  0.00  0.00     0.198 A 
HETATM   26  N   UNK N   1      33.330  16.386   7.872  0.00  0.00    -0.219 NA
HETATM   27  C   UNK N   1      32.353  17.346   6.267  0.00  0.00     0.132 A 
HETATM   28  C   UNK N   1      33.527  17.468   7.168  0.00  0.00     0.204 A 
HETATM   29  O   UNK N   1      34.609  17.990   6.949  0.00  0.00    -0.280 OA
ENDBRANCH  16  18
ENDBRANCH  15  16
ENDBRANCH  14  15
ENDBRANCH  13  14
ENDBRANCH  11  13
ENDBRANCH   3  11
BRANCH   7  30
HETATM   30  N   UNK N   1      35.792  10.869  17.414  0.00  0.00    -0.344 N 
HETATM   31  C   UNK N   1      36.143  10.275  18.590  0.00  0.00     0.245 C 
HETATM   32  O   UNK N   1      36.959   9.367  18.617  0.00  0.00    -0.271 OA
HETATM   33  H   UNK N   1      35.089  11.558  17.456  0.00  0.00     0.163 HD
BRANCH  31  34
HETATM   34  C   UNK N   1      35.557  10.749  19.888  0.00  0.00     0.201 C 
BRANCH  34  35
HETATM   35  C   UNK N   1      34.278  10.061  20.298  0.00  0.00    -0.027 A 
HETATM   36  C   UNK N   1      33.623  10.444  21.478  0.00  0.00     0.010 A 
HETATM   37  C   UNK N   1      32.406   9.855  21.834  0.00  0.00     0.001 A 
HETATM   38  C   UNK N   1      31.820   8.900  21.000  0.00  0.00     0.000 A 
HETATM   39  C   UNK N   1      32.453   8.527  19.813  0.00  0.00     0.001 A 
HETATM   40  C   UNK N   1      33.679   9.102  19.464  0.00  0.00     0.010 A 
ENDBRANCH  34  35
BRANCH  34  41
HETATM   41  N   UNK N   1      35.413  12.200  19.874  0.00  0.00    -0.415 N 
HETATM   42  H   UNK N   1      34.534  12.636  20.153  0.00  0.00     0.151 HD
HETATM   43  H   UNK N   1      36.197  12.783  19.584  0.00  0.00     0.151 HD
ENDBRANCH  34  41
ENDBRANCH  31  34
ENDBRANCH   7  30
TORSDOF 10
ENDMDL
MODEL 6
REMARK VINA RESULT:      -6.8      5.387      8.563
REMARK  10 active torsions:
REMARK  status: ('A' for Active; 'I' for Inactive)
REMARK    1  A    between atoms: C_3  and  C_21 
REMARK    2  A    between atoms: C_7  and  N_10 
REMARK       I    between atoms: N_10  and  C_11 
REMARK    3  A    between atoms: C_11  and  C_13 
REMARK    4  A    between atoms: C_13  and  C_14 
REMARK    5  A    between atoms: C_13  and  N_20 
REMARK    6  A    between atoms: C_21  and  O_23 
REMARK    7  A    between atoms: O_23  and  C_24 
REMARK    8  A    between atoms: C_24  and  O_25 
REMARK    9  A    between atoms: O_25  and  C_26 
REMARK   10  A    between atoms: C_28  and  C_26 
ROOT
HETATM    1  C   UNK N   1      38.444  13.853   8.095  0.00  0.00     0.029 C 
HETATM    2  C   UNK N   1      37.602  12.939   8.962  0.00  0.00     0.028 C 
HETATM    3  C   UNK N   1      36.235  13.580   9.233  0.00  0.00     0.184 C 
HETATM    4  N   UNK N   1      35.812  13.044  10.497  0.00  0.00    -0.220 NA
HETATM    5  C   UNK N   1      36.731  12.287  11.287  0.00  0.00     0.160 A 
HETATM    6  S   UNK N   1      38.372  12.725  10.608  0.00  0.00    -0.135 SA
HETATM    7  C   UNK N   1      36.278  13.186  12.545  0.00  0.00     0.199 A 
HETATM    8  C   UNK N   1      35.410  13.787  11.497  0.00  0.00     0.227 A 
HETATM    9  O   UNK N   1      35.037  14.950  11.396  0.00  0.00    -0.277 OA
HETATM   10  C   UNK N   1      37.493  11.566   8.309  0.00  0.00     0.029 C 
ENDROOT
BRANCH   3  11
HETATM   11  C   UNK N   1      35.208  13.452   8.136  0.00  0.00     0.280 C 
HETATM   12  O   UNK N   1      34.124  12.940   8.382  0.00  0.00    -0.263 OA
BRANCH  11  13
HETATM   13  O   UNK N   1      35.545  13.767   6.859  0.00  0.00    -0.294 OA
BRANCH  13  14
HETATM   14  C   UNK N   1      35.233  14.974   6.255  0.00  0.00     0.358 C 
BRANCH  14  15
HETATM   15  O   UNK N   1      34.114  15.564   6.821  0.00  0.00    -0.294 OA
BRANCH  15  16
HETATM   16  C   UNK N   1      33.728  16.828   6.526  0.00  0.00     0.281 C 
HETATM   17  O   UNK N   1      34.549  17.731   6.528  0.00  0.00    -0.263 OA
BRANCH  16  18
HETATM   18  C   UNK N   1      32.304  17.150   6.203  0.00  0.00     0.189 C 
HETATM   19  C   UNK N   1      31.787  16.848   4.780  0.00  0.00     0.084 C 
HETATM   20  S   UNK N   1      30.011  16.826   5.087  0.00  0.00     0.172 S 
HETATM   21  C   UNK N   1      32.208  15.469   4.294  0.00  0.00     0.034 C 
HETATM   22  C   UNK N   1      32.208  17.913   3.786  0.00  0.00     0.034 C 
HETATM   23  O   UNK N   1      29.209  15.959   4.105  0.00  0.00    -0.225 OA
HETATM   24  O   UNK N   1      29.394  18.233   5.005  0.00  0.00    -0.225 OA
HETATM   25  C   UNK N   1      30.042  16.193   6.770  0.00  0.00     0.198 A 
HETATM   26  N   UNK N   1      31.340  16.649   7.176  0.00  0.00    -0.219 NA
HETATM   27  C   UNK N   1      29.423  17.138   7.912  0.00  0.00     0.132 A 
HETATM   28  C   UNK N   1      30.867  17.419   8.118  0.00  0.00     0.204 A 
HETATM   29  O   UNK N   1      31.395  18.435   8.542  0.00  0.00    -0.280 OA
ENDBRANCH  16  18
ENDBRANCH  15  16
ENDBRANCH  14  15
ENDBRANCH  13  14
ENDBRANCH  11  13
ENDBRANCH   3  11
BRANCH   7  30
HETATM   30  N   UNK N   1      35.532  12.423  13.543  0.00  0.00    -0.344 N 
HETATM   31  C   UNK N   1      36.052  11.806  14.642  0.00  0.00     0.245 C 
HETATM   32  O   UNK N   1      37.256  11.795  14.846  0.00  0.00    -0.271 OA
HETATM   33  H   UNK N   1      34.559  12.349  13.410  0.00  0.00     0.163 HD
BRANCH  31  34
HETATM   34  C   UNK N   1      35.150  11.153  15.648  0.00  0.00     0.201 C 
BRANCH  34  35
HETATM   35  C   UNK N   1      35.229  11.726  17.042  0.00  0.00    -0.027 A 
HETATM   36  C   UNK N   1      35.176  13.115  17.233  0.00  0.00     0.010 A 
HETATM   37  C   UNK N   1      35.186  13.652  18.523  0.00  0.00     0.001 A 
HETATM   38  C   UNK N   1      35.220  12.806  19.633  0.00  0.00     0.000 A 
HETATM   39  C   UNK N   1      35.252  11.421  19.455  0.00  0.00     0.001 A 
HETATM   40  C   UNK N   1      35.259  10.882  18.165  0.00  0.00     0.010 A 
ENDBRANCH  34  35
BRANCH  34  41
HETATM   41  N   UNK N   1      35.354   9.709  15.643  0.00  0.00    -0.415 N 
HETATM   42  H   UNK N   1      36.109   9.290  16.185  0.00  0.00     0.151 HD
HETATM   43  H   UNK N   1      34.736   9.113  15.093  0.00  0.00     0.151 HD
ENDBRANCH  34  41
ENDBRANCH  31  34
ENDBRANCH   7  30
TORSDOF 10
ENDMDL
MODEL 7
REMARK VINA RESULT:      -6.7      5.218      8.303
REMARK  10 active torsions:
REMARK  status: ('A' for Active; 'I' for Inactive)
REMARK    1  A    between atoms: C_3  and  C_21 
REMARK    2  A    between atoms: C_7  and  N_10 
REMARK       I    between atoms: N_10  and  C_11 
REMARK    3  A    between atoms: C_11  and  C_13 
REMARK    4  A    between atoms: C_13  and  C_14 
REMARK    5  A    between atoms: C_13  and  N_20 
REMARK    6  A    between atoms: C_21  and  O_23 
REMARK    7  A    between atoms: O_23  and  C_24 
REMARK    8  A    between atoms: C_24  and  O_25 
REMARK    9  A    between atoms: O_25  and  C_26 
REMARK   10  A    between atoms: C_28  and  C_26 
ROOT
HETATM    1  C   UNK N   1      38.746  13.823   7.924  0.00  0.00     0.029 C 
HETATM    2  C   UNK N   1      37.602  13.276   8.754  0.00  0.00     0.028 C 
HETATM    3  C   UNK N   1      36.634  14.406   9.125  0.00  0.00     0.184 C 
HETATM    4  N   UNK N   1      36.031  13.993  10.363  0.00  0.00    -0.220 NA
HETATM    5  C   UNK N   1      36.550  12.856  11.057  0.00  0.00     0.160 A 
HETATM    6  S   UNK N   1      38.219  12.622  10.348  0.00  0.00    -0.135 SA
HETATM    7  C   UNK N   1      36.523  13.753  12.395  0.00  0.00     0.199 A 
HETATM    8  C   UNK N   1      35.983  14.749  11.430  0.00  0.00     0.227 A 
HETATM    9  O   UNK N   1      36.134  15.964  11.430  0.00  0.00    -0.277 OA
HETATM   10  C   UNK N   1      36.923  12.136   8.006  0.00  0.00     0.029 C 
ENDROOT
BRANCH   3  11
HETATM   11  C   UNK N   1      35.642  14.813   8.064  0.00  0.00     0.280 C 
HETATM   12  O   UNK N   1      35.880  14.564   6.890  0.00  0.00    -0.263 OA
BRANCH  11  13
HETATM   13  O   UNK N   1      34.574  15.580   8.401  0.00  0.00    -0.294 OA
BRANCH  13  14
HETATM   14  C   UNK N   1      34.448  16.916   8.059  0.00  0.00     0.358 C 
BRANCH  14  15
HETATM   15  O   UNK N   1      33.482  17.115   7.086  0.00  0.00    -0.294 OA
BRANCH  15  16
HETATM   16  C   UNK N   1      32.167  16.868   7.300  0.00  0.00     0.281 C 
HETATM   17  O   UNK N   1      31.571  17.469   8.179  0.00  0.00    -0.263 OA
BRANCH  16  18
HETATM   18  C   UNK N   1      31.422  15.862   6.483  0.00  0.00     0.189 C 
HETATM   19  C   UNK N   1      30.357  16.368   5.487  0.00  0.00     0.084 C 
HETATM   20  S   UNK N   1      30.232  14.934   4.403  0.00  0.00     0.172 S 
HETATM   21  C   UNK N   1      30.850  17.550   4.666  0.00  0.00     0.034 C 
HETATM   22  C   UNK N   1      29.051  16.710   6.178  0.00  0.00     0.034 C 
HETATM   23  O   UNK N   1      29.777  15.259   2.972  0.00  0.00    -0.225 OA
HETATM   24  O   UNK N   1      29.231  13.894   4.934  0.00  0.00    -0.225 OA
HETATM   25  C   UNK N   1      31.933  14.364   4.522  0.00  0.00     0.198 A 
HETATM   26  N   UNK N   1      32.272  14.884   5.814  0.00  0.00    -0.219 NA
HETATM   27  C   UNK N   1      32.165  12.893   5.123  0.00  0.00     0.132 A 
HETATM   28  C   UNK N   1      32.477  13.702   6.329  0.00  0.00     0.204 A 
HETATM   29  O   UNK N   1      32.345  13.403   7.506  0.00  0.00    -0.280 OA
ENDBRANCH  16  18
ENDBRANCH  15  16
ENDBRANCH  14  15
ENDBRANCH  13  14
ENDBRANCH  11  13
ENDBRANCH   3  11
BRANCH   7  30
HETATM   30  N   UNK N   1      35.531  13.292  13.363  0.00  0.00    -0.344 N 
HETATM   31  C   UNK N   1      35.769  12.940  14.658  0.00  0.00     0.245 C 
HETATM   32  O   UNK N   1      36.904  12.925  15.107  0.00  0.00    -0.271 OA
HETATM   33  H   UNK N   1      34.599  13.231  13.050  0.00  0.00     0.163 HD
BRANCH  31  34
HETATM   34  C   UNK N   1      34.633  12.594  15.576  0.00  0.00     0.201 C 
BRANCH  34  35
HETATM   35  C   UNK N   1      35.034  12.276  16.995  0.00  0.00    -0.027 A 
HETATM   36  C   UNK N   1      35.013  13.284  17.972  0.00  0.00     0.010 A 
HETATM   37  C   UNK N   1      35.324  12.986  19.301  0.00  0.00     0.001 A 
HETATM   38  C   UNK N   1      35.629  11.674  19.672  0.00  0.00     0.000 A 
HETATM   39  C   UNK N   1      35.632  10.660  18.712  0.00  0.00     0.001 A 
HETATM   40  C   UNK N   1      35.339  10.959  17.378  0.00  0.00     0.010 A 
ENDBRANCH  34  35
BRANCH  34  41
HETATM   41  N   UNK N   1      33.820  11.533  14.991  0.00  0.00    -0.415 N 
HETATM   42  H   UNK N   1      33.263  11.708  14.156  0.00  0.00     0.151 HD
HETATM   43  H   UNK N   1      33.810  10.609  15.422  0.00  0.00     0.151 HD
ENDBRANCH  34  41
ENDBRANCH  31  34
ENDBRANCH   7  30
TORSDOF 10
ENDMDL
MODEL 8
REMARK VINA RESULT:      -6.7      1.643      2.161
REMARK  10 active torsions:
REMARK  status: ('A' for Active; 'I' for Inactive)
REMARK    1  A    between atoms: C_3  and  C_21 
REMARK    2  A    between atoms: C_7  and  N_10 
REMARK       I    between atoms: N_10  and  C_11 
REMARK    3  A    between atoms: C_11  and  C_13 
REMARK    4  A    between atoms: C_13  and  C_14 
REMARK    5  A    between atoms: C_13  and  N_20 
REMARK    6  A    between atoms: C_21  and  O_23 
REMARK    7  A    between atoms: O_23  and  C_24 
REMARK    8  A    between atoms: C_24  and  O_25 
REMARK    9  A    between atoms: O_25  and  C_26 
REMARK   10  A    between atoms: C_28  and  C_26 
ROOT
HETATM    1  C   UNK N   1      36.266  14.314   7.226  0.00  0.00     0.029 C 
HETATM    2  C   UNK N   1      34.757  14.277   7.083  0.00  0.00     0.028 C 
HETATM    3  C   UNK N   1      34.328  15.053   5.832  0.00  0.00     0.184 C 
HETATM    4  N   UNK N   1      33.001  15.524   6.118  0.00  0.00    -0.220 NA
HETATM    5  C   UNK N   1      32.477  15.400   7.443  0.00  0.00     0.160 A 
HETATM    6  S   UNK N   1      33.956  15.136   8.486  0.00  0.00    -0.135 SA
HETATM    7  C   UNK N   1      32.018  16.940   7.328  0.00  0.00     0.199 A 
HETATM    8  C   UNK N   1      32.634  16.773   5.983  0.00  0.00     0.227 A 
HETATM    9  O   UNK N   1      33.232  17.607   5.314  0.00  0.00    -0.277 OA
HETATM   10  C   UNK N   1      34.276  12.831   7.076  0.00  0.00     0.029 C 
ENDROOT
BRANCH   3  11
HETATM   11  C   UNK N   1      34.451  14.324   4.517  0.00  0.00     0.280 C 
HETATM   12  O   UNK N   1      35.557  14.154   4.024  0.00  0.00    -0.263 OA
BRANCH  11  13
HETATM   13  O   UNK N   1      33.331  13.997   3.822  0.00  0.00    -0.294 OA
BRANCH  13  14
HETATM   14  C   UNK N   1      33.009  12.704   3.446  0.00  0.00     0.358 C 
BRANCH  14  15
HETATM   15  O   UNK N   1      31.667  12.574   3.129  0.00  0.00    -0.294 OA
BRANCH  15  16
HETATM   16  C   UNK N   1      30.685  12.659   4.058  0.00  0.00     0.281 C 
HETATM   17  O   UNK N   1      30.876  12.234   5.186  0.00  0.00    -0.263 OA
BRANCH  16  18
HETATM   18  C   UNK N   1      29.355  13.260   3.731  0.00  0.00     0.189 C 
HETATM   19  C   UNK N   1      28.416  12.490   2.777  0.00  0.00     0.084 C 
HETATM   20  S   UNK N   1      26.842  13.265   3.191  0.00  0.00     0.172 S 
HETATM   21  C   UNK N   1      28.330  11.011   3.123  0.00  0.00     0.034 C 
HETATM   22  C   UNK N   1      28.808  12.674   1.324  0.00  0.00     0.034 C 
HETATM   23  O   UNK N   1      25.614  12.376   2.943  0.00  0.00    -0.225 OA
HETATM   24  O   UNK N   1      26.601  14.550   2.380  0.00  0.00    -0.225 OA
HETATM   25  C   UNK N   1      27.164  13.606   4.927  0.00  0.00     0.198 A 
HETATM   26  N   UNK N   1      28.595  13.703   4.893  0.00  0.00    -0.219 NA
HETATM   27  C   UNK N   1      27.134  15.145   5.382  0.00  0.00     0.132 A 
HETATM   28  C   UNK N   1      28.602  14.952   5.271  0.00  0.00     0.204 A 
HETATM   29  O   UNK N   1      29.464  15.775   4.999  0.00  0.00    -0.280 OA
ENDBRANCH  16  18
ENDBRANCH  15  16
ENDBRANCH  14  15
ENDBRANCH  13  14
ENDBRANCH  11  13
ENDBRANCH   3  11
BRANCH   7  30
HETATM   30  N   UNK N   1      30.567  17.094   7.283  0.00  0.00    -0.344 N 
HETATM   31  C   UNK N   1      29.823  17.956   8.031  0.00  0.00     0.245 C 
HETATM   32  O   UNK N   1      30.342  18.657   8.886  0.00  0.00    -0.271 OA
HETATM   33  H   UNK N   1      30.078  16.519   6.649  0.00  0.00     0.163 HD
BRANCH  31  34
HETATM   34  C   UNK N   1      28.346  18.090   7.798  0.00  0.00     0.201 C 
BRANCH  34  35
HETATM   35  C   UNK N   1      27.955  19.111   6.758  0.00  0.00    -0.027 A 
HETATM   36  C   UNK N   1      28.087  18.810   5.394  0.00  0.00     0.010 A 
HETATM   37  C   UNK N   1      27.671  19.725   4.424  0.00  0.00     0.001 A 
HETATM   38  C   UNK N   1      27.092  20.937   4.808  0.00  0.00     0.000 A 
HETATM   39  C   UNK N   1      26.936  21.239   6.163  0.00  0.00     0.001 A 
HETATM   40  C   UNK N   1      27.368  20.332   7.134  0.00  0.00     0.010 A 
ENDBRANCH  34  35
BRANCH  34  41
HETATM   41  N   UNK N   1      27.655  18.312   9.063  0.00  0.00    -0.415 N 
HETATM   42  H   UNK N   1      26.837  18.918   9.107  0.00  0.00     0.151 HD
HETATM   43  H   UNK N   1      27.994  17.856   9.910  0.00  0.00     0.151 HD
ENDBRANCH  34  41
ENDBRANCH  31  34
ENDBRANCH   7  30
TORSDOF 10
ENDMDL
MODEL 9
REMARK VINA RESULT:      -6.7      4.299      7.971
REMARK  10 active torsions:
REMARK  status: ('A' for Active; 'I' for Inactive)
REMARK    1  A    between atoms: C_3  and  C_21 
REMARK    2  A    between atoms: C_7  and  N_10 
REMARK       I    between atoms: N_10  and  C_11 
REMARK    3  A    between atoms: C_11  and  C_13 
REMARK    4  A    between atoms: C_13  and  C_14 
REMARK    5  A    between atoms: C_13  and  N_20 
REMARK    6  A    between atoms: C_21  and  O_23 
REMARK    7  A    between atoms: O_23  and  C_24 
REMARK    8  A    between atoms: C_24  and  O_25 
REMARK    9  A    between atoms: O_25  and  C_26 
REMARK   10  A    between atoms: C_28  and  C_26 
ROOT
HETATM    1  C   UNK N   1      34.423  15.947   6.389  0.00  0.00     0.029 C 
HETATM    2  C   UNK N   1      34.207  15.015   7.565  0.00  0.00     0.028 C 
HETATM    3  C   UNK N   1      33.760  15.814   8.795  0.00  0.00     0.184 C 
HETATM    4  N   UNK N   1      34.212  15.049   9.925  0.00  0.00    -0.220 NA
HETATM    5  C   UNK N   1      35.092  13.941   9.722  0.00  0.00     0.160 A 
HETATM    6  S   UNK N   1      35.780  14.216   8.050  0.00  0.00    -0.135 SA
HETATM    7  C   UNK N   1      35.998  14.536  10.914  0.00  0.00     0.199 A 
HETATM    8  C   UNK N   1      34.915  15.557  10.905  0.00  0.00     0.227 A 
HETATM    9  O   UNK N   1      34.999  16.753  11.156  0.00  0.00    -0.277 OA
HETATM   10  C   UNK N   1      33.220  13.919   7.179  0.00  0.00     0.029 C 
ENDROOT
BRANCH   3  11
HETATM   11  C   UNK N   1      32.301  16.192   8.853  0.00  0.00     0.280 C 
HETATM   12  O   UNK N   1      31.554  15.598   9.619  0.00  0.00    -0.263 OA
BRANCH  11  13
HETATM   13  O   UNK N   1      31.800  17.077   7.954  0.00  0.00    -0.294 OA
BRANCH  13  14
HETATM   14  C   UNK N   1      30.679  17.858   8.185  0.00  0.00     0.358 C 
BRANCH  14  15
HETATM   15  O   UNK N   1      29.511  17.216   7.807  0.00  0.00    -0.294 OA
BRANCH  15  16
HETATM   16  C   UNK N   1      28.424  17.884   7.355  0.00  0.00     0.281 C 
HETATM   17  O   UNK N   1      27.896  18.733   8.056  0.00  0.00    -0.263 OA
BRANCH  16  18
HETATM   18  C   UNK N   1      27.841  17.600   6.007  0.00  0.00     0.189 C 
HETATM   19  C   UNK N   1      27.301  16.182   5.725  0.00  0.00     0.084 C 
HETATM   20  S   UNK N   1      26.229  16.527   4.317  0.00  0.00     0.172 S 
HETATM   21  C   UNK N   1      26.443  15.654   6.865  0.00  0.00     0.034 C 
HETATM   22  C   UNK N   1      28.414  15.205   5.402  0.00  0.00     0.034 C 
HETATM   23  O   UNK N   1      25.062  15.542   4.153  0.00  0.00    -0.225 OA
HETATM   24  O   UNK N   1      26.997  16.493   2.985  0.00  0.00    -0.225 OA
HETATM   25  C   UNK N   1      25.727  18.193   4.770  0.00  0.00     0.198 A 
HETATM   26  N   UNK N   1      26.860  18.581   5.559  0.00  0.00    -0.219 NA
HETATM   27  C   UNK N   1      26.114  19.371   3.750  0.00  0.00     0.132 A 
HETATM   28  C   UNK N   1      27.195  19.552   4.752  0.00  0.00     0.204 A 
HETATM   29  O   UNK N   1      28.324  19.989   4.590  0.00  0.00    -0.280 OA
ENDBRANCH  16  18
ENDBRANCH  15  16
ENDBRANCH  14  15
ENDBRANCH  13  14
ENDBRANCH  11  13
ENDBRANCH   3  11
BRANCH   7  30
HETATM   30  N   UNK N   1      35.985  13.693  12.107  0.00  0.00    -0.344 N 
HETATM   31  C   UNK N   1      36.980  12.855  12.514  0.00  0.00     0.245 C 
HETATM   32  O   UNK N   1      37.984  12.695  11.838  0.00  0.00    -0.271 OA
HETATM   33  H   UNK N   1      35.180  13.735  12.672  0.00  0.00     0.163 HD
BRANCH  31  34
HETATM   34  C   UNK N   1      36.880  12.133  13.826  0.00  0.00     0.201 C 
BRANCH  34  35
HETATM   35  C   UNK N   1      36.455  12.989  14.994  0.00  0.00    -0.027 A 
HETATM   36  C   UNK N   1      35.379  12.590  15.801  0.00  0.00     0.010 A 
HETATM   37  C   UNK N   1      35.017  13.345  16.921  0.00  0.00     0.001 A 
HETATM   38  C   UNK N   1      35.746  14.487  17.260  0.00  0.00     0.000 A 
HETATM   39  C   UNK N   1      36.832  14.882  16.475  0.00  0.00     0.001 A 
HETATM   40  C   UNK N   1      37.184  14.138  15.345  0.00  0.00     0.010 A 
ENDBRANCH  34  35
BRANCH  34  41
HETATM   41  N   UNK N   1      38.120  11.416  14.101  0.00  0.00    -0.415 N 
HETATM   42  H   UNK N   1      38.976  11.926  14.313  0.00  0.00     0.151 HD
HETATM   43  H   UNK N   1      38.129  10.397  14.081  0.00  0.00     0.151 HD
ENDBRANCH  34  41
ENDBRANCH  31  34
ENDBRANCH   7  30
TORSDOF 10
ENDMDL
