MODEL 1
REMARK VINA RESULT:      -7.9      0.000      0.000
REMARK  7 active torsions:
REMARK  status: ('A' for Active; 'I' for Inactive)
REMARK    1  A    between atoms: C_2  and  C_3 
REMARK    2  A    between atoms: C_3  and  C_26 
REMARK    3  A    between atoms: C_4  and  C_5 
REMARK    4  A    between atoms: C_4  and  C_16 
REMARK    5  A    between atoms: C_8  and  C_11 
REMARK    6  A    between atoms: C_12  and  C_13 
REMARK    7  A    between atoms: C_13  and  O_15 
ROOT
HETATM    1  C   UNK N   1      35.483   8.763  21.400  0.00  0.00    -0.035 C 
HETATM    2  C   UNK N   1      36.337   9.741  20.871  0.00  0.00    -0.009 C 
ENDROOT
BRANCH   2   3
HETATM    3  C   UNK N   1      35.896  10.588  19.719  0.00  0.00    -0.025 A 
HETATM    4  C   UNK N   1      35.982  10.094  18.407  0.00  0.00     0.013 A 
HETATM    5  C   UNK N   1      35.708  10.927  17.320  0.00  0.00     0.012 A 
HETATM    6  C   UNK N   1      35.341  12.256  17.535  0.00  0.00    -0.036 A 
HETATM    7  C   UNK N   1      35.180  12.731  18.844  0.00  0.00     0.012 A 
HETATM    8  C   UNK N   1      35.436  11.897  19.928  0.00  0.00     0.013 A 
BRANCH   6   9
HETATM    9  C   UNK N   1      35.264  13.173  16.391  0.00  0.00     0.018 C 
HETATM   10  C   UNK N   1      36.009  12.957  15.304  0.00  0.00     0.082 C 
BRANCH  10  11
HETATM   11  C   UNK N   1      35.909  13.800  14.109  0.00  0.00     0.165 C 
HETATM   12  O   UNK N   1      34.958  13.666  13.358  0.00  0.00    -0.647 OA
BRANCH  11  13
HETATM   13  O   UNK N   1      36.837  14.741  13.851  0.00  0.00    -0.773 OA
HETATM   14  H   UNK N   1      37.763  14.634  13.752  0.00  0.00     0.167 HD
ENDBRANCH  11  13
ENDBRANCH  10  11
ENDBRANCH   6   9
ENDBRANCH   2   3
BRANCH   2  15
HETATM   15  C   UNK N   1      37.749  10.013  21.373  0.00  0.00    -0.024 A 
HETATM   16  C   UNK N   1      38.900   9.325  20.896  0.00  0.00     0.014 A 
HETATM   17  C   UNK N   1      40.189   9.623  21.386  0.00  0.00     0.033 A 
HETATM   18  C   UNK N   1      40.295  10.615  22.356  0.00  0.00     0.059 A 
HETATM   19  C   UNK N   1      39.210  11.276  22.823  0.00  0.00     0.010 A 
HETATM   20  N   UNK N   1      41.397  11.066  22.964  0.00  0.00    -0.300 N 
HETATM   21  C   UNK N   1      37.932  11.012  22.364  0.00  0.00     0.027 A 
HETATM   22  C   UNK N   1      39.677  12.169  23.759  0.00  0.00     0.120 A 
HETATM   23  N   UNK N   1      41.021  12.016  23.823  0.00  0.00    -0.311 N 
ATOM     24  HN  UNK N   1      41.648  12.544  24.431  1.00  0.00     0.186 HD
HETATM   25  H   UNK N   1      42.318  10.755  22.807  0.00  0.00     0.187 HD
ENDBRANCH   2  15
BRANCH   1  26
HETATM   26  C   UNK N   1      35.974   7.842  22.486  0.00  0.00     0.036 C 
HETATM   27  C   UNK N   1      35.540   8.331  23.860  0.00  0.00     0.010 C 
ENDBRANCH   1  26
BRANCH   1  28
HETATM   28  C   UNK N   1      34.016   8.603  20.971  0.00  0.00    -0.007 A 
HETATM   29  C   UNK N   1      33.674   7.591  20.049  0.00  0.00     0.017 A 
HETATM   30  C   UNK N   1      32.361   7.343  19.660  0.00  0.00     0.043 A 
HETATM   31  C   UNK N   1      31.335   8.128  20.161  0.00  0.00     0.118 A 
HETATM   32  C   UNK N   1      31.630   9.183  21.021  0.00  0.00     0.066 A 
HETATM   33  F   UNK N   1      30.050   7.867  19.816  0.00  0.00    -0.206 F 
HETATM   34  C   UNK N   1      32.948   9.445  21.424  0.00  0.00     0.047 A 
HETATM   35 Cl   UNK N   1      33.142  10.791  22.535  0.00  0.00    -0.083 Cl
ENDBRANCH   1  28
TORSDOF 7
ENDMDL
MODEL 2
REMARK VINA RESULT:      -7.9     17.392     20.741
REMARK  7 active torsions:
REMARK  status: ('A' for Active; 'I' for Inactive)
REMARK    1  A    between atoms: C_2  and  C_3 
REMARK    2  A    between atoms: C_3  and  C_26 
REMARK    3  A    between atoms: C_4  and  C_5 
REMARK    4  A    between atoms: C_4  and  C_16 
REMARK    5  A    between atoms: C_8  and  C_11 
REMARK    6  A    between atoms: C_12  and  C_13 
REMARK    7  A    between atoms: C_13  and  O_15 
ROOT
HETATM    1  C   UNK N   1      21.198  13.086   5.574  0.00  0.00    -0.035 C 
HETATM    2  C   UNK N   1      21.888  13.888   6.495  0.00  0.00    -0.009 C 
ENDROOT
BRANCH   2   3
HETATM    3  C   UNK N   1      22.487  15.191   6.065  0.00  0.00    -0.025 A 
HETATM    4  C   UNK N   1      21.836  16.399   6.366  0.00  0.00     0.013 A 
HETATM    5  C   UNK N   1      22.312  17.605   5.846  0.00  0.00     0.012 A 
HETATM    6  C   UNK N   1      23.444  17.613   5.029  0.00  0.00    -0.036 A 
HETATM    7  C   UNK N   1      24.140  16.420   4.791  0.00  0.00     0.012 A 
HETATM    8  C   UNK N   1      23.676  15.220   5.322  0.00  0.00     0.013 A 
BRANCH   6   9
HETATM    9  C   UNK N   1      23.808  18.847   4.321  0.00  0.00     0.018 C 
HETATM   10  C   UNK N   1      22.932  19.438   3.505  0.00  0.00     0.082 C 
BRANCH  10  11
HETATM   11  C   UNK N   1      23.223  20.710   2.837  0.00  0.00     0.165 C 
HETATM   12  O   UNK N   1      24.295  20.862   2.276  0.00  0.00    -0.647 OA
BRANCH  11  13
HETATM   13  O   UNK N   1      22.308  21.698   2.810  0.00  0.00    -0.773 OA
HETATM   14  H   UNK N   1      22.399  22.566   2.469  0.00  0.00     0.167 HD
ENDBRANCH  11  13
ENDBRANCH  10  11
ENDBRANCH   6   9
ENDBRANCH   2   3
BRANCH   2  15
HETATM   15  C   UNK N   1      22.114  13.521   7.955  0.00  0.00    -0.024 A 
HETATM   16  C   UNK N   1      21.086  13.533   8.939  0.00  0.00     0.014 A 
HETATM   17  C   UNK N   1      21.345  13.172  10.278  0.00  0.00     0.033 A 
HETATM   18  C   UNK N   1      22.648  12.805  10.603  0.00  0.00     0.059 A 
HETATM   19  C   UNK N   1      23.638  12.791   9.681  0.00  0.00     0.010 A 
HETATM   20  N   UNK N   1      23.130  12.427  11.792  0.00  0.00    -0.300 N 
HETATM   21  C   UNK N   1      23.419  13.136   8.360  0.00  0.00     0.027 A 
HETATM   22  C   UNK N   1      24.775  12.387  10.343  0.00  0.00     0.120 A 
HETATM   23  N   UNK N   1      24.431  12.172  11.635  0.00  0.00    -0.311 N 
ATOM     24  HN  UNK N   1      25.065  11.863  12.372  1.00  0.00     0.186 HD
HETATM   25  H   UNK N   1      22.619  12.351  12.631  0.00  0.00     0.187 HD
ENDBRANCH   2  15
BRANCH   1  26
HETATM   26  C   UNK N   1      20.695  11.729   5.987  0.00  0.00     0.036 C 
HETATM   27  C   UNK N   1      21.778  10.671   5.836  0.00  0.00     0.010 C 
ENDBRANCH   1  26
BRANCH   1  28
HETATM   28  C   UNK N   1      20.862  13.542   4.145  0.00  0.00    -0.007 A 
HETATM   29  C   UNK N   1      21.657  13.088   3.071  0.00  0.00     0.017 A 
HETATM   30  C   UNK N   1      21.379  13.405   1.745  0.00  0.00     0.043 A 
HETATM   31  C   UNK N   1      20.302  14.224   1.445  0.00  0.00     0.118 A 
HETATM   32  C   UNK N   1      19.529  14.753   2.475  0.00  0.00     0.066 A 
HETATM   33  F   UNK N   1      20.004  14.505   0.153  0.00  0.00    -0.206 F 
HETATM   34  C   UNK N   1      19.794  14.441   3.817  0.00  0.00     0.047 A 
HETATM   35 Cl   UNK N   1      18.706  15.166   4.988  0.00  0.00    -0.083 Cl
ENDBRANCH   1  28
TORSDOF 7
ENDMDL
MODEL 3
REMARK VINA RESULT:      -7.7     16.253     19.709
REMARK  7 active torsions:
REMARK  status: ('A' for Active; 'I' for Inactive)
REMARK    1  A    between atoms: C_2  and  C_3 
REMARK    2  A    between atoms: C_3  and  C_26 
REMARK    3  A    between atoms: C_4  and  C_5 
REMARK    4  A    between atoms: C_4  and  C_16 
REMARK    5  A    between atoms: C_8  and  C_11 
REMARK    6  A    between atoms: C_12  and  C_13 
REMARK    7  A    between atoms: C_13  and  O_15 
ROOT
HETATM    1  C   UNK N   1      27.436  15.294   4.274  0.00  0.00    -0.035 C 
HETATM    2  C   UNK N   1      27.482  16.521   4.950  0.00  0.00    -0.009 C 
ENDROOT
BRANCH   2   3
HETATM    3  C   UNK N   1      26.529  17.619   4.594  0.00  0.00    -0.025 A 
HETATM    4  C   UNK N   1      25.183  17.537   4.984  0.00  0.00     0.013 A 
HETATM    5  C   UNK N   1      24.259  18.483   4.534  0.00  0.00     0.012 A 
HETATM    6  C   UNK N   1      24.675  19.520   3.696  0.00  0.00    -0.036 A 
HETATM    7  C   UNK N   1      26.032  19.648   3.368  0.00  0.00     0.012 A 
HETATM    8  C   UNK N   1      26.956  18.715   3.829  0.00  0.00     0.013 A 
BRANCH   6   9
HETATM    9  C   UNK N   1      23.666  20.379   3.063  0.00  0.00     0.018 C 
HETATM   10  C   UNK N   1      22.391  19.988   3.005  0.00  0.00     0.082 C 
BRANCH  10  11
HETATM   11  C   UNK N   1      21.337  20.843   2.451  0.00  0.00     0.165 C 
HETATM   12  O   UNK N   1      21.287  21.029   1.247  0.00  0.00    -0.647 OA
BRANCH  11  13
HETATM   13  O   UNK N   1      20.407  21.396   3.253  0.00  0.00    -0.773 OA
HETATM   14  H   UNK N   1      19.519  21.130   3.384  0.00  0.00     0.167 HD
ENDBRANCH  11  13
ENDBRANCH  10  11
ENDBRANCH   6   9
ENDBRANCH   2   3
BRANCH   2  15
HETATM   15  C   UNK N   1      28.480  16.861   6.049  0.00  0.00    -0.024 A 
HETATM   16  C   UNK N   1      29.891  16.853   5.862  0.00  0.00     0.014 A 
HETATM   17  C   UNK N   1      30.773  17.187   6.911  0.00  0.00     0.033 A 
HETATM   18  C   UNK N   1      30.212  17.523   8.140  0.00  0.00     0.059 A 
HETATM   19  C   UNK N   1      28.873  17.531   8.336  0.00  0.00     0.010 A 
HETATM   20  N   UNK N   1      30.838  17.871   9.270  0.00  0.00    -0.300 N 
HETATM   21  C   UNK N   1      27.979  17.212   7.330  0.00  0.00     0.027 A 
HETATM   22  C   UNK N   1      28.678  17.901   9.647  0.00  0.00     0.120 A 
HETATM   23  N   UNK N   1      29.902  18.102  10.192  0.00  0.00    -0.311 N 
ATOM     24  HN  UNK N   1      30.080  18.386  11.156  1.00  0.00     0.186 HD
HETATM   25  H   UNK N   1      31.812  17.944   9.398  0.00  0.00     0.187 HD
ENDBRANCH   2  15
BRANCH   1  26
HETATM   26  C   UNK N   1      28.468  14.236   4.563  0.00  0.00     0.036 C 
HETATM   27  C   UNK N   1      29.488  14.140   3.437  0.00  0.00     0.010 C 
ENDBRANCH   1  26
BRANCH   1  28
HETATM   28  C   UNK N   1      26.333  14.926   3.268  0.00  0.00    -0.007 A 
HETATM   29  C   UNK N   1      26.403  15.431   1.953  0.00  0.00     0.017 A 
HETATM   30  C   UNK N   1      25.478  15.093   0.969  0.00  0.00     0.043 A 
HETATM   31  C   UNK N   1      24.420  14.253   1.279  0.00  0.00     0.118 A 
HETATM   32  C   UNK N   1      24.270  13.784   2.582  0.00  0.00     0.066 A 
HETATM   33  F   UNK N   1      23.538  13.890   0.316  0.00  0.00    -0.206 F 
HETATM   34  C   UNK N   1      25.195  14.114   3.584  0.00  0.00     0.047 A 
HETATM   35 Cl   UNK N   1      24.875  13.415   5.162  0.00  0.00    -0.083 Cl
ENDBRANCH   1  28
TORSDOF 7
ENDMDL
MODEL 4
REMARK VINA RESULT:      -7.7     15.431     18.982
REMARK  7 active torsions:
REMARK  status: ('A' for Active; 'I' for Inactive)
REMARK    1  A    between atoms: C_2  and  C_3 
REMARK    2  A    between atoms: C_3  and  C_26 
REMARK    3  A    between atoms: C_4  and  C_5 
REMARK    4  A    between atoms: C_4  and  C_16 
REMARK    5  A    between atoms: C_8  and  C_11 
REMARK    6  A    between atoms: C_12  and  C_13 
REMARK    7  A    between atoms: C_13  and  O_15 
ROOT
HETATM    1  C   UNK N   1      27.536  16.670   4.001  0.00  0.00    -0.035 C 
HETATM    2  C   UNK N   1      28.589  15.745   3.950  0.00  0.00    -0.009 C 
ENDROOT
BRANCH   2   3
HETATM    3  C   UNK N   1      29.936  16.100   4.498  0.00  0.00    -0.025 A 
HETATM    4  C   UNK N   1      30.378  15.535   5.705  0.00  0.00     0.013 A 
HETATM    5  C   UNK N   1      31.568  15.969   6.294  0.00  0.00     0.012 A 
HETATM    6  C   UNK N   1      32.328  16.965   5.677  0.00  0.00    -0.036 A 
HETATM    7  C   UNK N   1      31.929  17.476   4.434  0.00  0.00     0.012 A 
HETATM    8  C   UNK N   1      30.752  17.033   3.839  0.00  0.00     0.013 A 
BRANCH   6   9
HETATM    9  C   UNK N   1      33.456  17.559   6.405  0.00  0.00     0.018 C 
HETATM   10  C   UNK N   1      33.423  17.655   7.737  0.00  0.00     0.082 C 
BRANCH  10  11
HETATM   11  C   UNK N   1      34.556  18.169   8.510  0.00  0.00     0.165 C 
HETATM   12  O   UNK N   1      34.995  19.280   8.265  0.00  0.00    -0.647 OA
BRANCH  11  13
HETATM   13  O   UNK N   1      35.094  17.443   9.508  0.00  0.00    -0.773 OA
HETATM   14  H   UNK N   1      34.734  17.258  10.353  0.00  0.00     0.167 HD
ENDBRANCH  11  13
ENDBRANCH  10  11
ENDBRANCH   6   9
ENDBRANCH   2   3
BRANCH   2  15
HETATM   15  C   UNK N   1      28.485  14.356   3.336  0.00  0.00    -0.024 A 
HETATM   16  C   UNK N   1      27.770  13.281   3.936  0.00  0.00     0.014 A 
HETATM   17  C   UNK N   1      27.694  12.015   3.318  0.00  0.00     0.033 A 
HETATM   18  C   UNK N   1      28.346  11.853   2.100  0.00  0.00     0.059 A 
HETATM   19  C   UNK N   1      29.033  12.863   1.518  0.00  0.00     0.010 A 
HETATM   20  N   UNK N   1      28.415  10.758   1.335  0.00  0.00    -0.300 N 
HETATM   21  C   UNK N   1      29.127  14.118   2.093  0.00  0.00     0.027 A 
HETATM   22  C   UNK N   1      29.543  12.357   0.345  0.00  0.00     0.120 A 
HETATM   23  N   UNK N   1      29.147  11.064   0.262  0.00  0.00    -0.311 N 
ATOM     24  HN  UNK N   1      29.372  10.425  -0.501  1.00  0.00     0.186 HD
HETATM   25  H   UNK N   1      28.001   9.885   1.528  0.00  0.00     0.187 HD
ENDBRANCH   2  15
BRANCH   1  26
HETATM   26  C   UNK N   1      26.217  16.346   3.351  0.00  0.00     0.036 C 
HETATM   27  C   UNK N   1      25.091  16.317   4.374  0.00  0.00     0.010 C 
ENDBRANCH   1  26
BRANCH   1  28
HETATM   28  C   UNK N   1      27.626  18.009   4.751  0.00  0.00    -0.007 A 
HETATM   29  C   UNK N   1      27.705  19.209   4.011  0.00  0.00     0.017 A 
HETATM   30  C   UNK N   1      27.726  20.462   4.616  0.00  0.00     0.043 A 
HETATM   31  C   UNK N   1      27.699  20.560   5.998  0.00  0.00     0.118 A 
HETATM   32  C   UNK N   1      27.690  19.403   6.772  0.00  0.00     0.066 A 
HETATM   33  F   UNK N   1      27.680  21.779   6.591  0.00  0.00    -0.206 F 
HETATM   34  C   UNK N   1      27.667  18.132   6.178  0.00  0.00     0.047 A 
HETATM   35 Cl   UNK N   1      27.625  16.779   7.297  0.00  0.00    -0.083 Cl
ENDBRANCH   1  28
TORSDOF 7
ENDMDL
MODEL 5
REMARK VINA RESULT:      -7.4     16.839     20.305
REMARK  7 active torsions:
REMARK  status: ('A' for Active; 'I' for Inactive)
REMARK    1  A    between atoms: C_2  and  C_3 
REMARK    2  A    between atoms: C_3  and  C_26 
REMARK    3  A    between atoms: C_4  and  C_5 
REMARK    4  A    between atoms: C_4  and  C_16 
REMARK    5  A    between atoms: C_8  and  C_11 
REMARK    6  A    between atoms: C_12  and  C_13 
REMARK    7  A    between atoms: C_13  and  O_15 
ROOT
HETATM    1  C   UNK N   1      24.011  12.530   5.392  0.00  0.00    -0.035 C 
HETATM    2  C   UNK N   1      23.665  13.441   6.400  0.00  0.00    -0.009 C 
ENDROOT
BRANCH   2   3
HETATM    3  C   UNK N   1      23.228  14.829   6.051  0.00  0.00    -0.025 A 
HETATM    4  C   UNK N   1      21.861  15.128   5.932  0.00  0.00     0.013 A 
HETATM    5  C   UNK N   1      21.450  16.380   5.468  0.00  0.00     0.012 A 
HETATM    6  C   UNK N   1      22.402  17.343   5.125  0.00  0.00    -0.036 A 
HETATM    7  C   UNK N   1      23.765  17.074   5.315  0.00  0.00     0.012 A 
HETATM    8  C   UNK N   1      24.174  15.833   5.793  0.00  0.00     0.013 A 
BRANCH   6   9
HETATM    9  C   UNK N   1      21.968  18.568   4.442  0.00  0.00     0.018 C 
HETATM   10  C   UNK N   1      20.821  18.588   3.760  0.00  0.00     0.082 C 
BRANCH  10  11
HETATM   11  C   UNK N   1      20.310  19.808   3.128  0.00  0.00     0.165 C 
HETATM   12  O   UNK N   1      20.278  20.846   3.767  0.00  0.00    -0.647 OA
BRANCH  11  13
HETATM   13  O   UNK N   1      19.909  19.801   1.843  0.00  0.00    -0.773 OA
HETATM   14  H   UNK N   1      20.041  19.136   1.196  0.00  0.00     0.167 HD
ENDBRANCH  11  13
ENDBRANCH  10  11
ENDBRANCH   6   9
ENDBRANCH   2   3
BRANCH   2  15
HETATM   15  C   UNK N   1      23.722  13.135   7.891  0.00  0.00    -0.024 A 
HETATM   16  C   UNK N   1      24.910  13.230   8.669  0.00  0.00     0.014 A 
HETATM   17  C   UNK N   1      24.907  12.948  10.052  0.00  0.00     0.033 A 
HETATM   18  C   UNK N   1      23.699  12.568  10.627  0.00  0.00     0.059 A 
HETATM   19  C   UNK N   1      22.561  12.468   9.901  0.00  0.00     0.010 A 
HETATM   20  N   UNK N   1      23.451  12.253  11.903  0.00  0.00    -0.300 N 
HETATM   21  C   UNK N   1      22.526  12.740   8.546  0.00  0.00     0.027 A 
HETATM   22  C   UNK N   1      21.578  12.073  10.778  0.00  0.00     0.120 A 
HETATM   23  N   UNK N   1      22.155  11.950  11.997  0.00  0.00    -0.311 N 
ATOM     24  HN  UNK N   1      21.674  11.670  12.853  1.00  0.00     0.186 HD
HETATM   25  H   UNK N   1      24.105  12.246  12.640  0.00  0.00     0.187 HD
ENDBRANCH   2  15
BRANCH   1  26
HETATM   26  C   UNK N   1      24.553  11.174   5.755  0.00  0.00     0.036 C 
HETATM   27  C   UNK N   1      23.438  10.145   5.861  0.00  0.00     0.010 C 
ENDBRANCH   1  26
BRANCH   1  28
HETATM   28  C   UNK N   1      23.811  12.815   3.894  0.00  0.00    -0.007 A 
HETATM   29  C   UNK N   1      24.901  13.281   3.129  0.00  0.00     0.017 A 
HETATM   30  C   UNK N   1      24.816  13.501   1.758  0.00  0.00     0.043 A 
HETATM   31  C   UNK N   1      23.614  13.291   1.101  0.00  0.00     0.118 A 
HETATM   32  C   UNK N   1      22.492  12.898   1.824  0.00  0.00     0.066 A 
HETATM   33  F   UNK N   1      23.536  13.467  -0.241  0.00  0.00    -0.206 F 
HETATM   34  C   UNK N   1      22.561  12.669   3.207  0.00  0.00     0.047 A 
HETATM   35 Cl   UNK N   1      21.064  12.148   3.960  0.00  0.00    -0.083 Cl
ENDBRANCH   1  28
TORSDOF 7
ENDMDL
MODEL 6
REMARK VINA RESULT:      -7.4     12.652     17.428
REMARK  7 active torsions:
REMARK  status: ('A' for Active; 'I' for Inactive)
REMARK    1  A    between atoms: C_2  and  C_3 
REMARK    2  A    between atoms: C_3  and  C_26 
REMARK    3  A    between atoms: C_4  and  C_5 
REMARK    4  A    between atoms: C_4  and  C_16 
REMARK    5  A    between atoms: C_8  and  C_11 
REMARK    6  A    between atoms: C_12  and  C_13 
REMARK    7  A    between atoms: C_13  and  O_15 
ROOT
HETATM    1  C   UNK N   1      29.878  15.707   4.786  0.00  0.00    -0.035 C 
HETATM    2  C   UNK N   1      30.154  16.593   5.837  0.00  0.00    -0.009 C 
ENDROOT
BRANCH   2   3
HETATM    3  C   UNK N   1      31.440  16.491   6.597  0.00  0.00    -0.025 A 
HETATM    4  C   UNK N   1      31.605  15.495   7.573  0.00  0.00     0.013 A 
HETATM    5  C   UNK N   1      32.742  15.482   8.383  0.00  0.00     0.012 A 
HETATM    6  C   UNK N   1      33.726  16.460   8.219  0.00  0.00    -0.036 A 
HETATM    7  C   UNK N   1      33.601  17.409   7.195  0.00  0.00     0.012 A 
HETATM    8  C   UNK N   1      32.475  17.412   6.376  0.00  0.00     0.013 A 
BRANCH   6   9
HETATM    9  C   UNK N   1      34.806  16.563   9.209  0.00  0.00     0.018 C 
HETATM   10  C   UNK N   1      34.865  15.707  10.232  0.00  0.00     0.082 C 
BRANCH  10  11
HETATM   11  C   UNK N   1      35.965  15.723  11.200  0.00  0.00     0.165 C 
HETATM   12  O   UNK N   1      35.761  15.361  12.347  0.00  0.00    -0.647 OA
BRANCH  11  13
HETATM   13  O   UNK N   1      37.203  16.100  10.828  0.00  0.00    -0.773 OA
HETATM   14  H   UNK N   1      37.555  16.170   9.962  0.00  0.00     0.167 HD
ENDBRANCH  11  13
ENDBRANCH  10  11
ENDBRANCH   6   9
ENDBRANCH   2   3
BRANCH   2  15
HETATM   15  C   UNK N   1      29.206  17.685   6.312  0.00  0.00    -0.024 A 
HETATM   16  C   UNK N   1      28.837  17.871   7.675  0.00  0.00     0.014 A 
HETATM   17  C   UNK N   1      27.963  18.907   8.065  0.00  0.00     0.033 A 
HETATM   18  C   UNK N   1      27.470  19.742   7.067  0.00  0.00     0.059 A 
HETATM   19  C   UNK N   1      27.807  19.577   5.766  0.00  0.00     0.010 A 
HETATM   20  N   UNK N   1      26.637  20.781   7.191  0.00  0.00    -0.300 N 
HETATM   21  C   UNK N   1      28.663  18.575   5.348  0.00  0.00     0.027 A 
HETATM   22  C   UNK N   1      27.145  20.562   5.069  0.00  0.00     0.120 A 
HETATM   23  N   UNK N   1      26.436  21.283   5.971  0.00  0.00    -0.311 N 
ATOM     24  HN  UNK N   1      25.843  22.084   5.751  1.00  0.00     0.186 HD
HETATM   25  H   UNK N   1      26.242  21.115   8.029  0.00  0.00     0.187 HD
ENDBRANCH   2  15
BRANCH   1  26
HETATM   26  C   UNK N   1      28.538  15.746   4.101  0.00  0.00     0.036 C 
HETATM   27  C   UNK N   1      28.694  15.929   2.598  0.00  0.00     0.010 C 
ENDBRANCH   1  26
BRANCH   1  28
HETATM   28  C   UNK N   1      30.907  14.707   4.235  0.00  0.00    -0.007 A 
HETATM   29  C   UNK N   1      30.816  13.348   4.606  0.00  0.00     0.017 A 
HETATM   30  C   UNK N   1      31.670  12.373   4.100  0.00  0.00     0.043 A 
HETATM   31  C   UNK N   1      32.678  12.732   3.219  0.00  0.00     0.118 A 
HETATM   32  C   UNK N   1      32.851  14.070   2.876  0.00  0.00     0.066 A 
HETATM   33  F   UNK N   1      33.489  11.781   2.693  0.00  0.00    -0.206 F 
HETATM   34  C   UNK N   1      31.997  15.065   3.376  0.00  0.00     0.047 A 
HETATM   35 Cl   UNK N   1      32.335  16.695   2.820  0.00  0.00    -0.083 Cl
ENDBRANCH   1  28
TORSDOF 7
ENDMDL
MODEL 7
REMARK VINA RESULT:      -7.3     13.503     17.196
REMARK  7 active torsions:
REMARK  status: ('A' for Active; 'I' for Inactive)
REMARK    1  A    between atoms: C_2  and  C_3 
REMARK    2  A    between atoms: C_3  and  C_26 
REMARK    3  A    between atoms: C_4  and  C_5 
REMARK    4  A    between atoms: C_4  and  C_16 
REMARK    5  A    between atoms: C_8  and  C_11 
REMARK    6  A    between atoms: C_12  and  C_13 
REMARK    7  A    between atoms: C_13  and  O_15 
ROOT
HETATM    1  C   UNK N   1      30.844  16.752   8.252  0.00  0.00    -0.035 C 
HETATM    2  C   UNK N   1      30.454  16.691   6.907  0.00  0.00    -0.009 C 
ENDROOT
BRANCH   2   3
HETATM    3  C   UNK N   1      31.439  16.301   5.850  0.00  0.00    -0.025 A 
HETATM    4  C   UNK N   1      32.142  17.289   5.142  0.00  0.00     0.013 A 
HETATM    5  C   UNK N   1      32.953  16.939   4.059  0.00  0.00     0.012 A 
HETATM    6  C   UNK N   1      33.071  15.600   3.681  0.00  0.00    -0.036 A 
HETATM    7  C   UNK N   1      32.433  14.605   4.433  0.00  0.00     0.012 A 
HETATM    8  C   UNK N   1      31.638  14.951   5.522  0.00  0.00     0.013 A 
BRANCH   6   9
HETATM    9  C   UNK N   1      33.751  15.269   2.422  0.00  0.00     0.018 C 
HETATM   10  C   UNK N   1      34.587  14.229   2.363  0.00  0.00     0.082 C 
BRANCH  10  11
HETATM   11  C   UNK N   1      35.228  13.815   1.112  0.00  0.00     0.165 C 
HETATM   12  O   UNK N   1      34.535  13.505   0.157  0.00  0.00    -0.647 OA
BRANCH  11  13
HETATM   13  O   UNK N   1      36.570  13.803   0.996  0.00  0.00    -0.773 OA
HETATM   14  H   UNK N   1      37.115  13.151   0.602  0.00  0.00     0.167 HD
ENDBRANCH  11  13
ENDBRANCH  10  11
ENDBRANCH   6   9
ENDBRANCH   2   3
BRANCH   2  15
HETATM   15  C   UNK N   1      29.058  17.027   6.401  0.00  0.00    -0.024 A 
HETATM   16  C   UNK N   1      28.044  16.053   6.182  0.00  0.00     0.014 A 
HETATM   17  C   UNK N   1      26.761  16.418   5.722  0.00  0.00     0.033 A 
HETATM   18  C   UNK N   1      26.523  17.769   5.488  0.00  0.00     0.059 A 
HETATM   19  C   UNK N   1      27.477  18.708   5.687  0.00  0.00     0.010 A 
HETATM   20  N   UNK N   1      25.399  18.350   5.054  0.00  0.00    -0.300 N 
HETATM   21  C   UNK N   1      28.744  18.386   6.138  0.00  0.00     0.027 A 
HETATM   22  C   UNK N   1      26.904  19.914   5.357  0.00  0.00     0.120 A 
HETATM   23  N   UNK N   1      25.630  19.661   4.974  0.00  0.00    -0.311 N 
ATOM     24  HN  UNK N   1      24.954  20.363   4.671  1.00  0.00     0.186 HD
HETATM   25  H   UNK N   1      24.554  17.893   4.835  0.00  0.00     0.187 HD
ENDBRANCH   2  15
BRANCH   1  26
HETATM   26  C   UNK N   1      29.879  17.251   9.294  0.00  0.00     0.036 C 
HETATM   27  C   UNK N   1      30.030  18.749   9.513  0.00  0.00     0.010 C 
ENDBRANCH   1  26
BRANCH   1  28
HETATM   28  C   UNK N   1      32.216  16.274   8.755  0.00  0.00    -0.007 A 
HETATM   29  C   UNK N   1      32.336  14.981   9.307  0.00  0.00     0.017 A 
HETATM   30  C   UNK N   1      33.554  14.453   9.725  0.00  0.00     0.043 A 
HETATM   31  C   UNK N   1      34.704  15.221   9.634  0.00  0.00     0.118 A 
HETATM   32  C   UNK N   1      34.625  16.528   9.160  0.00  0.00     0.066 A 
HETATM   33  F   UNK N   1      35.899  14.699  10.005  0.00  0.00    -0.206 F 
HETATM   34  C   UNK N   1      33.406  17.074   8.733  0.00  0.00     0.047 A 
HETATM   35 Cl   UNK N   1      33.487  18.723   8.135  0.00  0.00    -0.083 Cl
ENDBRANCH   1  28
TORSDOF 7
ENDMDL
MODEL 8
REMARK VINA RESULT:      -7.2     13.999     17.399
REMARK  7 active torsions:
REMARK  status: ('A' for Active; 'I' for Inactive)
REMARK    1  A    between atoms: C_2  and  C_3 
REMARK    2  A    between atoms: C_3  and  C_26 
REMARK    3  A    between atoms: C_4  and  C_5 
REMARK    4  A    between atoms: C_4  and  C_16 
REMARK    5  A    between atoms: C_8  and  C_11 
REMARK    6  A    between atoms: C_12  and  C_13 
REMARK    7  A    between atoms: C_13  and  O_15 
ROOT
HETATM    1  C   UNK N   1      30.809  16.715   7.869  0.00  0.00    -0.035 C 
HETATM    2  C   UNK N   1      30.306  16.782   6.561  0.00  0.00    -0.009 C 
ENDROOT
BRANCH   2   3
HETATM    3  C   UNK N   1      31.167  16.398   5.399  0.00  0.00    -0.025 A 
HETATM    4  C   UNK N   1      31.168  15.075   4.929  0.00  0.00     0.013 A 
HETATM    5  C   UNK N   1      32.072  14.677   3.941  0.00  0.00     0.012 A 
HETATM    6  C   UNK N   1      32.975  15.601   3.410  0.00  0.00    -0.036 A 
HETATM    7  C   UNK N   1      32.923  16.940   3.821  0.00  0.00     0.012 A 
HETATM    8  C   UNK N   1      32.012  17.340   4.794  0.00  0.00     0.013 A 
BRANCH   6   9
HETATM    9  C   UNK N   1      34.053  15.127   2.533  0.00  0.00     0.018 C 
HETATM   10  C   UNK N   1      34.056  13.866   2.092  0.00  0.00     0.082 C 
BRANCH  10  11
HETATM   11  C   UNK N   1      35.068  13.370   1.155  0.00  0.00     0.165 C 
HETATM   12  O   UNK N   1      35.186  13.901   0.063  0.00  0.00    -0.647 OA
BRANCH  11  13
HETATM   13  O   UNK N   1      35.887  12.359   1.499  0.00  0.00    -0.773 OA
HETATM   14  H   UNK N   1      36.470  12.305   2.230  0.00  0.00     0.167 HD
ENDBRANCH  11  13
ENDBRANCH  10  11
ENDBRANCH   6   9
ENDBRANCH   2   3
BRANCH   2  15
HETATM   15  C   UNK N   1      28.905  17.257   6.202  0.00  0.00    -0.024 A 
HETATM   16  C   UNK N   1      28.593  18.603   5.859  0.00  0.00     0.014 A 
HETATM   17  C   UNK N   1      27.279  18.990   5.522  0.00  0.00     0.033 A 
HETATM   18  C   UNK N   1      26.295  18.006   5.540  0.00  0.00     0.059 A 
HETATM   19  C   UNK N   1      26.573  16.723   5.868  0.00  0.00     0.010 A 
HETATM   20  N   UNK N   1      24.993  18.131   5.262  0.00  0.00    -0.300 N 
HETATM   21  C   UNK N   1      27.850  16.308   6.201  0.00  0.00     0.027 A 
HETATM   22  C   UNK N   1      25.383  16.038   5.786  0.00  0.00     0.120 A 
HETATM   23  N   UNK N   1      24.433  16.929   5.412  0.00  0.00    -0.311 N 
ATOM     24  HN  UNK N   1      23.446  16.714   5.267  1.00  0.00     0.186 HD
HETATM   25  H   UNK N   1      24.530  18.959   4.995  0.00  0.00     0.187 HD
ENDBRANCH   2  15
BRANCH   1  26
HETATM   26  C   UNK N   1      29.975  17.206   9.022  0.00  0.00     0.036 C 
HETATM   27  C   UNK N   1      30.181  18.695   9.256  0.00  0.00     0.010 C 
ENDBRANCH   1  26
BRANCH   1  28
HETATM   28  C   UNK N   1      32.175  16.100   8.216  0.00  0.00    -0.007 A 
HETATM   29  C   UNK N   1      32.253  14.725   8.525  0.00  0.00     0.017 A 
HETATM   30  C   UNK N   1      33.460  14.084   8.789  0.00  0.00     0.043 A 
HETATM   31  C   UNK N   1      34.640  14.809   8.783  0.00  0.00     0.118 A 
HETATM   32  C   UNK N   1      34.606  16.182   8.552  0.00  0.00     0.066 A 
HETATM   33  F   UNK N   1      35.822  14.182   9.001  0.00  0.00    -0.206 F 
HETATM   34  C   UNK N   1      33.398  16.844   8.283  0.00  0.00     0.047 A 
HETATM   35 Cl   UNK N   1      33.535  18.568   7.982  0.00  0.00    -0.083 Cl
ENDBRANCH   1  28
TORSDOF 7
ENDMDL
MODEL 9
REMARK VINA RESULT:      -7.1      6.131     10.259
REMARK  7 active torsions:
REMARK  status: ('A' for Active; 'I' for Inactive)
REMARK    1  A    between atoms: C_2  and  C_3 
REMARK    2  A    between atoms: C_3  and  C_26 
REMARK    3  A    between atoms: C_4  and  C_5 
REMARK    4  A    between atoms: C_4  and  C_16 
REMARK    5  A    between atoms: C_8  and  C_11 
REMARK    6  A    between atoms: C_12  and  C_13 
REMARK    7  A    between atoms: C_13  and  O_15 
ROOT
HETATM    1  C   UNK N   1      36.396  11.730  11.949  0.00  0.00    -0.035 C 
HETATM    2  C   UNK N   1      35.828  12.879  12.517  0.00  0.00    -0.009 C 
ENDROOT
BRANCH   2   3
HETATM    3  C   UNK N   1      35.551  12.940  13.986  0.00  0.00    -0.025 A 
HETATM    4  C   UNK N   1      36.321  13.772  14.815  0.00  0.00     0.013 A 
HETATM    5  C   UNK N   1      36.164  13.727  16.202  0.00  0.00     0.012 A 
HETATM    6  C   UNK N   1      35.232  12.855  16.770  0.00  0.00    -0.036 A 
HETATM    7  C   UNK N   1      34.408  12.080  15.942  0.00  0.00     0.012 A 
HETATM    8  C   UNK N   1      34.553  12.137  14.559  0.00  0.00     0.013 A 
BRANCH   6   9
HETATM    9  C   UNK N   1      35.225  12.663  18.226  0.00  0.00     0.018 C 
HETATM   10  C   UNK N   1      35.386  11.443  18.745  0.00  0.00     0.082 C 
BRANCH  10  11
HETATM   11  C   UNK N   1      35.462  11.214  20.190  0.00  0.00     0.165 C 
HETATM   12  O   UNK N   1      36.531  10.915  20.694  0.00  0.00    -0.647 OA
BRANCH  11  13
HETATM   13  O   UNK N   1      34.373  11.363  20.969  0.00  0.00    -0.773 OA
HETATM   14  H   UNK N   1      33.523  10.985  20.859  0.00  0.00     0.167 HD
ENDBRANCH  11  13
ENDBRANCH  10  11
ENDBRANCH   6   9
ENDBRANCH   2   3
BRANCH   2  15
HETATM   15  C   UNK N   1      35.427  14.119  11.729  0.00  0.00    -0.024 A 
HETATM   16  C   UNK N   1      36.185  15.323  11.716  0.00  0.00     0.014 A 
HETATM   17  C   UNK N   1      35.776  16.441  10.960  0.00  0.00     0.033 A 
HETATM   18  C   UNK N   1      34.599  16.325  10.226  0.00  0.00     0.059 A 
HETATM   19  C   UNK N   1      33.864  15.188  10.231  0.00  0.00     0.010 A 
HETATM   20  N   UNK N   1      34.016  17.239   9.443  0.00  0.00    -0.300 N 
HETATM   21  C   UNK N   1      34.236  14.073  10.958  0.00  0.00     0.027 A 
HETATM   22  C   UNK N   1      32.784  15.425   9.412  0.00  0.00     0.120 A 
HETATM   23  N   UNK N   1      32.906  16.691   8.945  0.00  0.00    -0.311 N 
ATOM     24  HN  UNK N   1      32.252  17.152   8.311  1.00  0.00     0.186 HD
HETATM   25  H   UNK N   1      34.345  18.150   9.266  0.00  0.00     0.187 HD
ENDBRANCH   2  15
BRANCH   1  26
HETATM   26  C   UNK N   1      36.570  11.634  10.456  0.00  0.00     0.036 C 
HETATM   27  C   UNK N   1      37.970  12.059  10.037  0.00  0.00     0.010 C 
ENDBRANCH   1  26
BRANCH   1  28
HETATM   28  C   UNK N   1      36.921  10.549  12.782  0.00  0.00    -0.007 A 
HETATM   29  C   UNK N   1      38.118  10.700  13.514  0.00  0.00     0.017 A 
HETATM   30  C   UNK N   1      38.623   9.700  14.340  0.00  0.00     0.043 A 
HETATM   31  C   UNK N   1      37.958   8.488  14.439  0.00  0.00     0.118 A 
HETATM   32  C   UNK N   1      36.811   8.267  13.682  0.00  0.00     0.066 A 
HETATM   33  F   UNK N   1      38.425   7.525  15.271  0.00  0.00    -0.206 F 
HETATM   34  C   UNK N   1      36.287   9.265  12.847  0.00  0.00     0.047 A 
HETATM   35 Cl   UNK N   1      34.818   8.833  11.988  0.00  0.00    -0.083 Cl
ENDBRANCH   1  28
TORSDOF 7
ENDMDL
