MODEL 1
REMARK VINA RESULT:      -7.1      0.000      0.000
REMARK  6 active torsions:
REMARK  status: ('A' for Active; 'I' for Inactive)
REMARK    1  A    between atoms: C_7  and  C_10 
REMARK    2  A    between atoms: C_10  and  C_11 
REMARK    3  A    between atoms: C_11  and  N_12 
REMARK    4  A    between atoms: N_12  and  C_13 
REMARK    5  A    between atoms: C_16  and  N_19 
REMARK    6  A    between atoms: N_19  and  C_20 
ROOT
HETATM    1  C   UNK N   1      30.904  17.306   8.324  0.00  0.00     0.028 A 
HETATM    2  C   UNK N   1      30.270  18.266   9.122  0.00  0.00     0.031 A 
HETATM    3  C   UNK N   1      29.081  18.872   8.683  0.00  0.00     0.031 A 
HETATM    4  C   UNK N   1      28.514  18.510   7.451  0.00  0.00     0.032 A 
HETATM    5  C   UNK N   1      29.154  17.543   6.670  0.00  0.00     0.031 A 
HETATM    6  C   UNK N   1      30.335  16.954   7.098  0.00  0.00     0.031 A 
ENDROOT
BRANCH   1   7
HETATM    7  N   UNK N   1      32.118  16.705   8.746  0.00  0.00    -0.390 N 
HETATM    8  H   UNK N   1      32.146  15.736   8.916  0.00  0.00     0.159 HD
BRANCH   7   9
HETATM    9  C   UNK N   1      33.313  17.498   8.930  0.00  0.00     0.124 C 
BRANCH   9  10
HETATM   10  C   UNK N   1      33.819  18.031   7.600  0.00  0.00     0.060 C 
BRANCH  10  11
HETATM   11  C   UNK N   1      34.098  16.900   6.659  0.00  0.00    -0.029 A 
HETATM   12  C   UNK N   1      33.640  16.754   5.369  0.00  0.00    -0.002 A 
HETATM   13  C   UNK N   1      34.136  15.570   4.907  0.00  0.00     0.042 A 
HETATM   14  C   UNK N   1      32.830  17.565   4.583  0.00  0.00     0.014 A 
HETATM   15  C   UNK N   1      33.861  15.109   3.620  0.00  0.00     0.030 A 
HETATM   16  N   UNK N   1      34.884  14.959   5.844  0.00  0.00    -0.365 N 
HETATM   17  C   UNK N   1      33.046  15.910   2.797  0.00  0.00     0.002 A 
HETATM   18  C   UNK N   1      32.532  17.135   3.277  0.00  0.00     0.001 A 
HETATM   19  C   UNK N   1      34.865  15.773   6.932  0.00  0.00     0.096 A 
HETATM   20  H   UNK N   1      35.352  14.097   5.758  0.00  0.00     0.165 HD
ENDBRANCH  10  11
ENDBRANCH   9  10
ENDBRANCH   7   9
ENDBRANCH   1   7
BRANCH   4  21
HETATM   21  N   UNK N   1      27.316  19.147   7.013  0.00  0.00    -0.356 N 
HETATM   22  H   UNK N   1      26.766  19.583   7.703  0.00  0.00     0.166 HD
BRANCH  21  23
HETATM   23  C   UNK N   1      26.835  19.216   5.668  0.00  0.00     0.035 A 
HETATM   24  C   UNK N   1      27.210  20.297   4.868  0.00  0.00     0.046 A 
HETATM   25  C   UNK N   1      26.747  20.381   3.552  0.00  0.00     0.090 A 
HETATM   26  N   UNK N   1      25.932  19.415   3.050  0.00  0.00    -0.375 N 
HETATM   27  C   UNK N   1      25.546  18.352   3.806  0.00  0.00     0.090 A 
ATOM     28  HN  UNK N   1      25.601  19.489   2.088  1.00  0.00     0.164 HD
HETATM   29  C   UNK N   1      25.991  18.236   5.123  0.00  0.00     0.046 A 
ENDBRANCH  21  23
ENDBRANCH   4  21
TORSDOF 6
ENDMDL
MODEL 2
REMARK VINA RESULT:      -7.0      1.749      3.027
REMARK  6 active torsions:
REMARK  status: ('A' for Active; 'I' for Inactive)
REMARK    1  A    between atoms: C_7  and  C_10 
REMARK    2  A    between atoms: C_10  and  C_11 
REMARK    3  A    between atoms: C_11  and  N_12 
REMARK    4  A    between atoms: N_12  and  C_13 
REMARK    5  A    between atoms: C_16  and  N_19 
REMARK    6  A    between atoms: N_19  and  C_20 
ROOT
HETATM    1  C   UNK N   1      28.078  18.594   7.892  0.00  0.00     0.028 A 
HETATM    2  C   UNK N   1      27.682  17.390   7.296  0.00  0.00     0.031 A 
HETATM    3  C   UNK N   1      27.087  17.398   6.024  0.00  0.00     0.031 A 
HETATM    4  C   UNK N   1      26.897  18.608   5.337  0.00  0.00     0.032 A 
HETATM    5  C   UNK N   1      27.307  19.800   5.942  0.00  0.00     0.031 A 
HETATM    6  C   UNK N   1      27.884  19.793   7.203  0.00  0.00     0.031 A 
ENDROOT
BRANCH   1   7
HETATM    7  N   UNK N   1      28.659  18.601   9.186  0.00  0.00    -0.390 N 
HETATM    8  H   UNK N   1      28.077  18.629   9.979  0.00  0.00     0.159 HD
BRANCH   7   9
HETATM    9  C   UNK N   1      30.095  18.567   9.355  0.00  0.00     0.124 C 
BRANCH   9  10
HETATM   10  C   UNK N   1      30.655  17.211   8.958  0.00  0.00     0.060 C 
BRANCH  10  11
HETATM   11  C   UNK N   1      31.827  17.382   8.041  0.00  0.00    -0.029 A 
HETATM   12  C   UNK N   1      31.824  17.342   6.665  0.00  0.00    -0.002 A 
HETATM   13  C   UNK N   1      33.114  17.533   6.264  0.00  0.00     0.042 A 
HETATM   14  C   UNK N   1      30.794  17.150   5.752  0.00  0.00     0.014 A 
HETATM   15  C   UNK N   1      33.470  17.550   4.916  0.00  0.00     0.030 A 
HETATM   16  N   UNK N   1      33.933  17.690   7.319  0.00  0.00    -0.365 N 
HETATM   17  C   UNK N   1      32.448  17.361   3.965  0.00  0.00     0.002 A 
HETATM   18  C   UNK N   1      31.114  17.162   4.382  0.00  0.00     0.001 A 
HETATM   19  C   UNK N   1      33.146  17.596   8.424  0.00  0.00     0.096 A 
HETATM   20  H   UNK N   1      34.906  17.843   7.297  0.00  0.00     0.165 HD
ENDBRANCH  10  11
ENDBRANCH   9  10
ENDBRANCH   7   9
ENDBRANCH   1   7
BRANCH   4  21
HETATM   21  N   UNK N   1      26.275  18.599   4.054  0.00  0.00    -0.356 N 
HETATM   22  H   UNK N   1      26.817  18.275   3.299  0.00  0.00     0.166 HD
BRANCH  21  23
HETATM   23  C   UNK N   1      24.939  19.015   3.756  0.00  0.00     0.035 A 
HETATM   24  C   UNK N   1      24.740  20.214   3.068  0.00  0.00     0.046 A 
HETATM   25  C   UNK N   1      23.441  20.636   2.770  0.00  0.00     0.090 A 
HETATM   26  N   UNK N   1      22.373  19.884   3.150  0.00  0.00    -0.375 N 
HETATM   27  C   UNK N   1      22.535  18.715   3.823  0.00  0.00     0.090 A 
ATOM     28  HN  UNK N   1      21.431  20.205   2.926  1.00  0.00     0.164 HD
HETATM   29  C   UNK N   1      23.818  18.262   4.136  0.00  0.00     0.046 A 
ENDBRANCH  21  23
ENDBRANCH   4  21
TORSDOF 6
ENDMDL
MODEL 3
REMARK VINA RESULT:      -7.0      6.270      9.390
REMARK  6 active torsions:
REMARK  status: ('A' for Active; 'I' for Inactive)
REMARK    1  A    between atoms: C_7  and  C_10 
REMARK    2  A    between atoms: C_10  and  C_11 
REMARK    3  A    between atoms: C_11  and  N_12 
REMARK    4  A    between atoms: N_12  and  C_13 
REMARK    5  A    between atoms: C_16  and  N_19 
REMARK    6  A    between atoms: N_19  and  C_20 
ROOT
HETATM    1  C   UNK N   1      36.286  14.366  11.062  0.00  0.00     0.028 A 
HETATM    2  C   UNK N   1      35.961  15.540  11.752  0.00  0.00     0.031 A 
HETATM    3  C   UNK N   1      35.321  16.595  11.081  0.00  0.00     0.031 A 
HETATM    4  C   UNK N   1      34.990  16.474   9.721  0.00  0.00     0.032 A 
HETATM    5  C   UNK N   1      35.313  15.291   9.050  0.00  0.00     0.031 A 
HETATM    6  C   UNK N   1      35.956  14.254   9.710  0.00  0.00     0.031 A 
ENDROOT
BRANCH   1   7
HETATM    7  N   UNK N   1      36.953  13.303  11.723  0.00  0.00    -0.390 N 
HETATM    8  H   UNK N   1      37.915  13.161  11.566  0.00  0.00     0.159 HD
BRANCH   7   9
HETATM    9  C   UNK N   1      36.240  12.425  12.624  0.00  0.00     0.124 C 
BRANCH   9  10
HETATM   10  C   UNK N   1      37.090  12.088  13.837  0.00  0.00     0.060 C 
BRANCH  10  11
HETATM   11  C   UNK N   1      36.358  12.436  15.098  0.00  0.00    -0.029 A 
HETATM   12  C   UNK N   1      36.482  13.584  15.846  0.00  0.00    -0.002 A 
HETATM   13  C   UNK N   1      35.635  13.455  16.907  0.00  0.00     0.042 A 
HETATM   14  C   UNK N   1      37.273  14.714  15.673  0.00  0.00     0.014 A 
HETATM   15  C   UNK N   1      35.512  14.451  17.875  0.00  0.00     0.030 A 
HETATM   16  N   UNK N   1      34.982  12.280  16.867  0.00  0.00    -0.365 N 
HETATM   17  C   UNK N   1      36.297  15.611  17.726  0.00  0.00     0.002 A 
HETATM   18  C   UNK N   1      37.175  15.742  16.628  0.00  0.00     0.001 A 
HETATM   19  C   UNK N   1      35.424  11.640  15.751  0.00  0.00     0.096 A 
HETATM   20  H   UNK N   1      34.317  11.949  17.514  0.00  0.00     0.165 HD
ENDBRANCH  10  11
ENDBRANCH   9  10
ENDBRANCH   7   9
ENDBRANCH   1   7
BRANCH   4  21
HETATM   21  N   UNK N   1      34.356  17.562   9.052  0.00  0.00    -0.356 N 
HETATM   22  H   UNK N   1      34.600  18.469   9.347  0.00  0.00     0.166 HD
BRANCH  21  23
HETATM   23  C   UNK N   1      33.400  17.465   7.993  0.00  0.00     0.035 A 
HETATM   24  C   UNK N   1      33.844  17.531   6.670  0.00  0.00     0.046 A 
HETATM   25  C   UNK N   1      32.922  17.439   5.623  0.00  0.00     0.090 A 
HETATM   26  N   UNK N   1      31.597  17.288   5.889  0.00  0.00    -0.375 N 
HETATM   27  C   UNK N   1      31.135  17.224   7.165  0.00  0.00     0.090 A 
ATOM     28  HN  UNK N   1      30.936  17.223   5.114  1.00  0.00     0.164 HD
HETATM   29  C   UNK N   1      32.026  17.310   8.235  0.00  0.00     0.046 A 
ENDBRANCH  21  23
ENDBRANCH   4  21
TORSDOF 6
ENDMDL
MODEL 4
REMARK VINA RESULT:      -6.9      2.835      8.257
REMARK  6 active torsions:
REMARK  status: ('A' for Active; 'I' for Inactive)
REMARK    1  A    between atoms: C_7  and  C_10 
REMARK    2  A    between atoms: C_10  and  C_11 
REMARK    3  A    between atoms: C_11  and  N_12 
REMARK    4  A    between atoms: N_12  and  C_13 
REMARK    5  A    between atoms: C_16  and  N_19 
REMARK    6  A    between atoms: N_19  and  C_20 
ROOT
HETATM    1  C   UNK N   1      32.666  15.785   6.136  0.00  0.00     0.028 A 
HETATM    2  C   UNK N   1      33.614  16.799   6.319  0.00  0.00     0.031 A 
HETATM    3  C   UNK N   1      34.196  16.998   7.582  0.00  0.00     0.031 A 
HETATM    4  C   UNK N   1      33.842  16.176   8.663  0.00  0.00     0.032 A 
HETATM    5  C   UNK N   1      32.901  15.162   8.462  0.00  0.00     0.031 A 
HETATM    6  C   UNK N   1      32.318  14.973   7.217  0.00  0.00     0.031 A 
ENDROOT
BRANCH   1   7
HETATM    7  N   UNK N   1      32.054  15.589   4.871  0.00  0.00    -0.390 N 
HETATM    8  H   UNK N   1      32.616  15.524   4.065  0.00  0.00     0.159 HD
BRANCH   7   9
HETATM    9  C   UNK N   1      30.617  15.485   4.751  0.00  0.00     0.124 C 
BRANCH   9  10
HETATM   10  C   UNK N   1      29.969  16.858   4.803  0.00  0.00     0.060 C 
BRANCH  10  11
HETATM   11  C   UNK N   1      29.045  16.952   5.979  0.00  0.00    -0.029 A 
HETATM   12  C   UNK N   1      29.330  17.460   7.227  0.00  0.00    -0.002 A 
HETATM   13  C   UNK N   1      28.196  17.328   7.973  0.00  0.00     0.042 A 
HETATM   14  C   UNK N   1      30.492  18.016   7.750  0.00  0.00     0.014 A 
HETATM   15  C   UNK N   1      28.138  17.746   9.302  0.00  0.00     0.030 A 
HETATM   16  N   UNK N   1      27.209  16.759   7.259  0.00  0.00    -0.365 N 
HETATM   17  C   UNK N   1      29.297  18.318   9.861  0.00  0.00     0.002 A 
HETATM   18  C   UNK N   1      30.471  18.452   9.088  0.00  0.00     0.001 A 
HETATM   19  C   UNK N   1      27.724  16.521   6.024  0.00  0.00     0.096 A 
HETATM   20  H   UNK N   1      26.295  16.557   7.568  0.00  0.00     0.165 HD
ENDBRANCH  10  11
ENDBRANCH   9  10
ENDBRANCH   7   9
ENDBRANCH   1   7
BRANCH   4  21
HETATM   21  N   UNK N   1      34.430  16.403   9.942  0.00  0.00    -0.356 N 
HETATM   22  H   UNK N   1      34.185  17.239  10.402  0.00  0.00     0.166 HD
BRANCH  21  23
HETATM   23  C   UNK N   1      35.342  15.537  10.624  0.00  0.00     0.035 A 
HETATM   24  C   UNK N   1      36.320  14.868   9.886  0.00  0.00     0.046 A 
HETATM   25  C   UNK N   1      37.218  14.015  10.536  0.00  0.00     0.090 A 
HETATM   26  N   UNK N   1      37.139  13.836  11.882  0.00  0.00    -0.375 N 
HETATM   27  C   UNK N   1      36.196  14.471  12.626  0.00  0.00     0.090 A 
ATOM     28  HN  UNK N   1      37.801  13.211  12.342  1.00  0.00     0.164 HD
HETATM   29  C   UNK N   1      35.284  15.330  12.010  0.00  0.00     0.046 A 
ENDBRANCH  21  23
ENDBRANCH   4  21
TORSDOF 6
ENDMDL
MODEL 5
REMARK VINA RESULT:      -6.8      5.218      7.501
REMARK  6 active torsions:
REMARK  status: ('A' for Active; 'I' for Inactive)
REMARK    1  A    between atoms: C_7  and  C_10 
REMARK    2  A    between atoms: C_10  and  C_11 
REMARK    3  A    between atoms: C_11  and  N_12 
REMARK    4  A    between atoms: N_12  and  C_13 
REMARK    5  A    between atoms: C_16  and  N_19 
REMARK    6  A    between atoms: N_19  and  C_20 
ROOT
HETATM    1  C   UNK N   1      34.626  16.111   9.745  0.00  0.00     0.028 A 
HETATM    2  C   UNK N   1      34.366  17.290   9.035  0.00  0.00     0.031 A 
HETATM    3  C   UNK N   1      33.187  17.411   8.281  0.00  0.00     0.031 A 
HETATM    4  C   UNK N   1      32.257  16.359   8.245  0.00  0.00     0.032 A 
HETATM    5  C   UNK N   1      32.528  15.193   8.968  0.00  0.00     0.031 A 
HETATM    6  C   UNK N   1      33.698  15.069   9.702  0.00  0.00     0.031 A 
ENDROOT
BRANCH   1   7
HETATM    7  N   UNK N   1      35.824  15.969  10.491  0.00  0.00    -0.390 N 
HETATM    8  H   UNK N   1      36.690  16.146  10.057  0.00  0.00     0.159 HD
BRANCH   7   9
HETATM    9  C   UNK N   1      35.790  15.566  11.880  0.00  0.00     0.124 C 
BRANCH   9  10
HETATM   10  C   UNK N   1      36.392  14.182  12.056  0.00  0.00     0.060 C 
BRANCH  10  11
HETATM   11  C   UNK N   1      36.109  13.665  13.434  0.00  0.00    -0.029 A 
HETATM   12  C   UNK N   1      35.345  12.572  13.775  0.00  0.00    -0.002 A 
HETATM   13  C   UNK N   1      35.359  12.492  15.137  0.00  0.00     0.042 A 
HETATM   14  C   UNK N   1      34.644  11.659  12.994  0.00  0.00     0.014 A 
HETATM   15  C   UNK N   1      34.675  11.488  15.821  0.00  0.00     0.030 A 
HETATM   16  N   UNK N   1      36.094  13.482  15.673  0.00  0.00    -0.365 N 
HETATM   17  C   UNK N   1      33.958  10.545  15.059  0.00  0.00     0.002 A 
HETATM   18  C   UNK N   1      33.943  10.630  13.649  0.00  0.00     0.001 A 
HETATM   19  C   UNK N   1      36.561  14.215  14.627  0.00  0.00     0.096 A 
HETATM   20  H   UNK N   1      36.260  13.644  16.630  0.00  0.00     0.165 HD
ENDBRANCH  10  11
ENDBRANCH   9  10
ENDBRANCH   7   9
ENDBRANCH   1   7
BRANCH   4  21
HETATM   21  N   UNK N   1      31.074  16.492   7.461  0.00  0.00    -0.356 N 
HETATM   22  H   UNK N   1      31.042  15.989   6.615  0.00  0.00     0.166 HD
BRANCH  21  23
HETATM   23  C   UNK N   1      29.928  17.285   7.782  0.00  0.00     0.035 A 
HETATM   24  C   UNK N   1      29.565  17.441   9.122  0.00  0.00     0.046 A 
HETATM   25  C   UNK N   1      28.446  18.211   9.453  0.00  0.00     0.090 A 
HETATM   26  N   UNK N   1      27.711  18.807   8.475  0.00  0.00    -0.375 N 
HETATM   27  C   UNK N   1      28.038  18.670   7.163  0.00  0.00     0.090 A 
ATOM     28  HN  UNK N   1      26.898  19.365   8.732  1.00  0.00     0.164 HD
HETATM   29  C   UNK N   1      29.149  17.910   6.796  0.00  0.00     0.046 A 
ENDBRANCH  21  23
ENDBRANCH   4  21
TORSDOF 6
ENDMDL
MODEL 6
REMARK VINA RESULT:      -6.8     11.020     14.109
REMARK  6 active torsions:
REMARK  status: ('A' for Active; 'I' for Inactive)
REMARK    1  A    between atoms: C_7  and  C_10 
REMARK    2  A    between atoms: C_10  and  C_11 
REMARK    3  A    between atoms: C_11  and  N_12 
REMARK    4  A    between atoms: N_12  and  C_13 
REMARK    5  A    between atoms: C_16  and  N_19 
REMARK    6  A    between atoms: N_19  and  C_20 
ROOT
HETATM    1  C   UNK N   1      25.739  24.733  -5.285  0.00  0.00     0.028 A 
HETATM    2  C   UNK N   1      25.229  25.897  -5.873  0.00  0.00     0.031 A 
HETATM    3  C   UNK N   1      25.313  27.123  -5.193  0.00  0.00     0.031 A 
HETATM    4  C   UNK N   1      25.920  27.193  -3.928  0.00  0.00     0.032 A 
HETATM    5  C   UNK N   1      26.433  26.023  -3.360  0.00  0.00     0.031 A 
HETATM    6  C   UNK N   1      26.339  24.810  -4.026  0.00  0.00     0.031 A 
ENDROOT
BRANCH   1   7
HETATM    7  N   UNK N   1      25.639  23.485  -5.952  0.00  0.00    -0.390 N 
HETATM    8  H   UNK N   1      24.907  22.869  -5.722  0.00  0.00     0.159 HD
BRANCH   7   9
HETATM    9  C   UNK N   1      26.599  23.107  -6.965  0.00  0.00     0.124 C 
BRANCH   9  10
HETATM   10  C   UNK N   1      27.971  23.679  -6.652  0.00  0.00     0.060 C 
BRANCH  10  11
HETATM   11  C   UNK N   1      28.885  22.597  -6.161  0.00  0.00    -0.029 A 
HETATM   12  C   UNK N   1      29.584  22.568  -4.976  0.00  0.00    -0.002 A 
HETATM   13  C   UNK N   1      30.291  21.401  -4.965  0.00  0.00     0.042 A 
HETATM   14  C   UNK N   1      29.651  23.475  -3.925  0.00  0.00     0.014 A 
HETATM   15  C   UNK N   1      31.116  21.051  -3.897  0.00  0.00     0.030 A 
HETATM   16  N   UNK N   1      30.073  20.692  -6.087  0.00  0.00    -0.365 N 
HETATM   17  C   UNK N   1      31.202  21.947  -2.814  0.00  0.00     0.002 A 
HETATM   18  C   UNK N   1      30.472  23.155  -2.828  0.00  0.00     0.001 A 
HETATM   19  C   UNK N   1      29.206  21.424  -6.835  0.00  0.00     0.096 A 
HETATM   20  H   UNK N   1      30.463  19.817  -6.320  0.00  0.00     0.165 HD
ENDBRANCH  10  11
ENDBRANCH   9  10
ENDBRANCH   7   9
ENDBRANCH   1   7
BRANCH   4  21
HETATM   21  N   UNK N   1      25.981  28.443  -3.245  0.00  0.00    -0.356 N 
HETATM   22  H   UNK N   1      25.170  28.727  -2.763  0.00  0.00     0.166 HD
BRANCH  21  23
HETATM   23  C   UNK N   1      27.105  29.326  -3.190  0.00  0.00     0.035 A 
HETATM   24  C   UNK N   1      27.370  30.154  -4.282  0.00  0.00     0.046 A 
HETATM   25  C   UNK N   1      28.466  31.022  -4.246  0.00  0.00     0.090 A 
HETATM   26  N   UNK N   1      29.273  31.060  -3.151  0.00  0.00    -0.375 N 
HETATM   27  C   UNK N   1      29.042  30.263  -2.075  0.00  0.00     0.090 A 
ATOM     28  HN  UNK N   1      30.069  31.697  -3.139  1.00  0.00     0.164 HD
HETATM   29  C   UNK N   1      27.956  29.386  -2.076  0.00  0.00     0.046 A 
ENDBRANCH  21  23
ENDBRANCH   4  21
TORSDOF 6
ENDMDL
MODEL 7
REMARK VINA RESULT:      -6.8      2.863      5.343
REMARK  6 active torsions:
REMARK  status: ('A' for Active; 'I' for Inactive)
REMARK    1  A    between atoms: C_7  and  C_10 
REMARK    2  A    between atoms: C_10  and  C_11 
REMARK    3  A    between atoms: C_11  and  N_12 
REMARK    4  A    between atoms: N_12  and  C_13 
REMARK    5  A    between atoms: C_16  and  N_19 
REMARK    6  A    between atoms: N_19  and  C_20 
ROOT
HETATM    1  C   UNK N   1      26.957  18.064   3.917  0.00  0.00     0.028 A 
HETATM    2  C   UNK N   1      26.029  17.053   3.636  0.00  0.00     0.031 A 
HETATM    3  C   UNK N   1      24.659  17.278   3.847  0.00  0.00     0.031 A 
HETATM    4  C   UNK N   1      24.209  18.519   4.326  0.00  0.00     0.032 A 
HETATM    5  C   UNK N   1      25.148  19.521   4.593  0.00  0.00     0.031 A 
HETATM    6  C   UNK N   1      26.502  19.294   4.396  0.00  0.00     0.031 A 
ENDROOT
BRANCH   1   7
HETATM    7  N   UNK N   1      28.345  17.840   3.730  0.00  0.00    -0.390 N 
HETATM    8  H   UNK N   1      28.672  17.516   2.860  0.00  0.00     0.159 HD
BRANCH   7   9
HETATM    9  C   UNK N   1      29.286  18.081   4.802  0.00  0.00     0.124 C 
BRANCH   9  10
HETATM   10  C   UNK N   1      29.389  16.870   5.714  0.00  0.00     0.060 C 
BRANCH  10  11
HETATM   11  C   UNK N   1      30.255  17.182   6.896  0.00  0.00    -0.029 A 
HETATM   12  C   UNK N   1      31.625  17.306   6.919  0.00  0.00    -0.002 A 
HETATM   13  C   UNK N   1      31.974  17.581   8.209  0.00  0.00     0.042 A 
HETATM   14  C   UNK N   1      32.576  17.194   5.911  0.00  0.00     0.014 A 
HETATM   15  C   UNK N   1      33.302  17.767   8.588  0.00  0.00     0.030 A 
HETATM   16  N   UNK N   1      30.890  17.634   9.003  0.00  0.00    -0.365 N 
HETATM   17  C   UNK N   1      34.290  17.664   7.589  0.00  0.00     0.002 A 
HETATM   18  C   UNK N   1      33.928  17.378   6.254  0.00  0.00     0.001 A 
HETATM   19  C   UNK N   1      29.821  17.387   8.201  0.00  0.00     0.096 A 
HETATM   20  H   UNK N   1      30.874  17.816   9.971  0.00  0.00     0.165 HD
ENDBRANCH  10  11
ENDBRANCH   9  10
ENDBRANCH   7   9
ENDBRANCH   1   7
BRANCH   4  21
HETATM   21  N   UNK N   1      22.816  18.724   4.551  0.00  0.00    -0.356 N 
HETATM   22  H   UNK N   1      22.500  18.655   5.481  0.00  0.00     0.166 HD
BRANCH  21  23
HETATM   23  C   UNK N   1      21.831  19.022   3.557  0.00  0.00     0.035 A 
HETATM   24  C   UNK N   1      21.972  20.180   2.789  0.00  0.00     0.046 A 
HETATM   25  C   UNK N   1      21.017  20.486   1.814  0.00  0.00     0.090 A 
HETATM   26  N   UNK N   1      19.954  19.662   1.614  0.00  0.00    -0.375 N 
HETATM   27  C   UNK N   1      19.789  18.530   2.349  0.00  0.00     0.090 A 
ATOM     28  HN  UNK N   1      19.265  19.898   0.900  1.00  0.00     0.164 HD
HETATM   29  C   UNK N   1      20.723  18.192   3.329  0.00  0.00     0.046 A 
ENDBRANCH  21  23
ENDBRANCH   4  21
TORSDOF 6
ENDMDL
MODEL 8
REMARK VINA RESULT:      -6.6      2.571      8.116
REMARK  6 active torsions:
REMARK  status: ('A' for Active; 'I' for Inactive)
REMARK    1  A    between atoms: C_7  and  C_10 
REMARK    2  A    between atoms: C_10  and  C_11 
REMARK    3  A    between atoms: C_11  and  N_12 
REMARK    4  A    between atoms: N_12  and  C_13 
REMARK    5  A    between atoms: C_16  and  N_19 
REMARK    6  A    between atoms: N_19  and  C_20 
ROOT
HETATM    1  C   UNK N   1      31.891  16.518   6.289  0.00  0.00     0.028 A 
HETATM    2  C   UNK N   1      32.986  17.388   6.216  0.00  0.00     0.031 A 
HETATM    3  C   UNK N   1      33.808  17.578   7.339  0.00  0.00     0.031 A 
HETATM    4  C   UNK N   1      33.547  16.889   8.535  0.00  0.00     0.032 A 
HETATM    5  C   UNK N   1      32.456  16.018   8.587  0.00  0.00     0.031 A 
HETATM    6  C   UNK N   1      31.636  15.839   7.483  0.00  0.00     0.031 A 
ENDROOT
BRANCH   1   7
HETATM    7  N   UNK N   1      31.039  16.336   5.170  0.00  0.00    -0.390 N 
HETATM    8  H   UNK N   1      31.201  16.852   4.347  0.00  0.00     0.159 HD
BRANCH   7   9
HETATM    9  C   UNK N   1      29.936  15.401   5.221  0.00  0.00     0.124 C 
BRANCH   9  10
HETATM   10  C   UNK N   1      28.639  16.072   4.802  0.00  0.00     0.060 C 
BRANCH  10  11
HETATM   11  C   UNK N   1      28.262  17.135   5.788  0.00  0.00    -0.029 A 
HETATM   12  C   UNK N   1      27.922  18.441   5.520  0.00  0.00    -0.002 A 
HETATM   13  C   UNK N   1      27.671  19.037   6.721  0.00  0.00     0.042 A 
HETATM   14  C   UNK N   1      27.822  19.139   4.322  0.00  0.00     0.014 A 
HETATM   15  C   UNK N   1      27.296  20.377   6.814  0.00  0.00     0.030 A 
HETATM   16  N   UNK N   1      27.837  18.171   7.736  0.00  0.00    -0.365 N 
HETATM   17  C   UNK N   1      27.182  21.110   5.617  0.00  0.00     0.002 A 
HETATM   18  C   UNK N   1      27.445  20.493   4.374  0.00  0.00     0.001 A 
HETATM   19  C   UNK N   1      28.205  16.991   7.170  0.00  0.00     0.096 A 
HETATM   20  H   UNK N   1      27.716  18.354   8.697  0.00  0.00     0.165 HD
ENDBRANCH  10  11
ENDBRANCH   9  10
ENDBRANCH   7   9
ENDBRANCH   1   7
BRANCH   4  21
HETATM   21  N   UNK N   1      34.382  17.108   9.669  0.00  0.00    -0.356 N 
HETATM   22  H   UNK N   1      34.383  18.015  10.053  0.00  0.00     0.166 HD
BRANCH  21  23
HETATM   23  C   UNK N   1      35.219  16.139  10.306  0.00  0.00     0.035 A 
HETATM   24  C   UNK N   1      35.996  15.290   9.515  0.00  0.00     0.046 A 
HETATM   25  C   UNK N   1      36.819  14.336  10.121  0.00  0.00     0.090 A 
HETATM   26  N   UNK N   1      36.862  14.231  11.477  0.00  0.00    -0.375 N 
HETATM   27  C   UNK N   1      36.115  15.041  12.272  0.00  0.00     0.090 A 
ATOM     28  HN  UNK N   1      37.467  13.530  11.905  1.00  0.00     0.164 HD
HETATM   29  C   UNK N   1      35.284  16.006  11.701  0.00  0.00     0.046 A 
ENDBRANCH  21  23
ENDBRANCH   4  21
TORSDOF 6
ENDMDL
MODEL 9
REMARK VINA RESULT:      -6.6      4.801      9.522
REMARK  6 active torsions:
REMARK  status: ('A' for Active; 'I' for Inactive)
REMARK    1  A    between atoms: C_7  and  C_10 
REMARK    2  A    between atoms: C_10  and  C_11 
REMARK    3  A    between atoms: C_11  and  N_12 
REMARK    4  A    between atoms: N_12  and  C_13 
REMARK    5  A    between atoms: C_16  and  N_19 
REMARK    6  A    between atoms: N_19  and  C_20 
ROOT
HETATM    1  C   UNK N   1      34.697  15.367   9.625  0.00  0.00     0.028 A 
HETATM    2  C   UNK N   1      35.195  16.250  10.591  0.00  0.00     0.031 A 
HETATM    3  C   UNK N   1      35.894  15.753  11.703  0.00  0.00     0.031 A 
HETATM    4  C   UNK N   1      36.110  14.373  11.847  0.00  0.00     0.032 A 
HETATM    5  C   UNK N   1      35.614  13.506  10.868  0.00  0.00     0.031 A 
HETATM    6  C   UNK N   1      34.913  13.996   9.776  0.00  0.00     0.031 A 
ENDROOT
BRANCH   1   7
HETATM    7  N   UNK N   1      33.969  15.855   8.509  0.00  0.00    -0.390 N 
HETATM    8  H   UNK N   1      33.183  15.357   8.187  0.00  0.00     0.159 HD
BRANCH   7   9
HETATM    9  C   UNK N   1      34.366  17.073   7.839  0.00  0.00     0.124 C 
BRANCH   9  10
HETATM   10  C   UNK N   1      33.307  18.150   8.001  0.00  0.00     0.060 C 
BRANCH  10  11
HETATM   11  C   UNK N   1      31.999  17.680   7.442  0.00  0.00    -0.029 A 
HETATM   12  C   UNK N   1      30.754  17.799   8.018  0.00  0.00    -0.002 A 
HETATM   13  C   UNK N   1      29.867  17.219   7.159  0.00  0.00     0.042 A 
HETATM   14  C   UNK N   1      30.347  18.363   9.221  0.00  0.00     0.014 A 
HETATM   15  C   UNK N   1      28.502  17.163   7.438  0.00  0.00     0.030 A 
HETATM   16  N   UNK N   1      30.491  16.737   6.069  0.00  0.00    -0.365 N 
HETATM   17  C   UNK N   1      28.056  17.731   8.647  0.00  0.00     0.002 A 
HETATM   18  C   UNK N   1      28.976  18.329   9.536  0.00  0.00     0.001 A 
HETATM   19  C   UNK N   1      31.811  17.016   6.236  0.00  0.00     0.096 A 
HETATM   20  H   UNK N   1      30.076  16.276   5.304  0.00  0.00     0.165 HD
ENDBRANCH  10  11
ENDBRANCH   9  10
ENDBRANCH   7   9
ENDBRANCH   1   7
BRANCH   4  21
HETATM   21  N   UNK N   1      36.807  13.885  12.991  0.00  0.00    -0.356 N 
HETATM   22  H   UNK N   1      37.757  13.659  12.871  0.00  0.00     0.166 HD
BRANCH  21  23
HETATM   23  C   UNK N   1      36.260  13.691  14.298  0.00  0.00     0.035 A 
HETATM   24  C   UNK N   1      36.852  14.340  15.384  0.00  0.00     0.046 A 
HETATM   25  C   UNK N   1      36.331  14.160  16.669  0.00  0.00     0.090 A 
HETATM   26  N   UNK N   1      35.252  13.355  16.864  0.00  0.00    -0.375 N 
HETATM   27  C   UNK N   1      34.657  12.708  15.827  0.00  0.00     0.090 A 
ATOM     28  HN  UNK N   1      34.883  13.233  17.807  1.00  0.00     0.164 HD
HETATM   29  C   UNK N   1      35.149  12.865  14.531  0.00  0.00     0.046 A 
ENDBRANCH  21  23
ENDBRANCH   4  21
TORSDOF 6
ENDMDL
