MODEL 1
REMARK VINA RESULT:      -8.5      0.000      0.000
REMARK  9 active torsions:
REMARK  status: ('A' for Active; 'I' for Inactive)
REMARK    1  A    between atoms: C_2  and  C_3 
REMARK    2  A    between atoms: C_4  and  N_36 
REMARK    3  A    between atoms: C_7  and  N_14 
REMARK    4  A    between atoms: C_8  and  C_11 
REMARK       I    between atoms: C_11  and  N_13 
REMARK    5  A    between atoms: N_14  and  C_15 
REMARK    6  A    between atoms: C_18  and  N_23 
REMARK    7  A    between atoms: C_19  and  O_21 
REMARK    8  A    between atoms: C_26  and  N_29 
REMARK    9  A    between atoms: N_36  and  C_37 
ROOT
HETATM    1  C   UNK N   1      36.284  14.038  14.460  0.00  0.00     0.053 A 
HETATM    2  C   UNK N   1      35.255  13.091  14.329  0.00  0.00     0.126 A 
HETATM    3  N   UNK N   1      34.816  12.772  13.088  0.00  0.00    -0.325 N 
ATOM      4  HN  UNK N   1      34.069  12.083  12.993  1.00  0.00     0.169 HD
HETATM    5  C   UNK N   1      35.335  13.337  11.962  0.00  0.00     0.140 A 
HETATM    6  C   UNK N   1      36.333  14.325  12.093  0.00  0.00     0.145 A 
HETATM    7  N   UNK N   1      36.781  14.634  13.342  0.00  0.00    -0.349 N 
ATOM      8  HN  UNK N   1      37.513  15.337  13.442  1.00  0.00     0.166 HD
ENDROOT
BRANCH   5   9
HETATM    9  N   UNK N   1      34.929  12.865  10.682  0.00  0.00    -0.340 N 
HETATM   10  H   UNK N   1      35.062  11.915  10.461  0.00  0.00     0.167 HD
BRANCH   9  11
HETATM   11  C   UNK N   1      34.340  13.720   9.712  0.00  0.00     0.036 A 
HETATM   12  C   UNK N   1      33.325  14.607  10.075  0.00  0.00     0.032 A 
HETATM   13  C   UNK N   1      32.760  15.459   9.149  0.00  0.00     0.034 A 
HETATM   14  C   UNK N   1      33.178  15.451   7.815  0.00  0.00     0.064 A 
HETATM   15  C   UNK N   1      34.158  14.501   7.410  0.00  0.00     0.096 A 
HETATM   16  C   UNK N   1      34.729  13.643   8.374  0.00  0.00     0.068 A 
BRANCH  14  17
HETATM   17  N   UNK N   1      32.659  16.450   6.922  0.00  0.00    -0.379 N 
HETATM   18  C   UNK N   1      31.814  16.028   5.827  0.00  0.00     0.125 C 
HETATM   19  C   UNK N   1      30.408  15.796   6.388  0.00  0.00     0.055 C 
HETATM   20  C   UNK N   1      29.918  16.987   7.253  0.00  0.00     0.226 C 
HETATM   21  C   UNK N   1      30.993  17.612   8.170  0.00  0.00     0.055 C 
HETATM   22  C   UNK N   1      32.337  17.750   7.450  0.00  0.00     0.125 C 
BRANCH  20  23
HETATM   23  N   UNK N   1      29.176  18.011   6.516  0.00  0.00     0.096 N 
HETATM   24  C   UNK N   1      28.259  18.706   7.420  0.00  0.00     0.303 C 
HETATM   25  C   UNK N   1      27.585  19.847   6.663  0.00  0.00     0.302 C 
HETATM   26  N   UNK N   1      26.857  19.321   5.507  0.00  0.00     0.087 N 
HETATM   27  C   UNK N   1      27.775  18.601   4.624  0.00  0.00     0.302 C 
HETATM   28  C   UNK N   1      26.364  20.465   4.764  0.00  0.00     0.310 C 
HETATM   29  C   UNK N   1      28.432  17.456   5.385  0.00  0.00     0.303 C 
ENDBRANCH  20  23
ENDBRANCH  14  17
BRANCH  15  30
HETATM   30  O   UNK N   1      34.541  14.427   6.111  0.00  0.00    -0.354 OA
HETATM   31  C   UNK N   1      35.793  14.784   5.665  0.00  0.00     0.210 C 
ENDBRANCH  15  30
ENDBRANCH   9  11
ENDBRANCH   5   9
BRANCH   6  32
HETATM   32  C   UNK N   1      36.958  14.997  10.921  0.00  0.00     0.269 C 
HETATM   33  O   UNK N   1      36.573  16.106  10.589  0.00  0.00    -0.266 OA
HETATM   34  N   UNK N   1      37.937  14.403  10.208  0.00  0.00    -0.365 N 
HETATM   35  H   UNK N   1      38.178  14.725   9.309  0.00  0.00     0.159 HD
HETATM   36  H   UNK N   1      38.418  13.636  10.593  0.00  0.00     0.159 HD
ENDBRANCH   6  32
BRANCH   2  37
HETATM   37  N   UNK N   1      34.711  12.443  15.474  0.00  0.00    -0.370 N 
HETATM   38  H   UNK N   1      33.830  12.736  15.804  0.00  0.00     0.161 HD
BRANCH  37  39
HETATM   39  C   UNK N   1      35.386  11.373  16.180  0.00  0.00     0.087 C 
HETATM   40  C   UNK N   1      34.758  10.030  15.808  0.00  0.00     0.051 C 
HETATM   41  C   UNK N   1      35.399   8.931  16.664  0.00  0.00     0.169 C 
HETATM   42  O   UNK N   1      35.176   9.192  18.030  0.00  0.00    -0.391 OA
HETATM   43  C   UNK N   1      35.944  10.325  18.354  0.00  0.00     0.169 C 
HETATM   44  C   UNK N   1      35.323  11.556  17.697  0.00  0.00     0.051 C 
ENDBRANCH  37  39
ENDBRANCH   2  37
BRANCH   1  45
HETATM   45  C   UNK N   1      36.873  14.382  15.790  0.00  0.00     0.056 C 
HETATM   46  C   UNK N   1      37.349  15.821  15.834  0.00  0.00     0.011 C 
ENDBRANCH   1  45
TORSDOF 9
ENDMDL
MODEL 2
REMARK VINA RESULT:      -8.0      4.291     11.592
REMARK  9 active torsions:
REMARK  status: ('A' for Active; 'I' for Inactive)
REMARK    1  A    between atoms: C_2  and  C_3 
REMARK    2  A    between atoms: C_4  and  N_36 
REMARK    3  A    between atoms: C_7  and  N_14 
REMARK    4  A    between atoms: C_8  and  C_11 
REMARK       I    between atoms: C_11  and  N_13 
REMARK    5  A    between atoms: N_14  and  C_15 
REMARK    6  A    between atoms: C_18  and  N_23 
REMARK    7  A    between atoms: C_19  and  O_21 
REMARK    8  A    between atoms: C_26  and  N_29 
REMARK    9  A    between atoms: N_36  and  C_37 
ROOT
HETATM    1  C   UNK N   1      23.837  16.391   4.288  0.00  0.00     0.053 A 
HETATM    2  C   UNK N   1      24.614  15.841   5.321  0.00  0.00     0.126 A 
HETATM    3  N   UNK N   1      25.658  16.557   5.803  0.00  0.00    -0.325 N 
ATOM      4  HN  UNK N   1      26.222  16.158   6.554  1.00  0.00     0.169 HD
HETATM    5  C   UNK N   1      25.982  17.790   5.323  0.00  0.00     0.140 A 
HETATM    6  C   UNK N   1      25.234  18.323   4.253  0.00  0.00     0.145 A 
HETATM    7  N   UNK N   1      24.177  17.606   3.778  0.00  0.00    -0.349 N 
ATOM      8  HN  UNK N   1      23.623  17.993   3.014  1.00  0.00     0.166 HD
ENDROOT
BRANCH   5   9
HETATM    9  N   UNK N   1      27.003  18.550   5.959  0.00  0.00    -0.340 N 
HETATM   10  H   UNK N   1      26.770  19.417   6.364  0.00  0.00     0.167 HD
BRANCH   9  11
HETATM   11  C   UNK N   1      28.349  18.100   6.028  0.00  0.00     0.036 A 
HETATM   12  C   UNK N   1      28.947  17.842   7.263  0.00  0.00     0.032 A 
HETATM   13  C   UNK N   1      30.245  17.383   7.344  0.00  0.00     0.034 A 
HETATM   14  C   UNK N   1      31.007  17.175   6.190  0.00  0.00     0.064 A 
HETATM   15  C   UNK N   1      30.441  17.505   4.926  0.00  0.00     0.096 A 
HETATM   16  C   UNK N   1      29.109  17.966   4.865  0.00  0.00     0.068 A 
BRANCH  14  17
HETATM   17  N   UNK N   1      32.302  16.566   6.319  0.00  0.00    -0.379 N 
HETATM   18  C   UNK N   1      33.407  17.380   6.774  0.00  0.00     0.125 C 
HETATM   19  C   UNK N   1      33.306  17.492   8.297  0.00  0.00     0.055 C 
HETATM   20  C   UNK N   1      33.108  16.110   8.975  0.00  0.00     0.226 C 
HETATM   21  C   UNK N   1      32.151  15.152   8.232  0.00  0.00     0.055 C 
HETATM   22  C   UNK N   1      32.381  15.185   6.719  0.00  0.00     0.125 C 
BRANCH  20  23
HETATM   23  N   UNK N   1      34.349  15.438   9.364  0.00  0.00     0.096 N 
HETATM   24  C   UNK N   1      34.063  14.062   9.771  0.00  0.00     0.303 C 
HETATM   25  C   UNK N   1      35.378  13.343  10.056  0.00  0.00     0.302 C 
HETATM   26  N   UNK N   1      36.113  14.042  11.111  0.00  0.00     0.087 N 
HETATM   27  C   UNK N   1      36.369  15.426  10.710  0.00  0.00     0.302 C 
HETATM   28  C   UNK N   1      37.403  13.390  11.229  0.00  0.00     0.310 C 
HETATM   29  C   UNK N   1      35.049  16.138  10.442  0.00  0.00     0.303 C 
ENDBRANCH  20  23
ENDBRANCH  14  17
BRANCH  15  30
HETATM   30  O   UNK N   1      31.176  17.372   3.794  0.00  0.00    -0.354 OA
HETATM   31  C   UNK N   1      31.134  16.259   2.986  0.00  0.00     0.210 C 
ENDBRANCH  15  30
ENDBRANCH   9  11
ENDBRANCH   5   9
BRANCH   6  32
HETATM   32  C   UNK N   1      25.514  19.661   3.663  0.00  0.00     0.269 C 
HETATM   33  O   UNK N   1      26.670  19.997   3.458  0.00  0.00    -0.266 OA
HETATM   34  N   UNK N   1      24.519  20.519   3.359  0.00  0.00    -0.365 N 
HETATM   35  H   UNK N   1      24.701  21.474   3.204  0.00  0.00     0.159 HD
HETATM   36  H   UNK N   1      23.596  20.184   3.290  0.00  0.00     0.159 HD
ENDBRANCH   6  32
BRANCH   2  37
HETATM   37  N   UNK N   1      24.288  14.574   5.883  0.00  0.00    -0.370 N 
HETATM   38  H   UNK N   1      24.242  13.794   5.284  0.00  0.00     0.161 HD
BRANCH  37  39
HETATM   39  C   UNK N   1      24.021  14.373   7.293  0.00  0.00     0.087 C 
HETATM   40  C   UNK N   1      25.085  13.455   7.895  0.00  0.00     0.051 C 
HETATM   41  C   UNK N   1      24.709  13.152   9.350  0.00  0.00     0.169 C 
HETATM   42  O   UNK N   1      23.454  12.515   9.401  0.00  0.00    -0.391 OA
HETATM   43  C   UNK N   1      22.498  13.476   9.028  0.00  0.00     0.169 C 
HETATM   44  C   UNK N   1      22.638  13.770   7.536  0.00  0.00     0.051 C 
ENDBRANCH  37  39
ENDBRANCH   2  37
BRANCH   1  45
HETATM   45  C   UNK N   1      22.624  15.695   3.759  0.00  0.00     0.056 C 
HETATM   46  C   UNK N   1      21.550  16.682   3.344  0.00  0.00     0.011 C 
ENDBRANCH   1  45
TORSDOF 9
ENDMDL
MODEL 3
REMARK VINA RESULT:      -8.0      7.566     12.925
REMARK  9 active torsions:
REMARK  status: ('A' for Active; 'I' for Inactive)
REMARK    1  A    between atoms: C_2  and  C_3 
REMARK    2  A    between atoms: C_4  and  N_36 
REMARK    3  A    between atoms: C_7  and  N_14 
REMARK    4  A    between atoms: C_8  and  C_11 
REMARK       I    between atoms: C_11  and  N_13 
REMARK    5  A    between atoms: N_14  and  C_15 
REMARK    6  A    between atoms: C_18  and  N_23 
REMARK    7  A    between atoms: C_19  and  O_21 
REMARK    8  A    between atoms: C_26  and  N_29 
REMARK    9  A    between atoms: N_36  and  C_37 
ROOT
HETATM    1  C   UNK N   1      22.138  17.414   4.032  0.00  0.00     0.053 A 
HETATM    2  C   UNK N   1      22.871  16.884   5.106  0.00  0.00     0.126 A 
HETATM    3  N   UNK N   1      24.001  17.520   5.501  0.00  0.00    -0.325 N 
ATOM      4  HN  UNK N   1      24.533  17.136   6.281  1.00  0.00     0.169 HD
HETATM    5  C   UNK N   1      24.451  18.653   4.893  0.00  0.00     0.140 A 
HETATM    6  C   UNK N   1      23.744  19.159   3.783  0.00  0.00     0.145 A 
HETATM    7  N   UNK N   1      22.602  18.524   3.396  0.00  0.00    -0.349 N 
ATOM      8  HN  UNK N   1      22.078  18.893   2.603  1.00  0.00     0.166 HD
ENDROOT
BRANCH   5   9
HETATM    9  N   UNK N   1      25.566  19.351   5.436  0.00  0.00    -0.340 N 
HETATM   10  H   UNK N   1      25.440  20.271   5.761  0.00  0.00     0.167 HD
BRANCH   9  11
HETATM   11  C   UNK N   1      26.857  18.762   5.524  0.00  0.00     0.036 A 
HETATM   12  C   UNK N   1      27.466  18.220   4.392  0.00  0.00     0.032 A 
HETATM   13  C   UNK N   1      28.728  17.666   4.458  0.00  0.00     0.034 A 
HETATM   14  C   UNK N   1      29.430  17.619   5.666  0.00  0.00     0.064 A 
HETATM   15  C   UNK N   1      28.794  18.097   6.846  0.00  0.00     0.096 A 
HETATM   16  C   UNK N   1      27.507  18.667   6.756  0.00  0.00     0.068 A 
BRANCH  14  17
HETATM   17  N   UNK N   1      30.791  17.160   5.655  0.00  0.00    -0.379 N 
HETATM   18  C   UNK N   1      31.119  15.953   6.380  0.00  0.00     0.125 C 
HETATM   19  C   UNK N   1      30.710  14.762   5.510  0.00  0.00     0.055 C 
HETATM   20  C   UNK N   1      31.236  14.890   4.056  0.00  0.00     0.226 C 
HETATM   21  C   UNK N   1      31.158  16.312   3.458  0.00  0.00     0.055 C 
HETATM   22  C   UNK N   1      31.585  17.374   4.474  0.00  0.00     0.125 C 
BRANCH  20  23
HETATM   23  N   UNK N   1      32.545  14.278   3.825  0.00  0.00     0.096 N 
HETATM   24  C   UNK N   1      32.607  13.733   2.468  0.00  0.00     0.303 C 
HETATM   25  C   UNK N   1      34.015  13.209   2.206  0.00  0.00     0.302 C 
HETATM   26  N   UNK N   1      34.357  12.175   3.184  0.00  0.00     0.087 N 
HETATM   27  C   UNK N   1      34.264  12.719   4.539  0.00  0.00     0.302 C 
HETATM   28  C   UNK N   1      35.747  11.828   2.963  0.00  0.00     0.310 C 
HETATM   29  C   UNK N   1      32.849  13.226   4.796  0.00  0.00     0.303 C 
ENDBRANCH  20  23
ENDBRANCH  14  17
BRANCH  15  30
HETATM   30  O   UNK N   1      29.425  18.009   8.044  0.00  0.00    -0.354 OA
HETATM   31  C   UNK N   1      28.981  18.636   9.186  0.00  0.00     0.210 C 
ENDBRANCH  15  30
ENDBRANCH   9  11
ENDBRANCH   5   9
BRANCH   6  32
HETATM   32  C   UNK N   1      24.160  20.389   3.056  0.00  0.00     0.269 C 
HETATM   33  O   UNK N   1      23.401  21.343   3.007  0.00  0.00    -0.266 OA
HETATM   34  N   UNK N   1      25.357  20.472   2.439  0.00  0.00    -0.365 N 
HETATM   35  H   UNK N   1      25.534  21.168   1.766  0.00  0.00     0.159 HD
HETATM   36  H   UNK N   1      26.063  19.825   2.666  0.00  0.00     0.159 HD
ENDBRANCH   6  32
BRANCH   2  37
HETATM   37  N   UNK N   1      22.417  15.726   5.799  0.00  0.00    -0.370 N 
HETATM   38  H   UNK N   1      22.464  14.856   5.338  0.00  0.00     0.161 HD
BRANCH  37  39
HETATM   39  C   UNK N   1      21.889  15.761   7.148  0.00  0.00     0.087 C 
HETATM   40  C   UNK N   1      21.418  14.364   7.555  0.00  0.00     0.051 C 
HETATM   41  C   UNK N   1      20.746  14.452   8.930  0.00  0.00     0.169 C 
HETATM   42  O   UNK N   1      19.640  15.322   8.871  0.00  0.00    -0.391 OA
HETATM   43  C   UNK N   1      20.156  16.618   8.696  0.00  0.00     0.169 C 
HETATM   44  C   UNK N   1      20.727  16.744   7.285  0.00  0.00     0.051 C 
ENDBRANCH  37  39
ENDBRANCH   2  37
BRANCH   1  45
HETATM   45  C   UNK N   1      20.842  16.812   3.591  0.00  0.00     0.056 C 
HETATM   46  C   UNK N   1      19.801  17.877   3.305  0.00  0.00     0.011 C 
ENDBRANCH   1  45
TORSDOF 9
ENDMDL
MODEL 4
REMARK VINA RESULT:      -8.0      1.935      2.635
REMARK  9 active torsions:
REMARK  status: ('A' for Active; 'I' for Inactive)
REMARK    1  A    between atoms: C_2  and  C_3 
REMARK    2  A    between atoms: C_4  and  N_36 
REMARK    3  A    between atoms: C_7  and  N_14 
REMARK    4  A    between atoms: C_8  and  C_11 
REMARK       I    between atoms: C_11  and  N_13 
REMARK    5  A    between atoms: N_14  and  C_15 
REMARK    6  A    between atoms: C_18  and  N_23 
REMARK    7  A    between atoms: C_19  and  O_21 
REMARK    8  A    between atoms: C_26  and  N_29 
REMARK    9  A    between atoms: N_36  and  C_37 
ROOT
HETATM    1  C   UNK N   1      35.841  10.683  12.988  0.00  0.00     0.053 A 
HETATM    2  C   UNK N   1      35.596  11.937  13.572  0.00  0.00     0.126 A 
HETATM    3  N   UNK N   1      36.086  13.045  12.967  0.00  0.00    -0.325 N 
ATOM      4  HN  UNK N   1      35.908  13.956  13.391  1.00  0.00     0.169 HD
HETATM    5  C   UNK N   1      36.808  12.988  11.814  0.00  0.00     0.140 A 
HETATM    6  C   UNK N   1      37.098  11.728  11.251  0.00  0.00     0.145 A 
HETATM    7  N   UNK N   1      36.593  10.616  11.856  0.00  0.00    -0.349 N 
ATOM      8  HN  UNK N   1      36.787   9.702  11.446  1.00  0.00     0.166 HD
ENDROOT
BRANCH   5   9
HETATM    9  N   UNK N   1      37.180  14.193  11.152  0.00  0.00    -0.340 N 
HETATM   10  H   UNK N   1      38.059  14.592  11.348  0.00  0.00     0.167 HD
BRANCH   9  11
HETATM   11  C   UNK N   1      36.324  14.839  10.221  0.00  0.00     0.036 A 
HETATM   12  C   UNK N   1      35.521  15.908  10.622  0.00  0.00     0.032 A 
HETATM   13  C   UNK N   1      34.701  16.560   9.723  0.00  0.00     0.034 A 
HETATM   14  C   UNK N   1      34.641  16.160   8.385  0.00  0.00     0.064 A 
HETATM   15  C   UNK N   1      35.395  15.025   7.974  0.00  0.00     0.096 A 
HETATM   16  C   UNK N   1      36.232  14.377   8.907  0.00  0.00     0.068 A 
BRANCH  14  17
HETATM   17  N   UNK N   1      33.881  16.956   7.460  0.00  0.00    -0.379 N 
HETATM   18  C   UNK N   1      33.162  16.285   6.401  0.00  0.00     0.125 C 
HETATM   19  C   UNK N   1      31.863  15.734   6.997  0.00  0.00     0.055 C 
HETATM   20  C   UNK N   1      31.096  16.803   7.819  0.00  0.00     0.226 C 
HETATM   21  C   UNK N   1      31.986  17.718   8.688  0.00  0.00     0.055 C 
HETATM   22  C   UNK N   1      33.247  18.156   7.938  0.00  0.00     0.125 C 
BRANCH  20  23
HETATM   23  N   UNK N   1      30.115  17.573   7.053  0.00  0.00     0.096 N 
HETATM   24  C   UNK N   1      29.127  18.160   7.960  0.00  0.00     0.303 C 
HETATM   25  C   UNK N   1      28.187  19.056   7.159  0.00  0.00     0.302 C 
HETATM   26  N   UNK N   1      27.519  18.276   6.116  0.00  0.00     0.087 N 
HETATM   27  C   UNK N   1      28.513  17.668   5.232  0.00  0.00     0.302 C 
HETATM   28  C   UNK N   1      26.756  19.213   5.313  0.00  0.00     0.310 C 
HETATM   29  C   UNK N   1      29.437  16.764   6.039  0.00  0.00     0.303 C 
ENDBRANCH  20  23
ENDBRANCH  14  17
BRANCH  15  30
HETATM   30  O   UNK N   1      35.311  14.576   6.697  0.00  0.00    -0.354 OA
HETATM   31  C   UNK N   1      36.389  14.499   5.845  0.00  0.00     0.210 C 
ENDBRANCH  15  30
ENDBRANCH   9  11
ENDBRANCH   5   9
BRANCH   6  32
HETATM   32  C   UNK N   1      37.879  11.568   9.994  0.00  0.00     0.269 C 
HETATM   33  O   UNK N   1      38.928  12.177   9.857  0.00  0.00    -0.266 OA
HETATM   34  N   UNK N   1      37.449  10.770   8.995  0.00  0.00    -0.365 N 
HETATM   35  H   UNK N   1      37.822  10.848   8.087  0.00  0.00     0.159 HD
HETATM   36  H   UNK N   1      36.752  10.100   9.177  0.00  0.00     0.159 HD
ENDBRANCH   6  32
BRANCH   2  37
HETATM   37  N   UNK N   1      34.811  12.049  14.755  0.00  0.00    -0.370 N 
HETATM   38  H   UNK N   1      33.831  11.987  14.674  0.00  0.00     0.161 HD
BRANCH  37  39
HETATM   39  C   UNK N   1      35.379  12.249  16.073  0.00  0.00     0.087 C 
HETATM   40  C   UNK N   1      35.191  10.988  16.915  0.00  0.00     0.051 C 
HETATM   41  C   UNK N   1      35.680  11.268  18.340  0.00  0.00     0.169 C 
HETATM   42  O   UNK N   1      34.939  12.325  18.904  0.00  0.00    -0.391 OA
HETATM   43  C   UNK N   1      35.312  13.492  18.214  0.00  0.00     0.169 C 
HETATM   44  C   UNK N   1      34.746  13.438  16.796  0.00  0.00     0.051 C 
ENDBRANCH  37  39
ENDBRANCH   2  37
BRANCH   1  45
HETATM   45  C   UNK N   1      35.267   9.425  13.555  0.00  0.00     0.056 C 
HETATM   46  C   UNK N   1      36.307   8.634  14.324  0.00  0.00     0.011 C 
ENDBRANCH   1  45
TORSDOF 9
ENDMDL
MODEL 5
REMARK VINA RESULT:      -7.9      6.426     12.446
REMARK  9 active torsions:
REMARK  status: ('A' for Active; 'I' for Inactive)
REMARK    1  A    between atoms: C_2  and  C_3 
REMARK    2  A    between atoms: C_4  and  N_36 
REMARK    3  A    between atoms: C_7  and  N_14 
REMARK    4  A    between atoms: C_8  and  C_11 
REMARK       I    between atoms: C_11  and  N_13 
REMARK    5  A    between atoms: N_14  and  C_15 
REMARK    6  A    between atoms: C_18  and  N_23 
REMARK    7  A    between atoms: C_19  and  O_21 
REMARK    8  A    between atoms: C_26  and  N_29 
REMARK    9  A    between atoms: N_36  and  C_37 
ROOT
HETATM    1  C   UNK N   1      20.160  15.703   7.909  0.00  0.00     0.053 A 
HETATM    2  C   UNK N   1      20.932  14.566   7.619  0.00  0.00     0.126 A 
HETATM    3  N   UNK N   1      21.678  14.556   6.488  0.00  0.00    -0.325 N 
ATOM      4  HN  UNK N   1      22.240  13.731   6.278  1.00  0.00     0.169 HD
HETATM    5  C   UNK N   1      21.704  15.606   5.621  0.00  0.00     0.140 A 
HETATM    6  C   UNK N   1      20.891  16.728   5.884  0.00  0.00     0.145 A 
HETATM    7  N   UNK N   1      20.152  16.741   7.029  0.00  0.00    -0.349 N 
ATOM      8  HN  UNK N   1      19.573  17.555   7.232  1.00  0.00     0.166 HD
ENDROOT
BRANCH   5   9
HETATM    9  N   UNK N   1      22.609  15.593   4.522  0.00  0.00    -0.340 N 
HETATM   10  H   UNK N   1      22.326  15.174   3.677  0.00  0.00     0.167 HD
BRANCH   9  11
HETATM   11  C   UNK N   1      23.908  16.163   4.605  0.00  0.00     0.036 A 
HETATM   12  C   UNK N   1      24.867  15.615   5.457  0.00  0.00     0.032 A 
HETATM   13  C   UNK N   1      26.140  16.143   5.531  0.00  0.00     0.034 A 
HETATM   14  C   UNK N   1      26.502  17.254   4.764  0.00  0.00     0.064 A 
HETATM   15  C   UNK N   1      25.515  17.874   3.946  0.00  0.00     0.096 A 
HETATM   16  C   UNK N   1      24.222  17.313   3.879  0.00  0.00     0.068 A 
BRANCH  14  17
HETATM   17  N   UNK N   1      27.874  17.681   4.771  0.00  0.00    -0.379 N 
HETATM   18  C   UNK N   1      28.266  18.733   5.683  0.00  0.00     0.125 C 
HETATM   19  C   UNK N   1      28.452  18.104   7.067  0.00  0.00     0.055 C 
HETATM   20  C   UNK N   1      29.338  16.831   7.018  0.00  0.00     0.226 C 
HETATM   21  C   UNK N   1      29.084  15.907   5.807  0.00  0.00     0.055 C 
HETATM   22  C   UNK N   1      28.904  16.707   4.515  0.00  0.00     0.125 C 
BRANCH  20  23
HETATM   23  N   UNK N   1      30.767  17.075   7.221  0.00  0.00     0.096 N 
HETATM   24  C   UNK N   1      31.485  15.802   7.277  0.00  0.00     0.303 C 
HETATM   25  C   UNK N   1      32.982  16.078   7.367  0.00  0.00     0.302 C 
HETATM   26  N   UNK N   1      33.274  16.878   8.557  0.00  0.00     0.087 N 
HETATM   27  C   UNK N   1      32.529  18.136   8.509  0.00  0.00     0.302 C 
HETATM   28  C   UNK N   1      34.683  17.218   8.502  0.00  0.00     0.310 C 
HETATM   29  C   UNK N   1      31.034  17.849   8.435  0.00  0.00     0.303 C 
ENDBRANCH  20  23
ENDBRANCH  14  17
BRANCH  15  30
HETATM   30  O   UNK N   1      25.819  18.989   3.237  0.00  0.00    -0.354 OA
HETATM   31  C   UNK N   1      25.258  20.222   3.480  0.00  0.00     0.210 C 
ENDBRANCH  15  30
ENDBRANCH   9  11
ENDBRANCH   5   9
BRANCH   6  32
HETATM   32  C   UNK N   1      20.855  17.921   4.995  0.00  0.00     0.269 C 
HETATM   33  O   UNK N   1      21.352  18.969   5.375  0.00  0.00    -0.266 OA
HETATM   34  N   UNK N   1      20.274  17.876   3.779  0.00  0.00    -0.365 N 
HETATM   35  H   UNK N   1      20.032  18.701   3.299  0.00  0.00     0.159 HD
HETATM   36  H   UNK N   1      20.089  17.003   3.364  0.00  0.00     0.159 HD
ENDBRANCH   6  32
BRANCH   2  37
HETATM   37  N   UNK N   1      20.969  13.461   8.516  0.00  0.00    -0.370 N 
HETATM   38  H   UNK N   1      20.298  12.748   8.408  0.00  0.00     0.161 HD
BRANCH  37  39
HETATM   39  C   UNK N   1      21.944  13.331   9.580  0.00  0.00     0.087 C 
HETATM   40  C   UNK N   1      23.258  12.792   9.015  0.00  0.00     0.051 C 
HETATM   41  C   UNK N   1      24.228  12.539  10.174  0.00  0.00     0.169 C 
HETATM   42  O   UNK N   1      23.678  11.597  11.065  0.00  0.00    -0.391 OA
HETATM   43  C   UNK N   1      22.593  12.227  11.700  0.00  0.00     0.169 C 
HETATM   44  C   UNK N   1      21.458  12.404  10.694  0.00  0.00     0.051 C 
ENDBRANCH  37  39
ENDBRANCH   2  37
BRANCH   1  45
HETATM   45  C   UNK N   1      19.374  15.818   9.175  0.00  0.00     0.056 C 
HETATM   46  C   UNK N   1      18.374  16.956   9.110  0.00  0.00     0.011 C 
ENDBRANCH   1  45
TORSDOF 9
ENDMDL
MODEL 6
REMARK VINA RESULT:      -7.6      6.323     12.536
REMARK  9 active torsions:
REMARK  status: ('A' for Active; 'I' for Inactive)
REMARK    1  A    between atoms: C_2  and  C_3 
REMARK    2  A    between atoms: C_4  and  N_36 
REMARK    3  A    between atoms: C_7  and  N_14 
REMARK    4  A    between atoms: C_8  and  C_11 
REMARK       I    between atoms: C_11  and  N_13 
REMARK    5  A    between atoms: N_14  and  C_15 
REMARK    6  A    between atoms: C_18  and  N_23 
REMARK    7  A    between atoms: C_19  and  O_21 
REMARK    8  A    between atoms: C_26  and  N_29 
REMARK    9  A    between atoms: N_36  and  C_37 
ROOT
HETATM    1  C   UNK N   1      20.264  16.212   7.143  0.00  0.00     0.053 A 
HETATM    2  C   UNK N   1      21.093  15.091   6.973  0.00  0.00     0.126 A 
HETATM    3  N   UNK N   1      21.802  14.973   5.825  0.00  0.00    -0.325 N 
ATOM      4  HN  UNK N   1      22.405  14.159   5.702  1.00  0.00     0.169 HD
HETATM    5  C   UNK N   1      21.738  15.899   4.828  0.00  0.00     0.140 A 
HETATM    6  C   UNK N   1      20.868  17.000   4.975  0.00  0.00     0.145 A 
HETATM    7  N   UNK N   1      20.166  17.122   6.136  0.00  0.00    -0.349 N 
ATOM      8  HN  UNK N   1      19.546  17.923   6.255  1.00  0.00     0.166 HD
ENDROOT
BRANCH   5   9
HETATM    9  N   UNK N   1      22.606  15.791   3.706  0.00  0.00    -0.340 N 
HETATM   10  H   UNK N   1      22.266  15.380   2.878  0.00  0.00     0.167 HD
BRANCH   9  11
HETATM   11  C   UNK N   1      23.949  16.253   3.741  0.00  0.00     0.036 A 
HETATM   12  C   UNK N   1      24.303  17.335   4.549  0.00  0.00     0.032 A 
HETATM   13  C   UNK N   1      25.608  17.781   4.611  0.00  0.00     0.034 A 
HETATM   14  C   UNK N   1      26.613  17.170   3.855  0.00  0.00     0.064 A 
HETATM   15  C   UNK N   1      26.257  16.114   2.968  0.00  0.00     0.096 A 
HETATM   16  C   UNK N   1      24.919  15.669   2.925  0.00  0.00     0.068 A 
BRANCH  14  17
HETATM   17  N   UNK N   1      27.975  17.578   4.059  0.00  0.00    -0.379 N 
HETATM   18  C   UNK N   1      28.239  18.681   4.957  0.00  0.00     0.125 C 
HETATM   19  C   UNK N   1      28.185  18.139   6.388  0.00  0.00     0.055 C 
HETATM   20  C   UNK N   1      29.038  16.855   6.561  0.00  0.00     0.226 C 
HETATM   21  C   UNK N   1      28.962  15.859   5.382  0.00  0.00     0.055 C 
HETATM   22  C   UNK N   1      29.010  16.578   4.032  0.00  0.00     0.125 C 
BRANCH  20  23
HETATM   23  N   UNK N   1      30.421  17.093   6.977  0.00  0.00     0.096 N 
HETATM   24  C   UNK N   1      31.189  15.850   6.885  0.00  0.00     0.303 C 
HETATM   25  C   UNK N   1      32.651  16.144   7.205  0.00  0.00     0.302 C 
HETATM   26  N   UNK N   1      32.766  16.712   8.549  0.00  0.00     0.087 N 
HETATM   27  C   UNK N   1      31.971  17.938   8.643  0.00  0.00     0.302 C 
HETATM   28  C   UNK N   1      34.153  17.094   8.729  0.00  0.00     0.310 C 
HETATM   29  C   UNK N   1      30.510  17.631   8.336  0.00  0.00     0.303 C 
ENDBRANCH  20  23
ENDBRANCH  14  17
BRANCH  15  30
HETATM   30  O   UNK N   1      27.199  15.542   2.177  0.00  0.00    -0.354 OA
HETATM   31  C   UNK N   1      27.290  14.186   1.963  0.00  0.00     0.210 C 
ENDBRANCH  15  30
ENDBRANCH   9  11
ENDBRANCH   5   9
BRANCH   6  32
HETATM   32  C   UNK N   1      20.732  18.061   3.940  0.00  0.00     0.269 C 
HETATM   33  O   UNK N   1      20.311  17.769   2.832  0.00  0.00    -0.266 OA
HETATM   34  N   UNK N   1      21.073  19.341   4.195  0.00  0.00    -0.365 N 
HETATM   35  H   UNK N   1      21.216  19.984   3.464  0.00  0.00     0.159 HD
HETATM   36  H   UNK N   1      21.180  19.636   5.128  0.00  0.00     0.159 HD
ENDBRANCH   6  32
BRANCH   2  37
HETATM   37  N   UNK N   1      21.224  14.118   8.004  0.00  0.00    -0.370 N 
HETATM   38  H   UNK N   1      20.428  13.890   8.537  0.00  0.00     0.161 HD
BRANCH  37  39
HETATM   39  C   UNK N   1      22.471  13.445   8.311  0.00  0.00     0.087 C 
HETATM   40  C   UNK N   1      22.419  12.004   7.803  0.00  0.00     0.051 C 
HETATM   41  C   UNK N   1      23.691  11.276   8.253  0.00  0.00     0.169 C 
HETATM   42  O   UNK N   1      23.774  11.276   9.659  0.00  0.00    -0.391 OA
HETATM   43  C   UNK N   1      24.023  12.604  10.048  0.00  0.00     0.169 C 
HETATM   44  C   UNK N   1      22.767  13.440   9.811  0.00  0.00     0.051 C 
ENDBRANCH  37  39
ENDBRANCH   2  37
BRANCH   1  45
HETATM   45  C   UNK N   1      19.513  16.450   8.414  0.00  0.00     0.056 C 
HETATM   46  C   UNK N   1      19.563  17.908   8.826  0.00  0.00     0.011 C 
ENDBRANCH   1  45
TORSDOF 9
ENDMDL
MODEL 7
REMARK VINA RESULT:      -7.6      4.875     12.640
REMARK  9 active torsions:
REMARK  status: ('A' for Active; 'I' for Inactive)
REMARK    1  A    between atoms: C_2  and  C_3 
REMARK    2  A    between atoms: C_4  and  N_36 
REMARK    3  A    between atoms: C_7  and  N_14 
REMARK    4  A    between atoms: C_8  and  C_11 
REMARK       I    between atoms: C_11  and  N_13 
REMARK    5  A    between atoms: N_14  and  C_15 
REMARK    6  A    between atoms: C_18  and  N_23 
REMARK    7  A    between atoms: C_19  and  O_21 
REMARK    8  A    between atoms: C_26  and  N_29 
REMARK    9  A    between atoms: N_36  and  C_37 
ROOT
HETATM    1  C   UNK N   1      24.355  17.302   4.840  0.00  0.00     0.053 A 
HETATM    2  C   UNK N   1      25.187  16.472   4.071  0.00  0.00     0.126 A 
HETATM    3  N   UNK N   1      26.461  16.868   3.833  0.00  0.00    -0.325 N 
ATOM      4  HN  UNK N   1      27.066  16.265   3.275  1.00  0.00     0.169 HD
HETATM    5  C   UNK N   1      26.963  18.040   4.311  0.00  0.00     0.140 A 
HETATM    6  C   UNK N   1      26.115  18.898   5.041  0.00  0.00     0.145 A 
HETATM    7  N   UNK N   1      24.838  18.492   5.289  0.00  0.00    -0.349 N 
ATOM      8  HN  UNK N   1      24.223  19.101   5.829  1.00  0.00     0.166 HD
ENDROOT
BRANCH   5   9
HETATM    9  N   UNK N   1      28.345  18.338   4.143  0.00  0.00    -0.340 N 
HETATM   10  H   UNK N   1      28.630  18.850   3.352  0.00  0.00     0.167 HD
BRANCH   9  11
HETATM   11  C   UNK N   1      29.327  17.919   5.081  0.00  0.00     0.036 A 
HETATM   12  C   UNK N   1      30.602  17.547   4.651  0.00  0.00     0.032 A 
HETATM   13  C   UNK N   1      31.573  17.160   5.552  0.00  0.00     0.034 A 
HETATM   14  C   UNK N   1      31.304  17.115   6.923  0.00  0.00     0.064 A 
HETATM   15  C   UNK N   1      29.987  17.417   7.374  0.00  0.00     0.096 A 
HETATM   16  C   UNK N   1      29.011  17.818   6.437  0.00  0.00     0.068 A 
BRANCH  14  17
HETATM   17  N   UNK N   1      32.384  16.841   7.830  0.00  0.00    -0.379 N 
HETATM   18  C   UNK N   1      32.265  15.713   8.726  0.00  0.00     0.125 C 
HETATM   19  C   UNK N   1      32.608  14.449   7.932  0.00  0.00     0.055 C 
HETATM   20  C   UNK N   1      33.934  14.598   7.139  0.00  0.00     0.226 C 
HETATM   21  C   UNK N   1      34.145  15.976   6.475  0.00  0.00     0.055 C 
HETATM   22  C   UNK N   1      33.732  17.119   7.406  0.00  0.00     0.125 C 
BRANCH  20  23
HETATM   23  N   UNK N   1      35.128  14.157   7.861  0.00  0.00     0.096 N 
HETATM   24  C   UNK N   1      36.261  14.065   6.939  0.00  0.00     0.303 C 
HETATM   25  C   UNK N   1      37.520  13.724   7.729  0.00  0.00     0.302 C 
HETATM   26  N   UNK N   1      37.339  12.456   8.438  0.00  0.00     0.087 N 
HETATM   27  C   UNK N   1      36.187  12.546   9.336  0.00  0.00     0.302 C 
HETATM   28  C   UNK N   1      38.511  12.268   9.272  0.00  0.00     0.310 C 
HETATM   29  C   UNK N   1      34.932  12.873   8.535  0.00  0.00     0.303 C 
ENDBRANCH  20  23
ENDBRANCH  14  17
BRANCH  15  30
HETATM   30  O   UNK N   1      29.679  17.323   8.691  0.00  0.00    -0.354 OA
HETATM   31  C   UNK N   1      29.526  18.414   9.516  0.00  0.00     0.210 C 
ENDBRANCH  15  30
ENDBRANCH   9  11
ENDBRANCH   5   9
BRANCH   6  32
HETATM   32  C   UNK N   1      26.574  20.198   5.602  0.00  0.00     0.269 C 
HETATM   33  O   UNK N   1      27.171  20.984   4.884  0.00  0.00    -0.266 OA
HETATM   34  N   UNK N   1      26.355  20.525   6.891  0.00  0.00    -0.365 N 
HETATM   35  H   UNK N   1      26.857  21.254   7.323  0.00  0.00     0.159 HD
HETATM   36  H   UNK N   1      25.682  20.028   7.409  0.00  0.00     0.159 HD
ENDBRANCH   6  32
BRANCH   2  37
HETATM   37  N   UNK N   1      24.720  15.218   3.586  0.00  0.00    -0.370 N 
HETATM   38  H   UNK N   1      24.827  14.424   4.159  0.00  0.00     0.161 HD
BRANCH  37  39
HETATM   39  C   UNK N   1      24.092  15.048   2.290  0.00  0.00     0.087 C 
HETATM   40  C   UNK N   1      22.584  14.873   2.465  0.00  0.00     0.051 C 
HETATM   41  C   UNK N   1      21.961  14.565   1.098  0.00  0.00     0.169 C 
HETATM   42  O   UNK N   1      22.515  13.381   0.573  0.00  0.00    -0.391 OA
HETATM   43  C   UNK N   1      23.851  13.671   0.246  0.00  0.00     0.169 C 
HETATM   44  C   UNK N   1      24.655  13.846   1.533  0.00  0.00     0.051 C 
ENDBRANCH  37  39
ENDBRANCH   2  37
BRANCH   1  45
HETATM   45  C   UNK N   1      22.964  16.896   5.209  0.00  0.00     0.056 C 
HETATM   46  C   UNK N   1      22.952  15.972   6.411  0.00  0.00     0.011 C 
ENDBRANCH   1  45
TORSDOF 9
ENDMDL
MODEL 8
REMARK VINA RESULT:      -7.6      5.626     12.690
REMARK  9 active torsions:
REMARK  status: ('A' for Active; 'I' for Inactive)
REMARK    1  A    between atoms: C_2  and  C_3 
REMARK    2  A    between atoms: C_4  and  N_36 
REMARK    3  A    between atoms: C_7  and  N_14 
REMARK    4  A    between atoms: C_8  and  C_11 
REMARK       I    between atoms: C_11  and  N_13 
REMARK    5  A    between atoms: N_14  and  C_15 
REMARK    6  A    between atoms: C_18  and  N_23 
REMARK    7  A    between atoms: C_19  and  O_21 
REMARK    8  A    between atoms: C_26  and  N_29 
REMARK    9  A    between atoms: N_36  and  C_37 
ROOT
HETATM    1  C   UNK N   1      22.234  17.096   4.183  0.00  0.00     0.053 A 
HETATM    2  C   UNK N   1      22.991  16.475   5.189  0.00  0.00     0.126 A 
HETATM    3  N   UNK N   1      24.172  17.031   5.554  0.00  0.00    -0.325 N 
ATOM      4  HN  UNK N   1      24.722  16.580   6.286  1.00  0.00     0.169 HD
HETATM    5  C   UNK N   1      24.651  18.169   4.980  0.00  0.00     0.140 A 
HETATM    6  C   UNK N   1      23.917  18.767   3.935  0.00  0.00     0.145 A 
HETATM    7  N   UNK N   1      22.724  18.212   3.579  0.00  0.00    -0.349 N 
ATOM      8  HN  UNK N   1      22.181  18.648   2.834  1.00  0.00     0.166 HD
ENDROOT
BRANCH   5   9
HETATM    9  N   UNK N   1      25.828  18.780   5.497  0.00  0.00    -0.340 N 
HETATM   10  H   UNK N   1      25.742  19.599   6.037  0.00  0.00     0.167 HD
BRANCH   9  11
HETATM   11  C   UNK N   1      27.124  18.249   5.257  0.00  0.00     0.036 A 
HETATM   12  C   UNK N   1      28.168  18.502   6.147  0.00  0.00     0.032 A 
HETATM   13  C   UNK N   1      29.426  17.974   5.939  0.00  0.00     0.034 A 
HETATM   14  C   UNK N   1      29.695  17.179   4.821  0.00  0.00     0.064 A 
HETATM   15  C   UNK N   1      28.663  16.972   3.862  0.00  0.00     0.096 A 
HETATM   16  C   UNK N   1      27.382  17.515   4.098  0.00  0.00     0.068 A 
BRANCH  14  17
HETATM   17  N   UNK N   1      30.978  16.539   4.722  0.00  0.00    -0.379 N 
HETATM   18  C   UNK N   1      32.152  17.277   5.133  0.00  0.00     0.125 C 
HETATM   19  C   UNK N   1      32.233  17.207   6.660  0.00  0.00     0.055 C 
HETATM   20  C   UNK N   1      32.076  15.758   7.190  0.00  0.00     0.226 C 
HETATM   21  C   UNK N   1      31.011  14.910   6.461  0.00  0.00     0.055 C 
HETATM   22  C   UNK N   1      31.063  15.120   4.946  0.00  0.00     0.125 C 
BRANCH  20  23
HETATM   23  N   UNK N   1      33.334  15.026   7.348  0.00  0.00     0.096 N 
HETATM   24  C   UNK N   1      33.066  13.682   7.861  0.00  0.00     0.303 C 
HETATM   25  C   UNK N   1      34.373  12.896   7.902  0.00  0.00     0.302 C 
HETATM   26  N   UNK N   1      35.343  13.581   8.757  0.00  0.00     0.087 N 
HETATM   27  C   UNK N   1      35.583  14.935   8.255  0.00  0.00     0.302 C 
HETATM   28  C   UNK N   1      36.595  12.859   8.637  0.00  0.00     0.310 C 
HETATM   29  C   UNK N   1      34.275  15.716   8.232  0.00  0.00     0.303 C 
ENDBRANCH  20  23
ENDBRANCH  14  17
BRANCH  15  30
HETATM   30  O   UNK N   1      28.910  16.256   2.738  0.00  0.00    -0.354 OA
HETATM   31  C   UNK N   1      28.107  15.229   2.297  0.00  0.00     0.210 C 
ENDBRANCH  15  30
ENDBRANCH   9  11
ENDBRANCH   5   9
BRANCH   6  32
HETATM   32  C   UNK N   1      24.361  20.011   3.248  0.00  0.00     0.269 C 
HETATM   33  O   UNK N   1      25.551  20.196   3.052  0.00  0.00    -0.266 OA
HETATM   34  N   UNK N   1      23.477  20.947   2.846  0.00  0.00    -0.365 N 
HETATM   35  H   UNK N   1      23.771  21.859   2.621  0.00  0.00     0.159 HD
HETATM   36  H   UNK N   1      22.524  20.714   2.777  0.00  0.00     0.159 HD
ENDBRANCH   6  32
BRANCH   2  37
HETATM   37  N   UNK N   1      22.511  15.307   5.847  0.00  0.00    -0.370 N 
HETATM   38  H   UNK N   1      22.547  14.449   5.364  0.00  0.00     0.161 HD
BRANCH  37  39
HETATM   39  C   UNK N   1      21.974  15.315   7.193  0.00  0.00     0.087 C 
HETATM   40  C   UNK N   1      21.975  13.895   7.759  0.00  0.00     0.051 C 
HETATM   41  C   UNK N   1      21.283  13.908   9.127  0.00  0.00     0.169 C 
HETATM   42  O   UNK N   1      19.956  14.359   8.991  0.00  0.00    -0.391 OA
HETATM   43  C   UNK N   1      20.025  15.725   8.666  0.00  0.00     0.169 C 
HETATM   44  C   UNK N   1      20.552  15.875   7.240  0.00  0.00     0.051 C 
ENDBRANCH  37  39
ENDBRANCH   2  37
BRANCH   1  45
HETATM   45  C   UNK N   1      20.887  16.584   3.783  0.00  0.00     0.056 C 
HETATM   46  C   UNK N   1      20.771  16.436   2.278  0.00  0.00     0.011 C 
ENDBRANCH   1  45
TORSDOF 9
ENDMDL
MODEL 9
REMARK VINA RESULT:      -7.6      3.914     11.485
REMARK  9 active torsions:
REMARK  status: ('A' for Active; 'I' for Inactive)
REMARK    1  A    between atoms: C_2  and  C_3 
REMARK    2  A    between atoms: C_4  and  N_36 
REMARK    3  A    between atoms: C_7  and  N_14 
REMARK    4  A    between atoms: C_8  and  C_11 
REMARK       I    between atoms: C_11  and  N_13 
REMARK    5  A    between atoms: N_14  and  C_15 
REMARK    6  A    between atoms: C_18  and  N_23 
REMARK    7  A    between atoms: C_19  and  O_21 
REMARK    8  A    between atoms: C_26  and  N_29 
REMARK    9  A    between atoms: N_36  and  C_37 
ROOT
HETATM    1  C   UNK N   1      25.184  17.505   4.507  0.00  0.00     0.053 A 
HETATM    2  C   UNK N   1      26.105  16.945   3.607  0.00  0.00     0.126 A 
HETATM    3  N   UNK N   1      27.378  17.408   3.605  0.00  0.00    -0.325 N 
ATOM      4  HN  UNK N   1      28.048  17.000   2.952  1.00  0.00     0.169 HD
HETATM    5  C   UNK N   1      27.797  18.396   4.443  0.00  0.00     0.140 A 
HETATM    6  C   UNK N   1      26.862  18.995   5.313  0.00  0.00     0.145 A 
HETATM    7  N   UNK N   1      25.585  18.519   5.321  0.00  0.00    -0.349 N 
ATOM      8  HN  UNK N   1      24.908  18.938   5.958  1.00  0.00     0.166 HD
ENDROOT
BRANCH   5   9
HETATM    9  N   UNK N   1      29.176  18.746   4.491  0.00  0.00    -0.340 N 
HETATM   10  H   UNK N   1      29.452  19.640   4.186  0.00  0.00     0.167 HD
BRANCH   9  11
HETATM   11  C   UNK N   1      30.169  17.844   4.961  0.00  0.00     0.036 A 
HETATM   12  C   UNK N   1      30.176  17.433   6.295  0.00  0.00     0.032 A 
HETATM   13  C   UNK N   1      31.120  16.540   6.760  0.00  0.00     0.034 A 
HETATM   14  C   UNK N   1      32.106  16.030   5.911  0.00  0.00     0.064 A 
HETATM   15  C   UNK N   1      32.161  16.495   4.566  0.00  0.00     0.096 A 
HETATM   16  C   UNK N   1      31.183  17.403   4.109  0.00  0.00     0.068 A 
BRANCH  14  17
HETATM   17  N   UNK N   1      32.978  15.000   6.406  0.00  0.00    -0.379 N 
HETATM   18  C   UNK N   1      34.391  15.285   6.516  0.00  0.00     0.125 C 
HETATM   19  C   UNK N   1      34.605  16.087   7.803  0.00  0.00     0.055 C 
HETATM   20  C   UNK N   1      33.909  15.431   9.024  0.00  0.00     0.226 C 
HETATM   21  C   UNK N   1      32.511  14.841   8.737  0.00  0.00     0.055 C 
HETATM   22  C   UNK N   1      32.478  14.091   7.404  0.00  0.00     0.125 C 
BRANCH  20  23
HETATM   23  N   UNK N   1      34.747  14.495   9.774  0.00  0.00     0.096 N 
HETATM   24  C   UNK N   1      34.346  14.486  11.182  0.00  0.00     0.303 C 
HETATM   25  C   UNK N   1      35.147  13.419  11.921  0.00  0.00     0.302 C 
HETATM   26  N   UNK N   1      36.580  13.696  11.803  0.00  0.00     0.087 N 
HETATM   27  C   UNK N   1      36.967  13.733  10.392  0.00  0.00     0.302 C 
HETATM   28  C   UNK N   1      37.276  12.574  12.403  0.00  0.00     0.310 C 
HETATM   29  C   UNK N   1      36.172  14.812   9.667  0.00  0.00     0.303 C 
ENDBRANCH  20  23
ENDBRANCH  14  17
BRANCH  15  30
HETATM   30  O   UNK N   1      33.143  16.065   3.736  0.00  0.00    -0.354 OA
HETATM   31  C   UNK N   1      33.032  14.947   2.941  0.00  0.00     0.210 C 
ENDBRANCH  15  30
ENDBRANCH   9  11
ENDBRANCH   5   9
BRANCH   6  32
HETATM   32  C   UNK N   1      27.228  20.080   6.264  0.00  0.00     0.269 C 
HETATM   33  O   UNK N   1      27.860  19.808   7.272  0.00  0.00    -0.266 OA
HETATM   34  N   UNK N   1      26.867  21.361   6.042  0.00  0.00    -0.365 N 
HETATM   35  H   UNK N   1      26.888  22.027   6.767  0.00  0.00     0.159 HD
HETATM   36  H   UNK N   1      26.577  21.633   5.142  0.00  0.00     0.159 HD
ENDBRANCH   6  32
BRANCH   2  37
HETATM   37  N   UNK N   1      25.723  15.881   2.741  0.00  0.00    -0.370 N 
HETATM   38  H   UNK N   1      25.047  16.061   2.048  0.00  0.00     0.161 HD
BRANCH  37  39
HETATM   39  C   UNK N   1      26.281  14.546   2.825  0.00  0.00     0.087 C 
HETATM   40  C   UNK N   1      26.573  14.199   4.285  0.00  0.00     0.051 C 
HETATM   41  C   UNK N   1      27.281  12.840   4.337  0.00  0.00     0.169 C 
HETATM   42  O   UNK N   1      28.489  12.899   3.617  0.00  0.00    -0.391 OA
HETATM   43  C   UNK N   1      28.145  13.017   2.259  0.00  0.00     0.169 C 
HETATM   44  C   UNK N   1      27.565  14.407   2.008  0.00  0.00     0.051 C 
ENDBRANCH  37  39
ENDBRANCH   2  37
BRANCH   1  45
HETATM   45  C   UNK N   1      23.783  16.994   4.620  0.00  0.00     0.056 C 
HETATM   46  C   UNK N   1      23.627  16.051   5.797  0.00  0.00     0.011 C 
ENDBRANCH   1  45
TORSDOF 9
ENDMDL
