MODEL 1
REMARK VINA RESULT:      -7.5      0.000      0.000
REMARK  14 active torsions:
REMARK  status: ('A' for Active; 'I' for Inactive)
REMARK    1  A    between atoms: C_2  and  C_4 
REMARK    2  A    between atoms: C_4  and  N_5 
REMARK    3  A    between atoms: N_5  and  C_6 
REMARK       I    between atoms: N_5  and  C_39 
REMARK    4  A    between atoms: C_6  and  C_7 
REMARK    5  A    between atoms: C_7  and  C_8 
REMARK    6  A    between atoms: C_8  and  C_9 
REMARK    7  A    between atoms: C_8  and  N_16 
REMARK    8  A    between atoms: C_9  and  C_10 
REMARK       I    between atoms: N_16  and  C_17 
REMARK    9  A    between atoms: C_17  and  C_19 
REMARK   10  A    between atoms: C_19  and  C_20 
REMARK   11  A    between atoms: C_19  and  N_24 
REMARK   12  A    between atoms: C_20  and  C_21 
REMARK       I    between atoms: C_21  and  N_23 
REMARK       I    between atoms: N_24  and  C_25 
REMARK   13  A    between atoms: C_25  and  C_27 
REMARK       I    between atoms: C_39  and  N_41 
REMARK   14  A    between atoms: N_41  and  C_42 
ROOT
HETATM    1  C   UNK N   1      21.726  16.771   5.816  0.00  0.00     0.159 C 
HETATM    2  O   UNK N   1      22.118  17.965   6.431  0.00  0.00    -0.392 OA
HETATM    3  H   UNK N   1      22.260  18.836   6.833  0.00  0.00     0.210 HD
ENDROOT
BRANCH   1   4
HETATM    4  C   UNK N   1      20.717  15.893   6.521  0.00  0.00     0.161 C 
BRANCH   4   5
HETATM    5  N   UNK N   1      21.105  15.365   7.829  0.00  0.00    -0.331 N 
HETATM    6  C   UNK N   1      21.992  14.326   8.010  0.00  0.00     0.319 C 
HETATM    7  O   UNK N   1      22.542  13.807   7.053  0.00  0.00    -0.247 OA
HETATM    8  N   UNK N   1      22.259  13.869   9.265  0.00  0.00    -0.335 N 
HETATM    9  H   UNK N   1      21.815  14.341  10.006  0.00  0.00     0.165 HD
BRANCH   5  10
HETATM   10  C   UNK N   1      20.481  15.967   8.997  0.00  0.00     0.131 C 
BRANCH  10  11
HETATM   11  C   UNK N   1      19.391  16.984   8.633  0.00  0.00    -0.005 C 
HETATM   12  C   UNK N   1      18.075  16.570   9.253  0.00  0.00     0.011 C 
HETATM   13  C   UNK N   1      19.753  18.382   9.098  0.00  0.00     0.011 C 
ENDBRANCH  10  11
ENDBRANCH   5  10
BRANCH   8  14
HETATM   14  C   UNK N   1      23.131  12.756   9.637  0.00  0.00     0.023 C 
HETATM   15  C   UNK N   1      22.823  12.363  11.065  0.00  0.00     0.037 C 
HETATM   16  C   UNK N   1      24.568  13.225   9.561  0.00  0.00     0.037 C 
HETATM   17  C   UNK N   1      23.001  11.502   8.778  0.00  0.00     0.037 C 
ENDBRANCH   8  14
ENDBRANCH   4   5
ENDBRANCH   1   4
BRANCH   1  18
HETATM   18  C   UNK N   1      22.450  16.270   4.581  0.00  0.00     0.119 C 
BRANCH  18  19
HETATM   19  C   UNK N   1      21.626  15.157   3.924  0.00  0.00     0.066 C 
BRANCH  19  20
HETATM   20  C   UNK N   1      20.899  15.610   2.697  0.00  0.00    -0.056 A 
HETATM   21  C   UNK N   1      20.877  16.974   2.388  0.00  0.00     0.007 A 
HETATM   22  C   UNK N   1      20.231  17.423   1.232  0.00  0.00     0.001 A 
HETATM   23  C   UNK N   1      19.605  16.508   0.380  0.00  0.00     0.000 A 
HETATM   24  C   UNK N   1      19.629  15.144   0.680  0.00  0.00     0.001 A 
HETATM   25  C   UNK N   1      20.277  14.695   1.834  0.00  0.00     0.007 A 
ENDBRANCH  19  20
ENDBRANCH  18  19
BRANCH  18  26
HETATM   26  N   UNK N   1      23.748  15.877   5.070  0.00  0.00    -0.352 N 
HETATM   27  C   UNK N   1      24.878  16.611   5.138  0.00  0.00     0.241 C 
HETATM   28  O   UNK N   1      24.863  17.824   4.994  0.00  0.00    -0.271 OA
HETATM   29  H   UNK N   1      23.819  14.951   5.397  0.00  0.00     0.163 HD
BRANCH  27  30
HETATM   30  C   UNK N   1      26.185  15.894   5.229  0.00  0.00     0.185 C 
BRANCH  30  31
HETATM   31  C   UNK N   1      26.696  15.950   6.680  0.00  0.00     0.137 C 
BRANCH  31  32
HETATM   32  C   UNK N   1      27.846  16.898   6.938  0.00  0.00     0.217 C 
HETATM   33  O   UNK N   1      28.987  16.609   6.617  0.00  0.00    -0.274 OA
HETATM   34  N   UNK N   1      27.603  18.092   7.506  0.00  0.00    -0.370 N 
HETATM   35  H   UNK N   1      26.838  18.250   8.107  0.00  0.00     0.159 HD
HETATM   36  H   UNK N   1      28.216  18.839   7.316  0.00  0.00     0.159 HD
ENDBRANCH  31  32
ENDBRANCH  30  31
BRANCH  30  37
HETATM   37  N   UNK N   1      27.197  16.398   4.326  0.00  0.00    -0.342 N 
HETATM   38  C   UNK N   1      27.612  15.719   3.227  0.00  0.00     0.268 C 
HETATM   39  O   UNK N   1      28.661  16.049   2.694  0.00  0.00    -0.266 OA
HETATM   40  H   UNK N   1      27.603  17.274   4.518  0.00  0.00     0.163 HD
BRANCH  38  41
HETATM   41  C   UNK N   1      26.828  14.600   2.651  0.00  0.00     0.101 A 
HETATM   42  C   UNK N   1      27.330  13.291   2.683  0.00  0.00     0.036 A 
HETATM   43  C   UNK N   1      26.602  12.258   2.087  0.00  0.00     0.016 A 
HETATM   44  C   UNK N   1      25.408  12.546   1.429  0.00  0.00    -0.009 A 
HETATM   45  C   UNK N   1      24.681  11.538   0.794  0.00  0.00     0.013 A 
HETATM   46  C   UNK N   1      24.945  13.877   1.391  0.00  0.00     0.043 A 
HETATM   47  C   UNK N   1      23.502  11.854   0.110  0.00  0.00     0.001 A 
HETATM   48  C   UNK N   1      23.050  13.179   0.060  0.00  0.00     0.002 A 
HETATM   49  C   UNK N   1      23.770  14.189   0.705  0.00  0.00     0.030 A 
HETATM   50  N   UNK N   1      25.653  14.854   2.009  0.00  0.00    -0.351 N 
ATOM     51  HN  UNK N   1      25.297  15.810   1.991  1.00  0.00     0.166 HD
ENDBRANCH  38  41
ENDBRANCH  30  37
ENDBRANCH  27  30
ENDBRANCH  18  26
ENDBRANCH   1  18
TORSDOF 14
ENDMDL
MODEL 2
REMARK VINA RESULT:      -7.4     13.631     17.159
REMARK  14 active torsions:
REMARK  status: ('A' for Active; 'I' for Inactive)
REMARK    1  A    between atoms: C_2  and  C_4 
REMARK    2  A    between atoms: C_4  and  N_5 
REMARK    3  A    between atoms: N_5  and  C_6 
REMARK       I    between atoms: N_5  and  C_39 
REMARK    4  A    between atoms: C_6  and  C_7 
REMARK    5  A    between atoms: C_7  and  C_8 
REMARK    6  A    between atoms: C_8  and  C_9 
REMARK    7  A    between atoms: C_8  and  N_16 
REMARK    8  A    between atoms: C_9  and  C_10 
REMARK       I    between atoms: N_16  and  C_17 
REMARK    9  A    between atoms: C_17  and  C_19 
REMARK   10  A    between atoms: C_19  and  C_20 
REMARK   11  A    between atoms: C_19  and  N_24 
REMARK   12  A    between atoms: C_20  and  C_21 
REMARK       I    between atoms: C_21  and  N_23 
REMARK       I    between atoms: N_24  and  C_25 
REMARK   13  A    between atoms: C_25  and  C_27 
REMARK       I    between atoms: C_39  and  N_41 
REMARK   14  A    between atoms: N_41  and  C_42 
ROOT
HETATM    1  C   UNK N   1      29.998  23.252  -3.617  0.00  0.00     0.159 C 
HETATM    2  O   UNK N   1      30.598  23.532  -2.385  0.00  0.00    -0.392 OA
HETATM    3  H   UNK N   1      30.907  23.658  -1.474  0.00  0.00     0.210 HD
ENDROOT
BRANCH   1   4
HETATM    4  C   UNK N   1      29.955  21.817  -4.089  0.00  0.00     0.161 C 
BRANCH   4   5
HETATM    5  N   UNK N   1      30.925  21.433  -5.116  0.00  0.00    -0.331 N 
HETATM    6  C   UNK N   1      30.588  20.839  -6.313  0.00  0.00     0.319 C 
HETATM    7  O   UNK N   1      29.420  20.635  -6.596  0.00  0.00    -0.247 OA
HETATM    8  N   UNK N   1      31.564  20.474  -7.191  0.00  0.00    -0.335 N 
HETATM    9  H   UNK N   1      32.489  20.689  -6.930  0.00  0.00     0.165 HD
BRANCH   5  10
HETATM   10  C   UNK N   1      32.329  21.674  -4.821  0.00  0.00     0.131 C 
BRANCH  10  11
HETATM   11  C   UNK N   1      32.952  20.576  -3.951  0.00  0.00    -0.005 C 
HETATM   12  C   UNK N   1      34.165  19.997  -4.646  0.00  0.00     0.011 C 
HETATM   13  C   UNK N   1      33.354  21.104  -2.586  0.00  0.00     0.011 C 
ENDBRANCH  10  11
ENDBRANCH   5  10
BRANCH   8  14
HETATM   14  C   UNK N   1      31.393  19.798  -8.475  0.00  0.00     0.023 C 
HETATM   15  C   UNK N   1      32.703  19.138  -8.845  0.00  0.00     0.037 C 
HETATM   16  C   UNK N   1      31.059  20.836  -9.524  0.00  0.00     0.037 C 
HETATM   17  C   UNK N   1      30.312  18.723  -8.516  0.00  0.00     0.037 C 
ENDBRANCH   8  14
ENDBRANCH   4   5
ENDBRANCH   1   4
BRANCH   1  18
HETATM   18  C   UNK N   1      29.592  24.379  -4.547  0.00  0.00     0.119 C 
BRANCH  18  19
HETATM   19  C   UNK N   1      29.430  25.673  -3.740  0.00  0.00     0.066 C 
BRANCH  19  20
HETATM   20  C   UNK N   1      30.276  26.796  -4.252  0.00  0.00    -0.056 A 
HETATM   21  C   UNK N   1      30.636  27.826  -3.378  0.00  0.00     0.007 A 
HETATM   22  C   UNK N   1      31.450  28.872  -3.821  0.00  0.00     0.001 A 
HETATM   23  C   UNK N   1      31.909  28.891  -5.142  0.00  0.00     0.000 A 
HETATM   24  C   UNK N   1      31.557  27.862  -6.019  0.00  0.00     0.001 A 
HETATM   25  C   UNK N   1      30.745  26.814  -5.575  0.00  0.00     0.007 A 
ENDBRANCH  19  20
ENDBRANCH  18  19
BRANCH  18  26
HETATM   26  N   UNK N   1      28.396  23.892  -5.189  0.00  0.00    -0.352 N 
HETATM   27  C   UNK N   1      28.127  23.803  -6.507  0.00  0.00     0.241 C 
HETATM   28  O   UNK N   1      29.005  23.921  -7.349  0.00  0.00    -0.271 OA
HETATM   29  H   UNK N   1      27.682  23.584  -4.584  0.00  0.00     0.163 HD
BRANCH  27  30
HETATM   30  C   UNK N   1      26.699  23.720  -6.936  0.00  0.00     0.185 C 
BRANCH  30  31
HETATM   31  C   UNK N   1      26.288  22.241  -7.055  0.00  0.00     0.137 C 
BRANCH  31  32
HETATM   32  C   UNK N   1      24.849  21.986  -7.444  0.00  0.00     0.217 C 
HETATM   33  O   UNK N   1      24.389  22.427  -8.485  0.00  0.00    -0.274 OA
HETATM   34  N   UNK N   1      24.070  21.237  -6.644  0.00  0.00    -0.370 N 
HETATM   35  H   UNK N   1      24.220  21.163  -5.674  0.00  0.00     0.159 HD
HETATM   36  H   UNK N   1      23.319  20.742  -7.045  0.00  0.00     0.159 HD
ENDBRANCH  31  32
ENDBRANCH  30  31
BRANCH  30  37
HETATM   37  N   UNK N   1      26.414  24.416  -8.172  0.00  0.00    -0.342 N 
HETATM   38  C   UNK N   1      25.999  25.707  -8.215  0.00  0.00     0.268 C 
HETATM   39  O   UNK N   1      25.492  26.126  -9.244  0.00  0.00    -0.266 OA
HETATM   40  H   UNK N   1      26.527  23.930  -9.021  0.00  0.00     0.163 HD
BRANCH  38  41
HETATM   41  C   UNK N   1      26.152  26.622  -7.058  0.00  0.00     0.101 A 
HETATM   42  C   UNK N   1      25.243  26.574  -5.991  0.00  0.00     0.036 A 
HETATM   43  C   UNK N   1      25.371  27.479  -4.935  0.00  0.00     0.016 A 
HETATM   44  C   UNK N   1      26.372  28.448  -4.974  0.00  0.00    -0.009 A 
HETATM   45  C   UNK N   1      26.498  29.388  -3.949  0.00  0.00     0.013 A 
HETATM   46  C   UNK N   1      27.252  28.486  -6.074  0.00  0.00     0.043 A 
HETATM   47  C   UNK N   1      27.489  30.374  -4.025  0.00  0.00     0.001 A 
HETATM   48  C   UNK N   1      28.353  30.420  -5.126  0.00  0.00     0.002 A 
HETATM   49  C   UNK N   1      28.238  29.473  -6.148  0.00  0.00     0.030 A 
HETATM   50  N   UNK N   1      27.127  27.572  -7.069  0.00  0.00    -0.351 N 
ATOM     51  HN  UNK N   1      27.783  27.599  -7.849  1.00  0.00     0.166 HD
ENDBRANCH  38  41
ENDBRANCH  30  37
ENDBRANCH  27  30
ENDBRANCH  18  26
ENDBRANCH   1  18
TORSDOF 14
ENDMDL
MODEL 3
REMARK VINA RESULT:      -7.4     13.887     16.812
REMARK  14 active torsions:
REMARK  status: ('A' for Active; 'I' for Inactive)
REMARK    1  A    between atoms: C_2  and  C_4 
REMARK    2  A    between atoms: C_4  and  N_5 
REMARK    3  A    between atoms: N_5  and  C_6 
REMARK       I    between atoms: N_5  and  C_39 
REMARK    4  A    between atoms: C_6  and  C_7 
REMARK    5  A    between atoms: C_7  and  C_8 
REMARK    6  A    between atoms: C_8  and  C_9 
REMARK    7  A    between atoms: C_8  and  N_16 
REMARK    8  A    between atoms: C_9  and  C_10 
REMARK       I    between atoms: N_16  and  C_17 
REMARK    9  A    between atoms: C_17  and  C_19 
REMARK   10  A    between atoms: C_19  and  C_20 
REMARK   11  A    between atoms: C_19  and  N_24 
REMARK   12  A    between atoms: C_20  and  C_21 
REMARK       I    between atoms: C_21  and  N_23 
REMARK       I    between atoms: N_24  and  C_25 
REMARK   13  A    between atoms: C_25  and  C_27 
REMARK       I    between atoms: C_39  and  N_41 
REMARK   14  A    between atoms: N_41  and  C_42 
ROOT
HETATM    1  C   UNK N   1      27.483  24.504  -3.729  0.00  0.00     0.159 C 
HETATM    2  O   UNK N   1      26.387  24.001  -3.021  0.00  0.00    -0.392 OA
HETATM    3  H   UNK N   1      25.654  23.531  -2.592  0.00  0.00     0.210 HD
ENDROOT
BRANCH   1   4
HETATM    4  C   UNK N   1      28.866  24.016  -3.359  0.00  0.00     0.161 C 
BRANCH   4   5
HETATM    5  N   UNK N   1      29.943  24.315  -4.303  0.00  0.00    -0.331 N 
HETATM    6  C   UNK N   1      30.105  23.682  -5.516  0.00  0.00     0.319 C 
HETATM    7  O   UNK N   1      29.304  22.841  -5.888  0.00  0.00    -0.247 OA
HETATM    8  N   UNK N   1      31.166  23.994  -6.312  0.00  0.00    -0.335 N 
HETATM    9  H   UNK N   1      31.765  24.703  -5.983  0.00  0.00     0.165 HD
BRANCH   5  10
HETATM   10  C   UNK N   1      30.912  25.325  -3.903  0.00  0.00     0.131 C 
BRANCH  10  11
HETATM   11  C   UNK N   1      30.373  26.754  -4.037  0.00  0.00    -0.005 C 
HETATM   12  C   UNK N   1      30.943  27.624  -2.938  0.00  0.00     0.011 C 
HETATM   13  C   UNK N   1      30.714  27.356  -5.388  0.00  0.00     0.011 C 
ENDBRANCH  10  11
ENDBRANCH   5  10
BRANCH   8  14
HETATM   14  C   UNK N   1      31.515  23.397  -7.599  0.00  0.00     0.023 C 
HETATM   15  C   UNK N   1      32.706  24.140  -8.164  0.00  0.00     0.037 C 
HETATM   16  C   UNK N   1      30.344  23.567  -8.542  0.00  0.00     0.037 C 
HETATM   17  C   UNK N   1      31.876  21.915  -7.562  0.00  0.00     0.037 C 
ENDBRANCH   8  14
ENDBRANCH   4   5
ENDBRANCH   1   4
BRANCH   1  18
HETATM   18  C   UNK N   1      27.310  25.661  -4.693  0.00  0.00     0.119 C 
BRANCH  18  19
HETATM   19  C   UNK N   1      26.328  26.677  -4.099  0.00  0.00     0.066 C 
BRANCH  19  20
HETATM   20  C   UNK N   1      26.873  28.070  -4.064  0.00  0.00    -0.056 A 
HETATM   21  C   UNK N   1      27.176  28.648  -2.826  0.00  0.00     0.007 A 
HETATM   22  C   UNK N   1      27.714  29.936  -2.765  0.00  0.00     0.001 A 
HETATM   23  C   UNK N   1      27.953  30.652  -3.942  0.00  0.00     0.000 A 
HETATM   24  C   UNK N   1      27.658  30.079  -5.181  0.00  0.00     0.001 A 
HETATM   25  C   UNK N   1      27.122  28.789  -5.243  0.00  0.00     0.007 A 
ENDBRANCH  19  20
ENDBRANCH  18  19
BRANCH  18  26
HETATM   26  N   UNK N   1      26.890  25.035  -5.922  0.00  0.00    -0.352 N 
HETATM   27  C   UNK N   1      27.213  25.368  -7.188  0.00  0.00     0.241 C 
HETATM   28  O   UNK N   1      28.127  26.140  -7.434  0.00  0.00    -0.271 OA
HETATM   29  H   UNK N   1      26.289  24.261  -5.823  0.00  0.00     0.163 HD
BRANCH  27  30
HETATM   30  C   UNK N   1      26.322  24.903  -8.294  0.00  0.00     0.185 C 
BRANCH  30  31
HETATM   31  C   UNK N   1      25.713  26.126  -9.004  0.00  0.00     0.137 C 
BRANCH  31  32
HETATM   32  C   UNK N   1      25.242  25.896 -10.423  0.00  0.00     0.217 C 
HETATM   33  O   UNK N   1      24.313  25.143 -10.666  0.00  0.00    -0.274 OA
HETATM   34  N   UNK N   1      25.839  26.553 -11.432  0.00  0.00    -0.370 N 
HETATM   35  H   UNK N   1      26.773  26.862 -11.387  0.00  0.00     0.159 HD
HETATM   36  H   UNK N   1      25.322  26.733 -12.251  0.00  0.00     0.159 HD
ENDBRANCH  31  32
ENDBRANCH  30  31
BRANCH  30  37
HETATM   37  N   UNK N   1      25.275  24.002  -7.866  0.00  0.00    -0.342 N 
HETATM   38  C   UNK N   1      25.223  22.698  -8.237  0.00  0.00     0.268 C 
HETATM   39  O   UNK N   1      24.173  22.089  -8.098  0.00  0.00    -0.266 OA
HETATM   40  H   UNK N   1      24.567  24.351  -7.277  0.00  0.00     0.163 HD
BRANCH  38  41
HETATM   41  C   UNK N   1      26.401  21.992  -8.795  0.00  0.00     0.101 A 
HETATM   42  C   UNK N   1      26.679  22.049 -10.169  0.00  0.00     0.036 A 
HETATM   43  C   UNK N   1      27.761  21.334 -10.685  0.00  0.00     0.016 A 
HETATM   44  C   UNK N   1      28.528  20.535  -9.838  0.00  0.00    -0.009 A 
HETATM   45  C   UNK N   1      29.592  19.781 -10.334  0.00  0.00     0.013 A 
HETATM   46  C   UNK N   1      28.205  20.478  -8.466  0.00  0.00     0.043 A 
HETATM   47  C   UNK N   1      30.327  18.960  -9.472  0.00  0.00     0.001 A 
HETATM   48  C   UNK N   1      29.997  18.892  -8.113  0.00  0.00     0.002 A 
HETATM   49  C   UNK N   1      28.939  19.654  -7.609  0.00  0.00     0.030 A 
HETATM   50  N   UNK N   1      27.171  21.211  -7.986  0.00  0.00    -0.351 N 
ATOM     51  HN  UNK N   1      26.961  21.176  -6.988  1.00  0.00     0.166 HD
ENDBRANCH  38  41
ENDBRANCH  30  37
ENDBRANCH  27  30
ENDBRANCH  18  26
ENDBRANCH   1  18
TORSDOF 14
ENDMDL
MODEL 4
REMARK VINA RESULT:      -7.3      2.947      7.199
REMARK  14 active torsions:
REMARK  status: ('A' for Active; 'I' for Inactive)
REMARK    1  A    between atoms: C_2  and  C_4 
REMARK    2  A    between atoms: C_4  and  N_5 
REMARK    3  A    between atoms: N_5  and  C_6 
REMARK       I    between atoms: N_5  and  C_39 
REMARK    4  A    between atoms: C_6  and  C_7 
REMARK    5  A    between atoms: C_7  and  C_8 
REMARK    6  A    between atoms: C_8  and  C_9 
REMARK    7  A    between atoms: C_8  and  N_16 
REMARK    8  A    between atoms: C_9  and  C_10 
REMARK       I    between atoms: N_16  and  C_17 
REMARK    9  A    between atoms: C_17  and  C_19 
REMARK   10  A    between atoms: C_19  and  C_20 
REMARK   11  A    between atoms: C_19  and  N_24 
REMARK   12  A    between atoms: C_20  and  C_21 
REMARK       I    between atoms: C_21  and  N_23 
REMARK       I    between atoms: N_24  and  C_25 
REMARK   13  A    between atoms: C_25  and  C_27 
REMARK       I    between atoms: C_39  and  N_41 
REMARK   14  A    between atoms: N_41  and  C_42 
ROOT
HETATM    1  C   UNK N   1      28.250  15.453   3.182  0.00  0.00     0.159 C 
HETATM    2  O   UNK N   1      29.206  14.446   3.009  0.00  0.00    -0.392 OA
HETATM    3  H   UNK N   1      29.911  13.821   2.779  0.00  0.00     0.210 HD
ENDROOT
BRANCH   1   4
HETATM    4  C   UNK N   1      28.720  16.833   3.584  0.00  0.00     0.161 C 
BRANCH   4   5
HETATM    5  N   UNK N   1      29.355  16.954   4.897  0.00  0.00    -0.331 N 
HETATM    6  C   UNK N   1      28.755  17.533   5.994  0.00  0.00     0.319 C 
HETATM    7  O   UNK N   1      27.611  17.950   5.927  0.00  0.00    -0.247 OA
HETATM    8  N   UNK N   1      29.441  17.645   7.166  0.00  0.00    -0.335 N 
HETATM    9  H   UNK N   1      30.349  17.264   7.178  0.00  0.00     0.165 HD
BRANCH   5  10
HETATM   10  C   UNK N   1      30.716  16.456   5.021  0.00  0.00     0.131 C 
BRANCH  10  11
HETATM   11  C   UNK N   1      31.766  17.457   4.522  0.00  0.00    -0.005 C 
HETATM   12  C   UNK N   1      32.930  17.504   5.488  0.00  0.00     0.011 C 
HETATM   13  C   UNK N   1      32.270  17.095   3.138  0.00  0.00     0.011 C 
ENDBRANCH  10  11
ENDBRANCH   5  10
BRANCH   8  14
HETATM   14  C   UNK N   1      28.981  18.265   8.406  0.00  0.00     0.023 C 
HETATM   15  C   UNK N   1      28.114  17.269   9.145  0.00  0.00     0.037 C 
HETATM   16  C   UNK N   1      28.142  19.475   8.058  0.00  0.00     0.037 C 
HETATM   17  C   UNK N   1      30.079  18.715   9.365  0.00  0.00     0.037 C 
ENDBRANCH   8  14
ENDBRANCH   4   5
ENDBRANCH   1   4
BRANCH   1  18
HETATM   18  C   UNK N   1      26.772  15.118   3.173  0.00  0.00     0.119 C 
BRANCH  18  19
HETATM   19  C   UNK N   1      26.380  14.574   1.793  0.00  0.00     0.066 C 
BRANCH  19  20
HETATM   20  C   UNK N   1      25.022  13.947   1.772  0.00  0.00    -0.056 A 
HETATM   21  C   UNK N   1      24.153  14.250   0.719  0.00  0.00     0.007 A 
HETATM   22  C   UNK N   1      22.889  13.656   0.657  0.00  0.00     0.001 A 
HETATM   23  C   UNK N   1      22.491  12.753   1.649  0.00  0.00     0.000 A 
HETATM   24  C   UNK N   1      23.357  12.442   2.700  0.00  0.00     0.001 A 
HETATM   25  C   UNK N   1      24.621  13.035   2.760  0.00  0.00     0.007 A 
ENDBRANCH  19  20
ENDBRANCH  18  19
BRANCH  18  26
HETATM   26  N   UNK N   1      26.129  16.348   3.562  0.00  0.00    -0.352 N 
HETATM   27  C   UNK N   1      25.105  16.526   4.422  0.00  0.00     0.241 C 
HETATM   28  O   UNK N   1      24.740  15.637   5.175  0.00  0.00    -0.271 OA
HETATM   29  H   UNK N   1      26.486  17.166   3.146  0.00  0.00     0.163 HD
BRANCH  27  30
HETATM   30  C   UNK N   1      24.307  17.785   4.323  0.00  0.00     0.185 C 
BRANCH  30  31
HETATM   31  C   UNK N   1      25.245  18.956   3.978  0.00  0.00     0.137 C 
BRANCH  31  32
HETATM   32  C   UNK N   1      24.622  20.089   3.193  0.00  0.00     0.217 C 
HETATM   33  O   UNK N   1      23.460  20.417   3.371  0.00  0.00    -0.274 OA
HETATM   34  N   UNK N   1      25.369  20.765   2.303  0.00  0.00    -0.370 N 
HETATM   35  H   UNK N   1      26.142  20.363   1.842  0.00  0.00     0.159 HD
HETATM   36  H   UNK N   1      25.134  21.700   2.101  0.00  0.00     0.159 HD
ENDBRANCH  31  32
ENDBRANCH  30  31
BRANCH  30  37
HETATM   37  N   UNK N   1      23.544  18.092   5.513  0.00  0.00    -0.342 N 
HETATM   38  C   UNK N   1      22.200  17.926   5.594  0.00  0.00     0.268 C 
HETATM   39  O   UNK N   1      21.592  18.482   6.496  0.00  0.00    -0.266 OA
HETATM   40  H   UNK N   1      24.023  18.437   6.301  0.00  0.00     0.163 HD
BRANCH  38  41
HETATM   41  C   UNK N   1      21.452  17.084   4.629  0.00  0.00     0.101 A 
HETATM   42  C   UNK N   1      21.179  15.740   4.923  0.00  0.00     0.036 A 
HETATM   43  C   UNK N   1      20.521  14.947   3.980  0.00  0.00     0.016 A 
HETATM   44  C   UNK N   1      20.184  15.487   2.739  0.00  0.00    -0.009 A 
HETATM   45  C   UNK N   1      19.560  14.705   1.765  0.00  0.00     0.013 A 
HETATM   46  C   UNK N   1      20.498  16.833   2.465  0.00  0.00     0.043 A 
HETATM   47  C   UNK N   1      19.261  15.257   0.515  0.00  0.00     0.001 A 
HETATM   48  C   UNK N   1      19.587  16.591   0.237  0.00  0.00     0.002 A 
HETATM   49  C   UNK N   1      20.201  17.380   1.215  0.00  0.00     0.030 A 
HETATM   50  N   UNK N   1      21.105  17.590   3.413  0.00  0.00    -0.351 N 
ATOM     51  HN  UNK N   1      21.308  18.569   3.208  1.00  0.00     0.166 HD
ENDBRANCH  38  41
ENDBRANCH  30  37
ENDBRANCH  27  30
ENDBRANCH  18  26
ENDBRANCH   1  18
TORSDOF 14
ENDMDL
MODEL 5
REMARK VINA RESULT:      -7.2     14.033     17.376
REMARK  14 active torsions:
REMARK  status: ('A' for Active; 'I' for Inactive)
REMARK    1  A    between atoms: C_2  and  C_4 
REMARK    2  A    between atoms: C_4  and  N_5 
REMARK    3  A    between atoms: N_5  and  C_6 
REMARK       I    between atoms: N_5  and  C_39 
REMARK    4  A    between atoms: C_6  and  C_7 
REMARK    5  A    between atoms: C_7  and  C_8 
REMARK    6  A    between atoms: C_8  and  C_9 
REMARK    7  A    between atoms: C_8  and  N_16 
REMARK    8  A    between atoms: C_9  and  C_10 
REMARK       I    between atoms: N_16  and  C_17 
REMARK    9  A    between atoms: C_17  and  C_19 
REMARK   10  A    between atoms: C_19  and  C_20 
REMARK   11  A    between atoms: C_19  and  N_24 
REMARK   12  A    between atoms: C_20  and  C_21 
REMARK       I    between atoms: C_21  and  N_23 
REMARK       I    between atoms: N_24  and  C_25 
REMARK   13  A    between atoms: C_25  and  C_27 
REMARK       I    between atoms: C_39  and  N_41 
REMARK   14  A    between atoms: N_41  and  C_42 
ROOT
HETATM    1  C   UNK N   1      29.859  23.466  -3.842  0.00  0.00     0.159 C 
HETATM    2  O   UNK N   1      30.324  23.792  -2.564  0.00  0.00    -0.392 OA
HETATM    3  H   UNK N   1      30.546  23.934  -1.631  0.00  0.00     0.210 HD
ENDROOT
BRANCH   1   4
HETATM    4  C   UNK N   1      30.046  22.050  -4.339  0.00  0.00     0.161 C 
BRANCH   4   5
HETATM    5  N   UNK N   1      31.202  21.804  -5.203  0.00  0.00    -0.331 N 
HETATM    6  C   UNK N   1      32.508  21.806  -4.764  0.00  0.00     0.319 C 
HETATM    7  O   UNK N   1      32.765  21.982  -3.584  0.00  0.00    -0.247 OA
HETATM    8  N   UNK N   1      33.525  21.613  -5.649  0.00  0.00    -0.335 N 
HETATM    9  H   UNK N   1      33.264  21.444  -6.583  0.00  0.00     0.165 HD
BRANCH   5  10
HETATM   10  C   UNK N   1      30.935  21.576  -6.615  0.00  0.00     0.131 C 
BRANCH  10  11
HETATM   11  C   UNK N   1      30.556  20.122  -6.923  0.00  0.00    -0.005 C 
HETATM   12  C   UNK N   1      29.186  20.074  -7.565  0.00  0.00     0.011 C 
HETATM   13  C   UNK N   1      31.568  19.462  -7.840  0.00  0.00     0.011 C 
ENDBRANCH  10  11
ENDBRANCH   5  10
BRANCH   8  14
HETATM   14  C   UNK N   1      34.959  21.628  -5.369  0.00  0.00     0.023 C 
HETATM   15  C   UNK N   1      35.202  20.875  -4.080  0.00  0.00     0.037 C 
HETATM   16  C   UNK N   1      35.398  23.064  -5.183  0.00  0.00     0.037 C 
HETATM   17  C   UNK N   1      35.847  21.000  -6.440  0.00  0.00     0.037 C 
ENDBRANCH   8  14
ENDBRANCH   4   5
ENDBRANCH   1   4
BRANCH   1  18
HETATM   18  C   UNK N   1      29.373  24.552  -4.782  0.00  0.00     0.119 C 
BRANCH  18  19
HETATM   19  C   UNK N   1      29.128  25.841  -3.989  0.00  0.00     0.066 C 
BRANCH  19  20
HETATM   20  C   UNK N   1      30.151  26.900  -4.256  0.00  0.00    -0.056 A 
HETATM   21  C   UNK N   1      30.384  27.877  -3.283  0.00  0.00     0.007 A 
HETATM   22  C   UNK N   1      31.355  28.861  -3.494  0.00  0.00     0.001 A 
HETATM   23  C   UNK N   1      32.097  28.870  -4.678  0.00  0.00     0.000 A 
HETATM   24  C   UNK N   1      31.873  27.893  -5.651  0.00  0.00     0.001 A 
HETATM   25  C   UNK N   1      30.904  26.908  -5.440  0.00  0.00     0.007 A 
ENDBRANCH  19  20
ENDBRANCH  18  19
BRANCH  18  26
HETATM   26  N   UNK N   1      28.210  23.978  -5.412  0.00  0.00    -0.352 N 
HETATM   27  C   UNK N   1      27.942  23.855  -6.728  0.00  0.00     0.241 C 
HETATM   28  O   UNK N   1      28.806  24.021  -7.576  0.00  0.00    -0.271 OA
HETATM   29  H   UNK N   1      27.522  23.630  -4.800  0.00  0.00     0.163 HD
BRANCH  27  30
HETATM   30  C   UNK N   1      26.521  23.671  -7.148  0.00  0.00     0.185 C 
BRANCH  30  31
HETATM   31  C   UNK N   1      26.201  22.166  -7.219  0.00  0.00     0.137 C 
BRANCH  31  32
HETATM   32  C   UNK N   1      25.100  21.771  -8.178  0.00  0.00     0.217 C 
HETATM   33  O   UNK N   1      24.011  22.319  -8.149  0.00  0.00    -0.274 OA
HETATM   34  N   UNK N   1      25.336  20.818  -9.096  0.00  0.00    -0.370 N 
HETATM   35  H   UNK N   1      25.998  20.102  -8.963  0.00  0.00     0.159 HD
HETATM   36  H   UNK N   1      24.823  20.835  -9.937  0.00  0.00     0.159 HD
ENDBRANCH  31  32
ENDBRANCH  30  31
BRANCH  30  37
HETATM   37  N   UNK N   1      26.191  24.309  -8.404  0.00  0.00    -0.342 N 
HETATM   38  C   UNK N   1      25.901  25.630  -8.509  0.00  0.00     0.268 C 
HETATM   39  O   UNK N   1      25.343  26.030  -9.520  0.00  0.00    -0.266 OA
HETATM   40  H   UNK N   1      26.177  23.758  -9.220  0.00  0.00     0.163 HD
BRANCH  38  41
HETATM   41  C   UNK N   1      26.250  26.599  -7.442  0.00  0.00     0.101 A 
HETATM   42  C   UNK N   1      25.459  26.698  -6.288  0.00  0.00     0.036 A 
HETATM   43  C   UNK N   1      25.771  27.653  -5.318  0.00  0.00     0.016 A 
HETATM   44  C   UNK N   1      26.836  28.527  -5.527  0.00  0.00    -0.009 A 
HETATM   45  C   UNK N   1      27.146  29.516  -4.591  0.00  0.00     0.013 A 
HETATM   46  C   UNK N   1      27.593  28.419  -6.711  0.00  0.00     0.043 A 
HETATM   47  C   UNK N   1      28.198  30.404  -4.837  0.00  0.00     0.001 A 
HETATM   48  C   UNK N   1      28.940  30.306  -6.021  0.00  0.00     0.002 A 
HETATM   49  C   UNK N   1      28.641  29.310  -6.955  0.00  0.00     0.030 A 
HETATM   50  N   UNK N   1      27.291  27.459  -7.620  0.00  0.00    -0.351 N 
ATOM     51  HN  UNK N   1      27.859  27.379  -8.463  1.00  0.00     0.166 HD
ENDBRANCH  38  41
ENDBRANCH  30  37
ENDBRANCH  27  30
ENDBRANCH  18  26
ENDBRANCH   1  18
TORSDOF 14
ENDMDL
MODEL 6
REMARK VINA RESULT:      -7.2      9.005     14.260
REMARK  14 active torsions:
REMARK  status: ('A' for Active; 'I' for Inactive)
REMARK    1  A    between atoms: C_2  and  C_4 
REMARK    2  A    between atoms: C_4  and  N_5 
REMARK    3  A    between atoms: N_5  and  C_6 
REMARK       I    between atoms: N_5  and  C_39 
REMARK    4  A    between atoms: C_6  and  C_7 
REMARK    5  A    between atoms: C_7  and  C_8 
REMARK    6  A    between atoms: C_8  and  C_9 
REMARK    7  A    between atoms: C_8  and  N_16 
REMARK    8  A    between atoms: C_9  and  C_10 
REMARK       I    between atoms: N_16  and  C_17 
REMARK    9  A    between atoms: C_17  and  C_19 
REMARK   10  A    between atoms: C_19  and  C_20 
REMARK   11  A    between atoms: C_19  and  N_24 
REMARK   12  A    between atoms: C_20  and  C_21 
REMARK       I    between atoms: C_21  and  N_23 
REMARK       I    between atoms: N_24  and  C_25 
REMARK   13  A    between atoms: C_25  and  C_27 
REMARK       I    between atoms: C_39  and  N_41 
REMARK   14  A    between atoms: N_41  and  C_42 
ROOT
HETATM    1  C   UNK N   1      37.198  12.684  11.566  0.00  0.00     0.159 C 
HETATM    2  O   UNK N   1      38.523  13.100  11.402  0.00  0.00    -0.392 OA
HETATM    3  H   UNK N   1      39.475  13.283  11.373  0.00  0.00     0.210 HD
ENDROOT
BRANCH   1   4
HETATM    4  C   UNK N   1      36.776  11.363  10.962  0.00  0.00     0.161 C 
BRANCH   4   5
HETATM    5  N   UNK N   1      36.392  11.379   9.550  0.00  0.00    -0.331 N 
HETATM    6  C   UNK N   1      37.286  11.495   8.508  0.00  0.00     0.319 C 
HETATM    7  O   UNK N   1      38.485  11.554   8.724  0.00  0.00    -0.247 OA
HETATM    8  N   UNK N   1      36.833  11.548   7.224  0.00  0.00    -0.335 N 
HETATM    9  H   UNK N   1      35.860  11.464   7.101  0.00  0.00     0.165 HD
BRANCH   5  10
HETATM   10  C   UNK N   1      34.971  11.296   9.251  0.00  0.00     0.131 C 
BRANCH  10  11
HETATM   11  C   UNK N   1      34.293  10.085   9.904  0.00  0.00    -0.005 C 
HETATM   12  C   UNK N   1      32.790  10.216   9.792  0.00  0.00     0.011 C 
HETATM   13  C   UNK N   1      34.738   8.783   9.265  0.00  0.00     0.011 C 
ENDBRANCH  10  11
ENDBRANCH   5  10
BRANCH   8  14
HETATM   14  C   UNK N   1      37.629  11.713   6.010  0.00  0.00     0.023 C 
HETATM   15  C   UNK N   1      38.320  13.058   6.071  0.00  0.00     0.037 C 
HETATM   16  C   UNK N   1      36.697  11.700   4.818  0.00  0.00     0.037 C 
HETATM   17  C   UNK N   1      38.704  10.656   5.777  0.00  0.00     0.037 C 
ENDBRANCH   8  14
ENDBRANCH   4   5
ENDBRANCH   1   4
BRANCH   1  18
HETATM   18  C   UNK N   1      36.163  13.628  12.147  0.00  0.00     0.119 C 
BRANCH  18  19
HETATM   19  C   UNK N   1      34.943  12.824  12.610  0.00  0.00     0.066 C 
BRANCH  19  20
HETATM   20  C   UNK N   1      35.032  12.391  14.040  0.00  0.00    -0.056 A 
HETATM   21  C   UNK N   1      35.546  13.283  14.987  0.00  0.00     0.007 A 
HETATM   22  C   UNK N   1      35.613  12.917  16.334  0.00  0.00     0.001 A 
HETATM   23  C   UNK N   1      35.164  11.657  16.741  0.00  0.00     0.000 A 
HETATM   24  C   UNK N   1      34.644  10.764  15.800  0.00  0.00     0.001 A 
HETATM   25  C   UNK N   1      34.574  11.131  14.454  0.00  0.00     0.007 A 
ENDBRANCH  19  20
ENDBRANCH  18  19
BRANCH  18  26
HETATM   26  N   UNK N   1      35.918  14.577  11.090  0.00  0.00    -0.352 N 
HETATM   27  C   UNK N   1      34.737  15.045  10.637  0.00  0.00     0.241 C 
HETATM   28  O   UNK N   1      33.700  14.876  11.261  0.00  0.00    -0.271 OA
HETATM   29  H   UNK N   1      36.719  14.930  10.639  0.00  0.00     0.163 HD
BRANCH  27  30
HETATM   30  C   UNK N   1      34.686  15.637   9.267  0.00  0.00     0.185 C 
BRANCH  30  31
HETATM   31  C   UNK N   1      35.586  14.817   8.325  0.00  0.00     0.137 C 
BRANCH  31  32
HETATM   32  C   UNK N   1      35.138  14.747   6.881  0.00  0.00     0.217 C 
HETATM   33  O   UNK N   1      35.670  15.431   6.022  0.00  0.00    -0.274 OA
HETATM   34  N   UNK N   1      34.156  13.897   6.535  0.00  0.00    -0.370 N 
HETATM   35  H   UNK N   1      33.456  13.608   7.164  0.00  0.00     0.159 HD
HETATM   36  H   UNK N   1      34.134  13.551   5.613  0.00  0.00     0.159 HD
ENDBRANCH  31  32
ENDBRANCH  30  31
BRANCH  30  37
HETATM   37  N   UNK N   1      35.054  17.035   9.216  0.00  0.00    -0.342 N 
HETATM   38  C   UNK N   1      34.336  17.965   8.537  0.00  0.00     0.268 C 
HETATM   39  O   UNK N   1      34.858  19.040   8.284  0.00  0.00    -0.266 OA
HETATM   40  H   UNK N   1      35.863  17.325   9.696  0.00  0.00     0.163 HD
BRANCH  38  41
HETATM   41  C   UNK N   1      32.939  17.719   8.106  0.00  0.00     0.101 A 
HETATM   42  C   UNK N   1      32.658  17.365   6.778  0.00  0.00     0.036 A 
HETATM   43  C   UNK N   1      31.333  17.190   6.376  0.00  0.00     0.016 A 
HETATM   44  C   UNK N   1      30.300  17.412   7.286  0.00  0.00    -0.009 A 
HETATM   45  C   UNK N   1      28.965  17.280   6.899  0.00  0.00     0.013 A 
HETATM   46  C   UNK N   1      30.615  17.794   8.606  0.00  0.00     0.043 A 
HETATM   47  C   UNK N   1      27.944  17.541   7.820  0.00  0.00     0.001 A 
HETATM   48  C   UNK N   1      28.258  17.935   9.127  0.00  0.00     0.002 A 
HETATM   49  C   UNK N   1      29.594  18.056   9.521  0.00  0.00     0.030 A 
HETATM   50  N   UNK N   1      31.913  17.921   8.979  0.00  0.00    -0.351 N 
ATOM     51  HN  UNK N   1      32.127  18.179   9.942  1.00  0.00     0.166 HD
ENDBRANCH  38  41
ENDBRANCH  30  37
ENDBRANCH  27  30
ENDBRANCH  18  26
ENDBRANCH   1  18
TORSDOF 14
ENDMDL
MODEL 7
REMARK VINA RESULT:      -7.2      9.925     14.571
REMARK  14 active torsions:
REMARK  status: ('A' for Active; 'I' for Inactive)
REMARK    1  A    between atoms: C_2  and  C_4 
REMARK    2  A    between atoms: C_4  and  N_5 
REMARK    3  A    between atoms: N_5  and  C_6 
REMARK       I    between atoms: N_5  and  C_39 
REMARK    4  A    between atoms: C_6  and  C_7 
REMARK    5  A    between atoms: C_7  and  C_8 
REMARK    6  A    between atoms: C_8  and  C_9 
REMARK    7  A    between atoms: C_8  and  N_16 
REMARK    8  A    between atoms: C_9  and  C_10 
REMARK       I    between atoms: N_16  and  C_17 
REMARK    9  A    between atoms: C_17  and  C_19 
REMARK   10  A    between atoms: C_19  and  C_20 
REMARK   11  A    between atoms: C_19  and  N_24 
REMARK   12  A    between atoms: C_20  and  C_21 
REMARK       I    between atoms: C_21  and  N_23 
REMARK       I    between atoms: N_24  and  C_25 
REMARK   13  A    between atoms: C_25  and  C_27 
REMARK       I    between atoms: C_39  and  N_41 
REMARK   14  A    between atoms: N_41  and  C_42 
ROOT
HETATM    1  C   UNK N   1      36.536  11.699  10.905  0.00  0.00     0.159 C 
HETATM    2  O   UNK N   1      35.988  11.419   9.649  0.00  0.00    -0.392 OA
HETATM    3  H   UNK N   1      35.738  11.233   8.731  0.00  0.00     0.210 HD
ENDROOT
BRANCH   1   4
HETATM    4  C   UNK N   1      37.417  10.658  11.557  0.00  0.00     0.161 C 
BRANCH   4   5
HETATM    5  N   UNK N   1      36.751   9.457  12.064  0.00  0.00    -0.331 N 
HETATM    6  C   UNK N   1      36.296   8.431  11.264  0.00  0.00     0.319 C 
HETATM    7  O   UNK N   1      36.470   8.462  10.057  0.00  0.00    -0.247 OA
HETATM    8  N   UNK N   1      35.645   7.371  11.820  0.00  0.00    -0.335 N 
HETATM    9  H   UNK N   1      35.558   7.378  12.801  0.00  0.00     0.165 HD
BRANCH   5  10
HETATM   10  C   UNK N   1      36.538   9.376  13.501  0.00  0.00     0.131 C 
BRANCH  10  11
HETATM   11  C   UNK N   1      37.701   9.963  14.310  0.00  0.00    -0.005 C 
HETATM   12  C   UNK N   1      37.255  10.227  15.732  0.00  0.00     0.011 C 
HETATM   13  C   UNK N   1      38.901   9.036  14.318  0.00  0.00     0.011 C 
ENDBRANCH  10  11
ENDBRANCH   5  10
BRANCH   8  14
HETATM   14  C   UNK N   1      35.060   6.226  11.125  0.00  0.00     0.023 C 
HETATM   15  C   UNK N   1      34.387   5.339  12.149  0.00  0.00     0.037 C 
HETATM   16  C   UNK N   1      36.174   5.445  10.463  0.00  0.00     0.037 C 
HETATM   17  C   UNK N   1      34.023   6.562  10.058  0.00  0.00     0.037 C 
ENDBRANCH   8  14
ENDBRANCH   4   5
ENDBRANCH   1   4
BRANCH   1  18
HETATM   18  C   UNK N   1      36.088  12.922  11.683  0.00  0.00     0.119 C 
BRANCH  18  19
HETATM   19  C   UNK N   1      34.969  12.527  12.654  0.00  0.00     0.066 C 
BRANCH  19  20
HETATM   20  C   UNK N   1      35.272  12.880  14.076  0.00  0.00    -0.056 A 
HETATM   21  C   UNK N   1      36.428  13.615  14.359  0.00  0.00     0.007 A 
HETATM   22  C   UNK N   1      36.721  13.985  15.675  0.00  0.00     0.001 A 
HETATM   23  C   UNK N   1      35.857  13.622  16.713  0.00  0.00     0.000 A 
HETATM   24  C   UNK N   1      34.698  12.894  16.435  0.00  0.00     0.001 A 
HETATM   25  C   UNK N   1      34.404  12.526  15.120  0.00  0.00     0.007 A 
ENDBRANCH  19  20
ENDBRANCH  18  19
BRANCH  18  26
HETATM   26  N   UNK N   1      35.721  13.872  10.664  0.00  0.00    -0.352 N 
HETATM   27  C   UNK N   1      35.390  15.172  10.806  0.00  0.00     0.241 C 
HETATM   28  O   UNK N   1      35.596  15.774  11.849  0.00  0.00    -0.271 OA
HETATM   29  H   UNK N   1      35.711  13.527   9.741  0.00  0.00     0.163 HD
BRANCH  27  30
HETATM   30  C   UNK N   1      34.608  15.829   9.716  0.00  0.00     0.185 C 
BRANCH  30  31
HETATM   31  C   UNK N   1      34.710  14.981   8.435  0.00  0.00     0.137 C 
BRANCH  31  32
HETATM   32  C   UNK N   1      33.692  13.870   8.299  0.00  0.00     0.217 C 
HETATM   33  O   UNK N   1      34.039  12.716   8.108  0.00  0.00    -0.274 OA
HETATM   34  N   UNK N   1      32.384  14.154   8.419  0.00  0.00    -0.370 N 
HETATM   35  H   UNK N   1      32.010  15.039   8.205  0.00  0.00     0.159 HD
HETATM   36  H   UNK N   1      31.773  13.447   8.731  0.00  0.00     0.159 HD
ENDBRANCH  31  32
ENDBRANCH  30  31
BRANCH  30  37
HETATM   37  N   UNK N   1      35.009  17.192   9.444  0.00  0.00    -0.342 N 
HETATM   38  C   UNK N   1      34.337  18.005   8.591  0.00  0.00     0.268 C 
HETATM   39  O   UNK N   1      34.891  19.014   8.181  0.00  0.00    -0.266 OA
HETATM   40  H   UNK N   1      35.808  17.546   9.899  0.00  0.00     0.163 HD
BRANCH  38  41
HETATM   41  C   UNK N   1      32.950  17.712   8.154  0.00  0.00     0.101 A 
HETATM   42  C   UNK N   1      32.686  17.357   6.824  0.00  0.00     0.036 A 
HETATM   43  C   UNK N   1      31.368  17.137   6.417  0.00  0.00     0.016 A 
HETATM   44  C   UNK N   1      30.326  17.316   7.325  0.00  0.00    -0.009 A 
HETATM   45  C   UNK N   1      28.997  17.139   6.934  0.00  0.00     0.013 A 
HETATM   46  C   UNK N   1      30.624  17.701   8.648  0.00  0.00     0.043 A 
HETATM   47  C   UNK N   1      27.965  17.358   7.854  0.00  0.00     0.001 A 
HETATM   48  C   UNK N   1      28.261  17.755   9.164  0.00  0.00     0.002 A 
HETATM   49  C   UNK N   1      29.591  17.922   9.562  0.00  0.00     0.030 A 
HETATM   50  N   UNK N   1      31.915  17.873   9.025  0.00  0.00    -0.351 N 
ATOM     51  HN  UNK N   1      32.118  18.132   9.991  1.00  0.00     0.166 HD
ENDBRANCH  38  41
ENDBRANCH  30  37
ENDBRANCH  27  30
ENDBRANCH  18  26
ENDBRANCH   1  18
TORSDOF 14
ENDMDL
MODEL 8
REMARK VINA RESULT:      -7.2      7.697     12.086
REMARK  14 active torsions:
REMARK  status: ('A' for Active; 'I' for Inactive)
REMARK    1  A    between atoms: C_2  and  C_4 
REMARK    2  A    between atoms: C_4  and  N_5 
REMARK    3  A    between atoms: N_5  and  C_6 
REMARK       I    between atoms: N_5  and  C_39 
REMARK    4  A    between atoms: C_6  and  C_7 
REMARK    5  A    between atoms: C_7  and  C_8 
REMARK    6  A    between atoms: C_8  and  C_9 
REMARK    7  A    between atoms: C_8  and  N_16 
REMARK    8  A    between atoms: C_9  and  C_10 
REMARK       I    between atoms: N_16  and  C_17 
REMARK    9  A    between atoms: C_17  and  C_19 
REMARK   10  A    between atoms: C_19  and  C_20 
REMARK   11  A    between atoms: C_19  and  N_24 
REMARK   12  A    between atoms: C_20  and  C_21 
REMARK       I    between atoms: C_21  and  N_23 
REMARK       I    between atoms: N_24  and  C_25 
REMARK   13  A    between atoms: C_25  and  C_27 
REMARK       I    between atoms: C_39  and  N_41 
REMARK   14  A    between atoms: N_41  and  C_42 
ROOT
HETATM    1  C   UNK N   1      35.040  15.767   9.736  0.00  0.00     0.159 C 
HETATM    2  O   UNK N   1      34.590  16.785  10.584  0.00  0.00    -0.392 OA
HETATM    3  H   UNK N   1      34.277  17.393  11.271  0.00  0.00     0.210 HD
ENDROOT
BRANCH   1   4
HETATM    4  C   UNK N   1      36.421  15.196   9.964  0.00  0.00     0.161 C 
BRANCH   4   5
HETATM    5  N   UNK N   1      36.522  14.075  10.900  0.00  0.00    -0.331 N 
HETATM    6  C   UNK N   1      36.323  14.184  12.259  0.00  0.00     0.319 C 
HETATM    7  O   UNK N   1      36.004  15.252  12.755  0.00  0.00    -0.247 OA
HETATM    8  N   UNK N   1      36.485  13.095  13.062  0.00  0.00    -0.335 N 
HETATM    9  H   UNK N   1      36.711  12.250  12.610  0.00  0.00     0.165 HD
BRANCH   5  10
HETATM   10  C   UNK N   1      36.888  12.781  10.345  0.00  0.00     0.131 C 
BRANCH  10  11
HETATM   11  C   UNK N   1      35.873  12.264   9.318  0.00  0.00    -0.005 C 
HETATM   12  C   UNK N   1      36.464  11.101   8.552  0.00  0.00     0.011 C 
HETATM   13  C   UNK N   1      34.579  11.830   9.980  0.00  0.00     0.011 C 
ENDBRANCH  10  11
ENDBRANCH   5  10
BRANCH   8  14
HETATM   14  C   UNK N   1      36.359  13.039  14.516  0.00  0.00     0.023 C 
HETATM   15  C   UNK N   1      37.071  11.799  15.010  0.00  0.00     0.037 C 
HETATM   16  C   UNK N   1      34.891  12.929  14.869  0.00  0.00     0.037 C 
HETATM   17  C   UNK N   1      36.936  14.230  15.274  0.00  0.00     0.037 C 
ENDBRANCH   8  14
ENDBRANCH   4   5
ENDBRANCH   1   4
BRANCH   1  18
HETATM   18  C   UNK N   1      34.251  15.397   8.495  0.00  0.00     0.119 C 
BRANCH  18  19
HETATM   19  C   UNK N   1      35.190  15.371   7.283  0.00  0.00     0.066 C 
BRANCH  19  20
HETATM   20  C   UNK N   1      35.070  14.119   6.473  0.00  0.00    -0.056 A 
HETATM   21  C   UNK N   1      36.150  13.721   5.678  0.00  0.00     0.007 A 
HETATM   22  C   UNK N   1      36.078  12.540   4.934  0.00  0.00     0.001 A 
HETATM   23  C   UNK N   1      34.925  11.750   4.984  0.00  0.00     0.000 A 
HETATM   24  C   UNK N   1      33.845  12.140   5.780  0.00  0.00     0.001 A 
HETATM   25  C   UNK N   1      33.918  13.319   6.526  0.00  0.00     0.007 A 
ENDBRANCH  19  20
ENDBRANCH  18  19
BRANCH  18  26
HETATM   26  N   UNK N   1      33.195  16.376   8.444  0.00  0.00    -0.352 N 
HETATM   27  C   UNK N   1      31.885  16.187   8.184  0.00  0.00     0.241 C 
HETATM   28  O   UNK N   1      31.386  15.072   8.187  0.00  0.00    -0.271 OA
HETATM   29  H   UNK N   1      33.466  17.306   8.623  0.00  0.00     0.163 HD
BRANCH  27  30
HETATM   30  C   UNK N   1      31.076  17.357   7.727  0.00  0.00     0.185 C 
BRANCH  30  31
HETATM   31  C   UNK N   1      30.796  18.282   8.925  0.00  0.00     0.137 C 
BRANCH  31  32
HETATM   32  C   UNK N   1      29.501  18.028   9.664  0.00  0.00     0.217 C 
HETATM   33  O   UNK N   1      28.471  18.603   9.350  0.00  0.00    -0.274 OA
HETATM   34  N   UNK N   1      29.477  17.133  10.666  0.00  0.00    -0.370 N 
HETATM   35  H   UNK N   1      30.271  16.918  11.207  0.00  0.00     0.159 HD
HETATM   36  H   UNK N   1      28.630  16.673  10.869  0.00  0.00     0.159 HD
ENDBRANCH  31  32
ENDBRANCH  30  31
BRANCH  30  37
HETATM   37  N   UNK N   1      29.836  16.996   7.075  0.00  0.00    -0.342 N 
HETATM   38  C   UNK N   1      29.761  16.647   5.766  0.00  0.00     0.268 C 
HETATM   39  O   UNK N   1      28.670  16.655   5.218  0.00  0.00    -0.266 OA
HETATM   40  H   UNK N   1      29.007  17.003   7.608  0.00  0.00     0.163 HD
BRANCH  38  41
HETATM   41  C   UNK N   1      30.959  16.248   4.989  0.00  0.00     0.101 A 
HETATM   42  C   UNK N   1      32.005  17.159   4.780  0.00  0.00     0.036 A 
HETATM   43  C   UNK N   1      33.101  16.785   4.001  0.00  0.00     0.016 A 
HETATM   44  C   UNK N   1      33.125  15.526   3.402  0.00  0.00    -0.009 A 
HETATM   45  C   UNK N   1      34.191  15.141   2.587  0.00  0.00     0.013 A 
HETATM   46  C   UNK N   1      32.045  14.644   3.609  0.00  0.00     0.043 A 
HETATM   47  C   UNK N   1      34.178  13.886   1.969  0.00  0.00     0.001 A 
HETATM   48  C   UNK N   1      33.098  13.016   2.164  0.00  0.00     0.002 A 
HETATM   49  C   UNK N   1      32.033  13.394   2.988  0.00  0.00     0.030 A 
HETATM   50  N   UNK N   1      31.010  15.021   4.401  0.00  0.00    -0.351 N 
ATOM     51  HN  UNK N   1      30.244  14.365   4.559  1.00  0.00     0.166 HD
ENDBRANCH  38  41
ENDBRANCH  30  37
ENDBRANCH  27  30
ENDBRANCH  18  26
ENDBRANCH   1  18
TORSDOF 14
ENDMDL
MODEL 9
REMARK VINA RESULT:      -7.1      2.374      7.841
REMARK  14 active torsions:
REMARK  status: ('A' for Active; 'I' for Inactive)
REMARK    1  A    between atoms: C_2  and  C_4 
REMARK    2  A    between atoms: C_4  and  N_5 
REMARK    3  A    between atoms: N_5  and  C_6 
REMARK       I    between atoms: N_5  and  C_39 
REMARK    4  A    between atoms: C_6  and  C_7 
REMARK    5  A    between atoms: C_7  and  C_8 
REMARK    6  A    between atoms: C_8  and  C_9 
REMARK    7  A    between atoms: C_8  and  N_16 
REMARK    8  A    between atoms: C_9  and  C_10 
REMARK       I    between atoms: N_16  and  C_17 
REMARK    9  A    between atoms: C_17  and  C_19 
REMARK   10  A    between atoms: C_19  and  C_20 
REMARK   11  A    between atoms: C_19  and  N_24 
REMARK   12  A    between atoms: C_20  and  C_21 
REMARK       I    between atoms: C_21  and  N_23 
REMARK       I    between atoms: N_24  and  C_25 
REMARK   13  A    between atoms: C_25  and  C_27 
REMARK       I    between atoms: C_39  and  N_41 
REMARK   14  A    between atoms: N_41  and  C_42 
ROOT
HETATM    1  C   UNK N   1      25.302  16.815   4.504  0.00  0.00     0.159 C 
HETATM    2  O   UNK N   1      25.122  17.118   5.858  0.00  0.00    -0.392 OA
HETATM    3  H   UNK N   1      25.136  17.321   6.806  0.00  0.00     0.210 HD
ENDROOT
BRANCH   1   4
HETATM    4  C   UNK N   1      25.957  17.847   3.614  0.00  0.00     0.161 C 
BRANCH   4   5
HETATM    5  N   UNK N   1      27.357  18.167   3.899  0.00  0.00    -0.331 N 
HETATM    6  C   UNK N   1      28.386  17.253   3.832  0.00  0.00     0.319 C 
HETATM    7  O   UNK N   1      28.174  16.105   3.481  0.00  0.00    -0.247 OA
HETATM    8  N   UNK N   1      29.654  17.630   4.160  0.00  0.00    -0.335 N 
HETATM    9  H   UNK N   1      29.779  18.575   4.406  0.00  0.00     0.165 HD
BRANCH   5  10
HETATM   10  C   UNK N   1      27.653  19.531   4.308  0.00  0.00     0.131 C 
BRANCH  10  11
HETATM   11  C   UNK N   1      27.041  19.892   5.667  0.00  0.00    -0.005 C 
HETATM   12  C   UNK N   1      27.852  19.263   6.779  0.00  0.00     0.011 C 
HETATM   13  C   UNK N   1      26.981  21.394   5.872  0.00  0.00     0.011 C 
ENDBRANCH  10  11
ENDBRANCH   5  10
BRANCH   8  14
HETATM   14  C   UNK N   1      30.849  16.789   4.188  0.00  0.00     0.023 C 
HETATM   15  C   UNK N   1      30.838  15.986   5.470  0.00  0.00     0.037 C 
HETATM   16  C   UNK N   1      32.068  17.686   4.187  0.00  0.00     0.037 C 
HETATM   17  C   UNK N   1      30.989  15.804   3.032  0.00  0.00     0.037 C 
ENDBRANCH   8  14
ENDBRANCH   4   5
ENDBRANCH   1   4
BRANCH   1  18
HETATM   18  C   UNK N   1      24.667  15.575   3.904  0.00  0.00     0.119 C 
BRANCH  18  19
HETATM   19  C   UNK N   1      24.827  15.609   2.379  0.00  0.00     0.066 C 
BRANCH  19  20
HETATM   20  C   UNK N   1      24.711  14.258   1.746  0.00  0.00    -0.056 A 
HETATM   21  C   UNK N   1      23.770  14.065   0.729  0.00  0.00     0.007 A 
HETATM   22  C   UNK N   1      23.659  12.822   0.100  0.00  0.00     0.001 A 
HETATM   23  C   UNK N   1      24.492  11.766   0.484  0.00  0.00     0.000 A 
HETATM   24  C   UNK N   1      25.437  11.954   1.495  0.00  0.00     0.001 A 
HETATM   25  C   UNK N   1      25.550  13.198   2.123  0.00  0.00     0.007 A 
ENDBRANCH  19  20
ENDBRANCH  18  19
BRANCH  18  26
HETATM   26  N   UNK N   1      23.310  15.605   4.388  0.00  0.00    -0.352 N 
HETATM   27  C   UNK N   1      22.226  16.169   3.817  0.00  0.00     0.241 C 
HETATM   28  O   UNK N   1      22.236  16.540   2.654  0.00  0.00    -0.271 OA
HETATM   29  H   UNK N   1      23.154  15.153   5.249  0.00  0.00     0.163 HD
BRANCH  27  30
HETATM   30  C   UNK N   1      21.051  16.486   4.684  0.00  0.00     0.185 C 
BRANCH  30  31
HETATM   31  C   UNK N   1      19.791  16.607   3.808  0.00  0.00     0.137 C 
BRANCH  31  32
HETATM   32  C   UNK N   1      19.733  17.816   2.901  0.00  0.00     0.217 C 
HETATM   33  O   UNK N   1      19.987  18.934   3.320  0.00  0.00    -0.274 OA
HETATM   34  N   UNK N   1      19.424  17.654   1.602  0.00  0.00    -0.370 N 
HETATM   35  H   UNK N   1      18.870  16.907   1.277  0.00  0.00     0.159 HD
HETATM   36  H   UNK N   1      19.764  18.308   0.950  0.00  0.00     0.159 HD
ENDBRANCH  31  32
ENDBRANCH  30  31
BRANCH  30  37
HETATM   37  N   UNK N   1      21.217  17.678   5.486  0.00  0.00    -0.342 N 
HETATM   38  C   UNK N   1      20.993  17.708   6.824  0.00  0.00     0.268 C 
HETATM   39  O   UNK N   1      20.855  18.790   7.372  0.00  0.00    -0.266 OA
HETATM   40  H   UNK N   1      21.507  18.507   5.040  0.00  0.00     0.163 HD
BRANCH  38  41
HETATM   41  C   UNK N   1      20.921  16.469   7.636  0.00  0.00     0.101 A 
HETATM   42  C   UNK N   1      19.865  16.272   8.538  0.00  0.00     0.036 A 
HETATM   43  C   UNK N   1      19.842  15.125   9.334  0.00  0.00     0.016 A 
HETATM   44  C   UNK N   1      20.892  14.211   9.257  0.00  0.00    -0.009 A 
HETATM   45  C   UNK N   1      20.912  13.075  10.069  0.00  0.00     0.013 A 
HETATM   46  C   UNK N   1      21.952  14.453   8.361  0.00  0.00     0.043 A 
HETATM   47  C   UNK N   1      21.992  12.188  10.000  0.00  0.00     0.001 A 
HETATM   48  C   UNK N   1      23.053  12.437   9.120  0.00  0.00     0.002 A 
HETATM   49  C   UNK N   1      23.030  13.567   8.297  0.00  0.00     0.030 A 
HETATM   50  N   UNK N   1      21.931  15.557   7.573  0.00  0.00    -0.351 N 
ATOM     51  HN  UNK N   1      22.695  15.709   6.915  1.00  0.00     0.166 HD
ENDBRANCH  38  41
ENDBRANCH  30  37
ENDBRANCH  27  30
ENDBRANCH  18  26
ENDBRANCH   1  18
TORSDOF 14
ENDMDL
