MODEL 1
REMARK VINA RESULT:      -6.5      0.000      0.000
REMARK  2 active torsions:
REMARK  status: ('A' for Active; 'I' for Inactive)
REMARK    1  A    between atoms: C_2  and  N_4 
REMARK       I    between atoms: N_4  and  C_5 
REMARK       I    between atoms: C_5  and  N_8 
REMARK       I    between atoms: N_8  and  C_9 
REMARK       I    between atoms: C_9  and  N_12 
REMARK    2  A    between atoms: N_12  and  C_13 
ROOT
HETATM    1  N   UNK N   1      34.238  17.294   9.431  0.00  0.00    -0.222 N 
HETATM    2  C   UNK N   1      34.267  16.049  10.121  0.00  0.00     0.686 C 
HETATM    3  N   UNK N   1      33.488  15.091   9.757  0.00  0.00    -0.234 N 
ATOM      4  HN  UNK N   1      33.511  14.200  10.254  1.00  0.00     0.174 HD
HETATM    5  N   UNK N   1      35.166  15.872  11.218  0.00  0.00    -0.023 N 
HETATM    6  C   UNK N   1      35.277  14.669  11.978  0.00  0.00     0.690 C 
HETATM    7  N   UNK N   1      34.539  13.657  11.689  0.00  0.00    -0.234 N 
ATOM      8  HN  UNK N   1      34.618  12.797  12.232  1.00  0.00     0.174 HD
HETATM    9  N   UNK N   1      36.211  14.596  13.059  0.00  0.00    -0.192 N 
HETATM   10  H   UNK N   1      34.847  17.999   9.746  0.00  0.00     0.178 HD
HETATM   11  H   UNK N   1      32.872  15.218   9.001  0.00  0.00     0.174 HD
HETATM   12  H   UNK N   1      35.744  16.629  11.465  0.00  0.00     0.203 HD
HETATM   13  H   UNK N   1      33.898  13.711  10.944  0.00  0.00     0.174 HD
HETATM   14  H   UNK N   1      36.756  15.394  13.246  0.00  0.00     0.184 HD
ENDROOT
BRANCH   9  15
HETATM   15  C   UNK N   1      36.409  13.449  13.887  0.00  0.00     0.051 A 
HETATM   16  C   UNK N   1      37.204  12.391  13.429  0.00  0.00     0.032 A 
HETATM   17  C   UNK N   1      37.405  11.261  14.234  0.00  0.00     0.028 A 
HETATM   18  C   UNK N   1      36.814  11.180  15.501  0.00  0.00     0.055 A 
HETATM   19  C   UNK N   1      36.017  12.237  15.964  0.00  0.00     0.058 A 
HETATM   20 Cl   UNK N   1      37.083   9.753  16.488  0.00  0.00    -0.083 Cl
HETATM   21  C   UNK N   1      35.823  13.354  15.158  0.00  0.00     0.055 A 
HETATM   22 Cl   UNK N   1      35.249  12.195  17.542  0.00  0.00    -0.082 Cl
ENDBRANCH   9  15
BRANCH   1  23
HETATM   23  C   UNK N   1      33.380  17.607   8.299  0.00  0.00     0.091 C 
HETATM   24  C   UNK N   1      34.002  17.551   6.922  0.00  0.00     0.032 C 
HETATM   25  C   UNK N   1      31.919  17.997   8.471  0.00  0.00     0.032 C 
ENDBRANCH   1  23
TORSDOF 2
ENDMDL
MODEL 2
REMARK VINA RESULT:      -6.4      4.620      8.505
REMARK  2 active torsions:
REMARK  status: ('A' for Active; 'I' for Inactive)
REMARK    1  A    between atoms: C_2  and  N_4 
REMARK       I    between atoms: N_4  and  C_5 
REMARK       I    between atoms: C_5  and  N_8 
REMARK       I    between atoms: N_8  and  C_9 
REMARK       I    between atoms: C_9  and  N_12 
REMARK    2  A    between atoms: N_12  and  C_13 
ROOT
HETATM    1  N   UNK N   1      36.051  14.178  13.698  0.00  0.00    -0.222 N 
HETATM    2  C   UNK N   1      35.273  14.155  12.505  0.00  0.00     0.686 C 
HETATM    3  N   UNK N   1      34.669  13.077  12.150  0.00  0.00    -0.234 N 
ATOM      4  HN  UNK N   1      34.113  13.063  11.294  1.00  0.00     0.174 HD
HETATM    5  N   UNK N   1      35.172  15.337  11.708  0.00  0.00    -0.023 N 
HETATM    6  C   UNK N   1      34.423  15.426  10.496  0.00  0.00     0.690 C 
HETATM    7  N   UNK N   1      33.784  14.398  10.060  0.00  0.00    -0.234 N 
ATOM      8  HN  UNK N   1      33.248  14.461   9.195  1.00  0.00     0.174 HD
HETATM    9  N   UNK N   1      34.386  16.658   9.772  0.00  0.00    -0.192 N 
HETATM   10  H   UNK N   1      36.499  15.023  13.929  0.00  0.00     0.178 HD
HETATM   11  H   UNK N   1      34.741  12.266  12.703  0.00  0.00     0.174 HD
HETATM   12  H   UNK N   1      35.651  16.141  12.014  0.00  0.00     0.203 HD
HETATM   13  H   UNK N   1      33.812  13.552  10.562  0.00  0.00     0.174 HD
HETATM   14  H   UNK N   1      34.890  17.419  10.142  0.00  0.00     0.184 HD
ENDROOT
BRANCH   9  15
HETATM   15  C   UNK N   1      33.673  16.865   8.552  0.00  0.00     0.051 A 
HETATM   16  C   UNK N   1      34.368  16.895   7.337  0.00  0.00     0.032 A 
HETATM   17  C   UNK N   1      33.678  17.097   6.135  0.00  0.00     0.028 A 
HETATM   18  C   UNK N   1      32.288  17.272   6.137  0.00  0.00     0.055 A 
HETATM   19  C   UNK N   1      31.587  17.243   7.351  0.00  0.00     0.058 A 
HETATM   20 Cl   UNK N   1      31.448  17.523   4.615  0.00  0.00    -0.083 Cl
HETATM   21  C   UNK N   1      32.281  17.041   8.539  0.00  0.00     0.055 A 
HETATM   22 Cl   UNK N   1      29.846  17.455   7.420  0.00  0.00    -0.082 Cl
ENDBRANCH   9  15
BRANCH   1  23
HETATM   23  C   UNK N   1      36.234  13.054  14.602  0.00  0.00     0.091 C 
HETATM   24  C   UNK N   1      35.343  12.994  15.822  0.00  0.00     0.032 C 
HETATM   25  C   UNK N   1      37.287  11.981  14.361  0.00  0.00     0.032 C 
ENDBRANCH   1  23
TORSDOF 2
ENDMDL
MODEL 3
REMARK VINA RESULT:      -6.0      4.861      8.600
REMARK  2 active torsions:
REMARK  status: ('A' for Active; 'I' for Inactive)
REMARK    1  A    between atoms: C_2  and  N_4 
REMARK       I    between atoms: N_4  and  C_5 
REMARK       I    between atoms: C_5  and  N_8 
REMARK       I    between atoms: N_8  and  C_9 
REMARK       I    between atoms: C_9  and  N_12 
REMARK    2  A    between atoms: N_12  and  C_13 
ROOT
HETATM    1  N   UNK N   1      35.464  13.520  13.814  0.00  0.00    -0.222 N 
HETATM    2  C   UNK N   1      35.491  14.138  12.532  0.00  0.00     0.686 C 
HETATM    3  N   UNK N   1      36.608  14.528  12.027  0.00  0.00    -0.234 N 
ATOM      4  HN  UNK N   1      36.624  14.971  11.108  1.00  0.00     0.174 HD
HETATM    5  N   UNK N   1      34.269  14.321  11.812  0.00  0.00    -0.023 N 
HETATM    6  C   UNK N   1      34.180  14.927  10.524  0.00  0.00     0.690 C 
HETATM    7  N   UNK N   1      35.245  15.349   9.938  0.00  0.00    -0.234 N 
ATOM      8  HN  UNK N   1      35.182  15.783   9.017  1.00  0.00     0.174 HD
HETATM    9  N   UNK N   1      32.906  15.063   9.889  0.00  0.00    -0.192 N 
HETATM   10  H   UNK N   1      34.588  13.241  14.163  0.00  0.00     0.178 HD
HETATM   11  H   UNK N   1      37.446  14.399  12.526  0.00  0.00     0.174 HD
HETATM   12  H   UNK N   1      33.436  14.009  12.234  0.00  0.00     0.203 HD
HETATM   13  H   UNK N   1      36.120  15.254  10.379  0.00  0.00     0.174 HD
HETATM   14  H   UNK N   1      32.117  14.726  10.372  0.00  0.00     0.184 HD
ENDROOT
BRANCH   9  15
HETATM   15  C   UNK N   1      32.695  15.651   8.604  0.00  0.00     0.051 A 
HETATM   16  C   UNK N   1      32.574  17.042   8.488  0.00  0.00     0.032 A 
HETATM   17  C   UNK N   1      32.366  17.628   7.233  0.00  0.00     0.028 A 
HETATM   18  C   UNK N   1      32.278  16.832   6.084  0.00  0.00     0.055 A 
HETATM   19  C   UNK N   1      32.398  15.439   6.196  0.00  0.00     0.058 A 
HETATM   20 Cl   UNK N   1      32.018  17.593   4.524  0.00  0.00    -0.083 Cl
HETATM   21  C   UNK N   1      32.604  14.865   7.445  0.00  0.00     0.055 A 
HETATM   22 Cl   UNK N   1      32.296  14.386   4.794  0.00  0.00    -0.082 Cl
ENDBRANCH   9  15
BRANCH   1  23
HETATM   23  C   UNK N   1      36.628  13.267  14.649  0.00  0.00     0.091 C 
HETATM   24  C   UNK N   1      37.066  14.374  15.581  0.00  0.00     0.032 C 
HETATM   25  C   UNK N   1      37.401  11.957  14.588  0.00  0.00     0.032 C 
ENDBRANCH   1  23
TORSDOF 2
ENDMDL
MODEL 4
REMARK VINA RESULT:      -6.0      6.608     10.663
REMARK  2 active torsions:
REMARK  status: ('A' for Active; 'I' for Inactive)
REMARK    1  A    between atoms: C_2  and  N_4 
REMARK       I    between atoms: N_4  and  C_5 
REMARK       I    between atoms: C_5  and  N_8 
REMARK       I    between atoms: N_8  and  C_9 
REMARK       I    between atoms: C_9  and  N_12 
REMARK    2  A    between atoms: N_12  and  C_13 
ROOT
HETATM    1  N   UNK N   1      33.248  15.065  10.562  0.00  0.00    -0.222 N 
HETATM    2  C   UNK N   1      32.853  15.852   9.443  0.00  0.00     0.686 C 
HETATM    3  N   UNK N   1      33.738  16.295   8.621  0.00  0.00    -0.234 N 
ATOM      4  HN  UNK N   1      33.452  16.859   7.820  1.00  0.00     0.174 HD
HETATM    5  N   UNK N   1      31.468  16.146   9.242  0.00  0.00    -0.023 N 
HETATM    6  C   UNK N   1      30.963  16.925   8.158  0.00  0.00     0.690 C 
HETATM    7  N   UNK N   1      31.772  17.410   7.284  0.00  0.00    -0.234 N 
ATOM      8  HN  UNK N   1      31.411  17.967   6.510  1.00  0.00     0.174 HD
HETATM    9  N   UNK N   1      29.557  17.161   8.049  0.00  0.00    -0.192 N 
HETATM   10  H   UNK N   1      32.538  14.751  11.167  0.00  0.00     0.178 HD
HETATM   11  H   UNK N   1      34.689  16.088   8.763  0.00  0.00     0.174 HD
HETATM   12  H   UNK N   1      30.823  15.790   9.895  0.00  0.00     0.203 HD
HETATM   13  H   UNK N   1      32.739  17.245   7.364  0.00  0.00     0.174 HD
HETATM   14  H   UNK N   1      28.974  16.771   8.739  0.00  0.00     0.184 HD
ENDROOT
BRANCH   9  15
HETATM   15  C   UNK N   1      28.937  17.922   7.010  0.00  0.00     0.051 A 
HETATM   16  C   UNK N   1      29.028  17.488   5.682  0.00  0.00     0.032 A 
HETATM   17  C   UNK N   1      28.424  18.227   4.656  0.00  0.00     0.028 A 
HETATM   18  C   UNK N   1      27.725  19.405   4.949  0.00  0.00     0.055 A 
HETATM   19  C   UNK N   1      27.631  19.844   6.278  0.00  0.00     0.058 A 
HETATM   20 Cl   UNK N   1      26.977  20.312   3.645  0.00  0.00    -0.083 Cl
HETATM   21  C   UNK N   1      28.234  19.104   7.289  0.00  0.00     0.055 A 
HETATM   22 Cl   UNK N   1      26.770  21.311   6.711  0.00  0.00    -0.082 Cl
ENDBRANCH   9  15
BRANCH   1  23
HETATM   23  C   UNK N   1      34.615  14.687  10.881  0.00  0.00     0.091 C 
HETATM   24  C   UNK N   1      35.080  13.320  10.431  0.00  0.00     0.032 C 
HETATM   25  C   UNK N   1      35.552  15.605  11.654  0.00  0.00     0.032 C 
ENDBRANCH   1  23
TORSDOF 2
ENDMDL
MODEL 5
REMARK VINA RESULT:      -6.0      4.345      7.985
REMARK  2 active torsions:
REMARK  status: ('A' for Active; 'I' for Inactive)
REMARK    1  A    between atoms: C_2  and  N_4 
REMARK       I    between atoms: N_4  and  C_5 
REMARK       I    between atoms: C_5  and  N_8 
REMARK       I    between atoms: N_8  and  C_9 
REMARK       I    between atoms: C_9  and  N_12 
REMARK    2  A    between atoms: N_12  and  C_13 
ROOT
HETATM    1  N   UNK N   1      36.305  13.003  15.675  0.00  0.00    -0.222 N 
HETATM    2  C   UNK N   1      35.642  13.136  14.422  0.00  0.00     0.686 C 
HETATM    3  N   UNK N   1      34.579  12.454  14.178  0.00  0.00    -0.234 N 
ATOM      4  HN  UNK N   1      34.107  12.552  13.279  1.00  0.00     0.174 HD
HETATM    5  N   UNK N   1      36.168  14.032  13.439  0.00  0.00    -0.023 N 
HETATM    6  C   UNK N   1      35.586  14.243  12.153  0.00  0.00     0.690 C 
HETATM    7  N   UNK N   1      34.521  13.605  11.818  0.00  0.00    -0.234 N 
ATOM      8  HN  UNK N   1      34.105  13.755  10.899  1.00  0.00     0.174 HD
HETATM    9  N   UNK N   1      36.192  15.163  11.242  0.00  0.00    -0.192 N 
HETATM   10  H   UNK N   1      37.117  13.541  15.817  0.00  0.00     0.178 HD
HETATM   11  H   UNK N   1      34.221  11.840  14.858  0.00  0.00     0.174 HD
HETATM   12  H   UNK N   1      36.984  14.535  13.665  0.00  0.00     0.203 HD
HETATM   13  H   UNK N   1      34.107  12.972  12.449  0.00  0.00     0.174 HD
HETATM   14  H   UNK N   1      37.006  15.630  11.539  0.00  0.00     0.184 HD
ENDROOT
BRANCH   9  15
HETATM   15  C   UNK N   1      35.702  15.454   9.932  0.00  0.00     0.051 A 
HETATM   16  C   UNK N   1      35.936  14.553   8.886  0.00  0.00     0.032 A 
HETATM   17  C   UNK N   1      35.459  14.830   7.598  0.00  0.00     0.028 A 
HETATM   18  C   UNK N   1      34.745  16.008   7.344  0.00  0.00     0.055 A 
HETATM   19  C   UNK N   1      34.508  16.913   8.389  0.00  0.00     0.058 A 
HETATM   20 Cl   UNK N   1      34.159  16.329   5.721  0.00  0.00    -0.083 Cl
HETATM   21  C   UNK N   1      34.985  16.630   9.664  0.00  0.00     0.055 A 
HETATM   22 Cl   UNK N   1      33.620  18.406   8.136  0.00  0.00    -0.082 Cl
ENDBRANCH   9  15
BRANCH   1  23
HETATM   23  C   UNK N   1      35.878  12.137  16.762  0.00  0.00     0.091 C 
HETATM   24  C   UNK N   1      35.089  12.772  17.886  0.00  0.00     0.032 C 
HETATM   25  C   UNK N   1      36.216  10.653  16.799  0.00  0.00     0.032 C 
ENDBRANCH   1  23
TORSDOF 2
ENDMDL
MODEL 6
REMARK VINA RESULT:      -5.9      5.448      9.319
REMARK  2 active torsions:
REMARK  status: ('A' for Active; 'I' for Inactive)
REMARK    1  A    between atoms: C_2  and  N_4 
REMARK       I    between atoms: N_4  and  C_5 
REMARK       I    between atoms: C_5  and  N_8 
REMARK       I    between atoms: N_8  and  C_9 
REMARK       I    between atoms: C_9  and  N_12 
REMARK    2  A    between atoms: N_12  and  C_13 
ROOT
HETATM    1  N   UNK N   1      35.198  14.351  12.232  0.00  0.00    -0.222 N 
HETATM    2  C   UNK N   1      34.370  14.287  11.075  0.00  0.00     0.686 C 
HETATM    3  N   UNK N   1      34.104  13.151  10.533  0.00  0.00    -0.234 N 
ATOM      4  HN  UNK N   1      33.511  13.109   9.704  1.00  0.00     0.174 HD
HETATM    5  N   UNK N   1      33.839  15.494  10.522  0.00  0.00    -0.023 N 
HETATM    6  C   UNK N   1      33.001  15.547   9.368  0.00  0.00     0.690 C 
HETATM    7  N   UNK N   1      32.681  14.461   8.757  0.00  0.00    -0.234 N 
ATOM      8  HN  UNK N   1      32.083  14.498   7.932  1.00  0.00     0.174 HD
HETATM    9  N   UNK N   1      32.522  16.808   8.895  0.00  0.00    -0.192 N 
HETATM   10  H   UNK N   1      35.377  15.241  12.611  0.00  0.00     0.178 HD
HETATM   11  H   UNK N   1      34.472  12.324  10.918  0.00  0.00     0.174 HD
HETATM   12  H   UNK N   1      34.066  16.343  10.966  0.00  0.00     0.203 HD
HETATM   13  H   UNK N   1      33.013  13.595   9.086  0.00  0.00     0.174 HD
HETATM   14  H   UNK N   1      32.791  17.614   9.393  0.00  0.00     0.184 HD
ENDROOT
BRANCH   9  15
HETATM   15  C   UNK N   1      31.681  16.984   7.754  0.00  0.00     0.051 A 
HETATM   16  C   UNK N   1      30.289  16.989   7.911  0.00  0.00     0.032 A 
HETATM   17  C   UNK N   1      29.455  17.161   6.798  0.00  0.00     0.028 A 
HETATM   18  C   UNK N   1      30.004  17.329   5.521  0.00  0.00     0.055 A 
HETATM   19  C   UNK N   1      31.397  17.325   5.359  0.00  0.00     0.058 A 
HETATM   20 Cl   UNK N   1      28.936  17.542   4.144  0.00  0.00    -0.083 Cl
HETATM   21  C   UNK N   1      32.217  17.154   6.469  0.00  0.00     0.055 A 
HETATM   22 Cl   UNK N   1      32.147  17.531   3.785  0.00  0.00    -0.082 Cl
ENDBRANCH   9  15
BRANCH   1  23
HETATM   23  C   UNK N   1      35.796  13.206  12.899  0.00  0.00     0.091 C 
HETATM   24  C   UNK N   1      35.063  12.636  14.092  0.00  0.00     0.032 C 
HETATM   25  C   UNK N   1      37.118  12.602  12.445  0.00  0.00     0.032 C 
ENDBRANCH   1  23
TORSDOF 2
ENDMDL
MODEL 7
REMARK VINA RESULT:      -5.9      4.864      8.740
REMARK  2 active torsions:
REMARK  status: ('A' for Active; 'I' for Inactive)
REMARK    1  A    between atoms: C_2  and  N_4 
REMARK       I    between atoms: N_4  and  C_5 
REMARK       I    between atoms: C_5  and  N_8 
REMARK       I    between atoms: N_8  and  C_9 
REMARK       I    between atoms: C_9  and  N_12 
REMARK    2  A    between atoms: N_12  and  C_13 
ROOT
HETATM    1  N   UNK N   1      36.262  14.183  11.679  0.00  0.00    -0.222 N 
HETATM    2  C   UNK N   1      35.018  14.180  10.986  0.00  0.00     0.686 C 
HETATM    3  N   UNK N   1      34.316  13.104  10.922  0.00  0.00    -0.234 N 
ATOM      4  HN  UNK N   1      33.425  13.106  10.424  1.00  0.00     0.174 HD
HETATM    5  N   UNK N   1      34.557  15.382  10.362  0.00  0.00    -0.023 N 
HETATM    6  C   UNK N   1      33.330  15.492   9.642  0.00  0.00     0.690 C 
HETATM    7  N   UNK N   1      32.560  14.468   9.525  0.00  0.00    -0.234 N 
ATOM      8  HN  UNK N   1      31.683  14.547   9.011  1.00  0.00     0.174 HD
HETATM    9  N   UNK N   1      32.961  16.743   9.055  0.00  0.00    -0.192 N 
HETATM   10  H   UNK N   1      36.767  15.027  11.699  0.00  0.00     0.178 HD
HETATM   11  H   UNK N   1      34.637  12.281  11.354  0.00  0.00     0.174 HD
HETATM   12  H   UNK N   1      35.124  16.184  10.433  0.00  0.00     0.203 HD
HETATM   13  H   UNK N   1      32.818  13.610   9.931  0.00  0.00     0.174 HD
HETATM   14  H   UNK N   1      33.579  17.500   9.169  0.00  0.00     0.184 HD
ENDROOT
BRANCH   9  15
HETATM   15  C   UNK N   1      31.761  16.972   8.314  0.00  0.00     0.051 A 
HETATM   16  C   UNK N   1      31.761  16.811   6.923  0.00  0.00     0.032 A 
HETATM   17  C   UNK N   1      30.589  17.034   6.188  0.00  0.00     0.028 A 
HETATM   18  C   UNK N   1      29.409  17.419   6.836  0.00  0.00     0.055 A 
HETATM   19  C   UNK N   1      29.404  17.581   8.229  0.00  0.00     0.058 A 
HETATM   20 Cl   UNK N   1      27.955  17.691   5.890  0.00  0.00    -0.083 Cl
HETATM   21  C   UNK N   1      30.571  17.358   8.950  0.00  0.00     0.055 A 
HETATM   22 Cl   UNK N   1      27.957  18.062   9.100  0.00  0.00    -0.082 Cl
ENDBRANCH   9  15
BRANCH   1  23
HETATM   23  C   UNK N   1      36.844  13.038  12.360  0.00  0.00     0.091 C 
HETATM   24  C   UNK N   1      37.812  12.182  11.575  0.00  0.00     0.032 C 
HETATM   25  C   UNK N   1      36.494  12.685  13.799  0.00  0.00     0.032 C 
ENDBRANCH   1  23
TORSDOF 2
ENDMDL
MODEL 8
REMARK VINA RESULT:      -5.7      6.559      9.171
REMARK  2 active torsions:
REMARK  status: ('A' for Active; 'I' for Inactive)
REMARK    1  A    between atoms: C_2  and  N_4 
REMARK       I    between atoms: N_4  and  C_5 
REMARK       I    between atoms: C_5  and  N_8 
REMARK       I    between atoms: N_8  and  C_9 
REMARK       I    between atoms: C_9  and  N_12 
REMARK    2  A    between atoms: N_12  and  C_13 
ROOT
HETATM    1  N   UNK N   1      25.685  19.073   5.580  0.00  0.00    -0.222 N 
HETATM    2  C   UNK N   1      26.982  18.485   5.585  0.00  0.00     0.686 C 
HETATM    3  N   UNK N   1      27.472  17.993   4.502  0.00  0.00    -0.234 N 
ATOM      4  HN  UNK N   1      28.401  17.572   4.510  1.00  0.00     0.174 HD
HETATM    5  N   UNK N   1      27.732  18.447   6.801  0.00  0.00    -0.023 N 
HETATM    6  C   UNK N   1      29.038  17.883   6.921  0.00  0.00     0.690 C 
HETATM    7  N   UNK N   1      29.610  17.366   5.892  0.00  0.00    -0.234 N 
ATOM      8  HN  UNK N   1      30.543  16.963   5.976  1.00  0.00     0.174 HD
HETATM    9  N   UNK N   1      29.704  17.895   8.186  0.00  0.00    -0.192 N 
HETATM   10  H   UNK N   1      25.348  19.434   6.431  0.00  0.00     0.178 HD
HETATM   11  H   UNK N   1      26.951  18.023   3.668  0.00  0.00     0.174 HD
HETATM   12  H   UNK N   1      27.321  18.834   7.608  0.00  0.00     0.203 HD
HETATM   13  H   UNK N   1      29.148  17.360   5.023  0.00  0.00     0.174 HD
HETATM   14  H   UNK N   1      29.229  18.301   8.947  0.00  0.00     0.184 HD
ENDROOT
BRANCH   9  15
HETATM   15  C   UNK N   1      31.007  17.362   8.426  0.00  0.00     0.051 A 
HETATM   16  C   UNK N   1      31.149  16.031   8.836  0.00  0.00     0.032 A 
HETATM   17  C   UNK N   1      32.423  15.498   9.074  0.00  0.00     0.028 A 
HETATM   18  C   UNK N   1      33.565  16.290   8.903  0.00  0.00     0.055 A 
HETATM   19  C   UNK N   1      33.428  17.624   8.492  0.00  0.00     0.058 A 
HETATM   20 Cl   UNK N   1      35.149  15.597   9.208  0.00  0.00    -0.083 Cl
HETATM   21  C   UNK N   1      32.160  18.144   8.259  0.00  0.00     0.055 A 
HETATM   22 Cl   UNK N   1      34.820  18.668   8.260  0.00  0.00    -0.082 Cl
ENDBRANCH   9  15
BRANCH   1  23
HETATM   23  C   UNK N   1      24.819  19.184   4.417  0.00  0.00     0.091 C 
HETATM   24  C   UNK N   1      25.096  20.314   3.451  0.00  0.00     0.032 C 
HETATM   25  C   UNK N   1      23.662  18.225   4.171  0.00  0.00     0.032 C 
ENDBRANCH   1  23
TORSDOF 2
ENDMDL
MODEL 9
REMARK VINA RESULT:      -5.5      1.717      2.272
REMARK  2 active torsions:
REMARK  status: ('A' for Active; 'I' for Inactive)
REMARK    1  A    between atoms: C_2  and  N_4 
REMARK       I    between atoms: N_4  and  C_5 
REMARK       I    between atoms: C_5  and  N_8 
REMARK       I    between atoms: N_8  and  C_9 
REMARK       I    between atoms: C_9  and  N_12 
REMARK    2  A    between atoms: N_12  and  C_13 
ROOT
HETATM    1  N   UNK N   1      34.232  14.815   9.270  0.00  0.00    -0.222 N 
HETATM    2  C   UNK N   1      34.911  14.545  10.493  0.00  0.00     0.686 C 
HETATM    3  N   UNK N   1      35.981  15.192  10.794  0.00  0.00    -0.234 N 
ATOM      4  HN  UNK N   1      36.465  14.996  11.671  1.00  0.00     0.174 HD
HETATM    5  N   UNK N   1      34.393  13.550  11.381  0.00  0.00    -0.023 N 
HETATM    6  C   UNK N   1      34.991  13.199  12.628  0.00  0.00     0.690 C 
HETATM    7  N   UNK N   1      36.065  13.793  13.014  0.00  0.00    -0.234 N 
ATOM      8  HN  UNK N   1      36.492  13.542  13.906  1.00  0.00     0.174 HD
HETATM    9  N   UNK N   1      34.392  12.189  13.443  0.00  0.00    -0.192 N 
HETATM   10  H   UNK N   1      33.420  14.294   9.079  0.00  0.00     0.178 HD
HETATM   11  H   UNK N   1      36.332  15.876  10.180  0.00  0.00     0.174 HD
HETATM   12  H   UNK N   1      33.572  13.077  11.113  0.00  0.00     0.203 HD
HETATM   13  H   UNK N   1      36.474  14.488  12.450  0.00  0.00     0.174 HD
HETATM   14  H   UNK N   1      33.571  11.760  13.109  0.00  0.00     0.184 HD
ENDROOT
BRANCH   9  15
HETATM   15  C   UNK N   1      34.899  11.755  14.706  0.00  0.00     0.051 A 
HETATM   16  C   UNK N   1      35.510  10.500  14.816  0.00  0.00     0.032 A 
HETATM   17  C   UNK N   1      36.011  10.065  16.051  0.00  0.00     0.028 A 
HETATM   18  C   UNK N   1      35.905  10.880  17.185  0.00  0.00     0.055 A 
HETATM   19  C   UNK N   1      35.293  12.138  17.079  0.00  0.00     0.058 A 
HETATM   20 Cl   UNK N   1      36.540  10.310  18.719  0.00  0.00    -0.083 Cl
HETATM   21  C   UNK N   1      34.800  12.561  15.850  0.00  0.00     0.055 A 
HETATM   22 Cl   UNK N   1      35.130  13.206  18.463  0.00  0.00    -0.082 Cl
ENDBRANCH   9  15
BRANCH   1  23
HETATM   23  C   UNK N   1      34.643  15.800   8.283  0.00  0.00     0.091 C 
HETATM   24  C   UNK N   1      35.293  15.285   7.018  0.00  0.00     0.032 C 
HETATM   25  C   UNK N   1      34.455  17.295   8.501  0.00  0.00     0.032 C 
ENDBRANCH   1  23
TORSDOF 2
ENDMDL
