MODEL 1
REMARK VINA RESULT:      -8.9      0.000      0.000
REMARK  8 active torsions:
REMARK  status: ('A' for Active; 'I' for Inactive)
REMARK    1  A    between atoms: C_3  and  N_32 
REMARK    2  A    between atoms: C_7  and  N_13 
REMARK    3  A    between atoms: N_13  and  C_14 
REMARK    4  A    between atoms: N_23  and  C_24 
REMARK    5  A    between atoms: C_24  and  C_25 
REMARK       I    between atoms: N_32  and  C_33 
REMARK    6  A    between atoms: C_33  and  O_35 
REMARK    7  A    between atoms: O_35  and  C_36 
REMARK    8  A    between atoms: C_37  and  C_36 
ROOT
HETATM    1  C   UNK N   1      30.975  17.750   8.024  0.00  0.00     0.053 C 
HETATM    2  C   UNK N   1      31.995  17.454   6.975  0.00  0.00    -0.001 A 
HETATM    3  C   UNK N   1      33.327  17.200   7.180  0.00  0.00     0.062 A 
HETATM    4  C   UNK N   1      33.931  16.923   5.964  0.00  0.00     0.147 A 
HETATM    5  N   UNK N   1      32.965  17.015   5.032  0.00  0.00    -0.260 N 
HETATM    6  C   UNK N   1      31.804  17.314   5.640  0.00  0.00     0.108 A 
HETATM    7  C   UNK N   1      30.647  17.370   4.913  0.00  0.00     0.136 A 
HETATM    8  N   UNK N   1      30.744  17.155   3.562  0.00  0.00    -0.336 N 
ATOM      9  HN  UNK N   1      29.902  17.208   2.989  1.00  0.00     0.168 HD
HETATM   10  C   UNK N   1      31.940  16.871   2.967  0.00  0.00     0.199 A 
HETATM   11  N   UNK N   1      33.065  16.788   3.728  0.00  0.00    -0.289 N 
ATOM     12  HN  UNK N   1      33.965  16.555   3.308  1.00  0.00     0.188 HD
ENDROOT
BRANCH   7  13
HETATM   13  N   UNK N   1      29.374  17.548   5.546  0.00  0.00    -0.341 N 
HETATM   14  H   UNK N   1      29.299  17.641   6.523  0.00  0.00     0.167 HD
BRANCH  13  15
HETATM   15  C   UNK N   1      28.233  17.586   4.721  0.00  0.00     0.034 A 
HETATM   16  C   UNK N   1      27.463  16.413   4.516  0.00  0.00     0.032 A 
HETATM   17  C   UNK N   1      26.107  16.525   4.131  0.00  0.00     0.034 A 
HETATM   18  C   UNK N   1      25.586  17.819   4.016  0.00  0.00     0.062 A 
HETATM   19  C   UNK N   1      26.372  18.918   4.137  0.00  0.00     0.011 A 
HETATM   20  N   UNK N   1      24.324  18.231   3.848  0.00  0.00    -0.288 N 
HETATM   21  C   UNK N   1      27.685  18.847   4.457  0.00  0.00     0.044 A 
HETATM   22  C   UNK N   1      25.571  20.016   4.034  0.00  0.00     0.121 A 
HETATM   23  N   UNK N   1      24.316  19.563   3.863  0.00  0.00    -0.308 N 
ATOM     24  HN  UNK N   1      23.487  20.149   3.761  1.00  0.00     0.186 HD
BRANCH  20  25
HETATM   25  C   UNK N   1      23.121  17.399   3.719  0.00  0.00     0.187 C 
BRANCH  25  26
HETATM   26  C   UNK N   1      22.514  17.079   5.062  0.00  0.00    -0.035 A 
HETATM   27  C   UNK N   1      21.567  17.935   5.636  0.00  0.00     0.009 A 
HETATM   28  C   UNK N   1      20.970  17.596   6.858  0.00  0.00     0.004 A 
HETATM   29  C   UNK N   1      21.285  16.383   7.485  0.00  0.00     0.042 A 
HETATM   30  C   UNK N   1      22.225  15.527   6.908  0.00  0.00     0.117 A 
HETATM   31  C   UNK N   1      22.847  15.888   5.722  0.00  0.00     0.051 A 
HETATM   32  F   UNK N   1      22.507  14.328   7.471  0.00  0.00    -0.206 F 
ENDBRANCH  25  26
ENDBRANCH  20  25
ENDBRANCH  13  15
ENDBRANCH   7  13
BRANCH   3  33
HETATM   33  N   UNK N   1      33.863  17.076   8.460  0.00  0.00    -0.301 N 
HETATM   34  C   UNK N   1      34.782  17.962   8.915  0.00  0.00     0.365 C 
HETATM   35  O   UNK N   1      34.918  19.051   8.373  0.00  0.00    -0.238 OA
HETATM   36  H   UNK N   1      33.572  16.336   9.041  0.00  0.00     0.171 HD
BRANCH  34  37
HETATM   37  O   UNK N   1      35.638  17.595   9.901  0.00  0.00    -0.302 OA
BRANCH  37  38
HETATM   38  C   UNK N   1      35.301  16.626  10.840  0.00  0.00     0.207 C 
BRANCH  38  39
HETATM   39  C   UNK N   1      36.186  15.382  10.749  0.00  0.00     0.124 C 
HETATM   40  C   UNK N   1      35.543  14.252   9.944  0.00  0.00     0.194 C 
HETATM   41  O   UNK N   1      34.512  13.668  10.694  0.00  0.00    -0.387 OA
HETATM   42  C   UNK N   1      35.143  13.026  11.771  0.00  0.00     0.186 C 
HETATM   43  C   UNK N   1      35.671  14.088  12.735  0.00  0.00     0.140 C 
HETATM   44  N   UNK N   1      36.666  14.927  12.061  0.00  0.00    -0.411 N 
HETATM   45  H   UNK N   1      37.576  15.166  12.453  0.00  0.00     0.153 HD
ENDBRANCH  38  39
ENDBRANCH  37  38
ENDBRANCH  34  37
ENDBRANCH   3  33
TORSDOF 8
ENDMDL
MODEL 2
REMARK VINA RESULT:      -8.9      4.585     11.891
REMARK  8 active torsions:
REMARK  status: ('A' for Active; 'I' for Inactive)
REMARK    1  A    between atoms: C_3  and  N_32 
REMARK    2  A    between atoms: C_7  and  N_13 
REMARK    3  A    between atoms: N_13  and  C_14 
REMARK    4  A    between atoms: N_23  and  C_24 
REMARK    5  A    between atoms: C_24  and  C_25 
REMARK       I    between atoms: N_32  and  C_33 
REMARK    6  A    between atoms: C_33  and  O_35 
REMARK    7  A    between atoms: O_35  and  C_36 
REMARK    8  A    between atoms: C_37  and  C_36 
ROOT
HETATM    1  C   UNK N   1      33.118  17.579   8.486  0.00  0.00     0.053 C 
HETATM    2  C   UNK N   1      32.434  16.448   7.793  0.00  0.00    -0.001 A 
HETATM    3  C   UNK N   1      31.186  16.475   7.224  0.00  0.00     0.062 A 
HETATM    4  C   UNK N   1      30.926  15.246   6.638  0.00  0.00     0.147 A 
HETATM    5  N   UNK N   1      32.013  14.485   6.857  0.00  0.00    -0.260 N 
HETATM    6  C   UNK N   1      32.921  15.210   7.531  0.00  0.00     0.108 A 
HETATM    7  C   UNK N   1      34.155  14.684   7.796  0.00  0.00     0.136 A 
HETATM    8  N   UNK N   1      34.390  13.398   7.384  0.00  0.00    -0.336 N 
ATOM      9  HN  UNK N   1      35.295  12.970   7.581  1.00  0.00     0.168 HD
HETATM   10  C   UNK N   1      33.443  12.676   6.717  0.00  0.00     0.199 A 
HETATM   11  N   UNK N   1      32.237  13.245   6.440  0.00  0.00    -0.289 N 
ATOM     12  HN  UNK N   1      31.523  12.732   5.923  1.00  0.00     0.188 HD
ENDROOT
BRANCH   7  13
HETATM   13  N   UNK N   1      35.194  15.474   8.388  0.00  0.00    -0.341 N 
HETATM   14  H   UNK N   1      35.620  16.210   7.892  0.00  0.00     0.167 HD
BRANCH  13  15
HETATM   15  C   UNK N   1      35.583  15.162   9.705  0.00  0.00     0.034 A 
HETATM   16  C   UNK N   1      34.615  15.106  10.739  0.00  0.00     0.032 A 
HETATM   17  C   UNK N   1      34.875  14.341  11.900  0.00  0.00     0.034 A 
HETATM   18  C   UNK N   1      36.083  13.636  11.936  0.00  0.00     0.062 A 
HETATM   19  C   UNK N   1      37.022  13.779  10.968  0.00  0.00     0.011 A 
HETATM   20  N   UNK N   1      36.518  12.709  12.799  0.00  0.00    -0.288 N 
HETATM   21  C   UNK N   1      36.828  14.540   9.866  0.00  0.00     0.044 A 
HETATM   22  C   UNK N   1      38.048  12.927  11.253  0.00  0.00     0.121 A 
HETATM   23  N   UNK N   1      37.707  12.277  12.380  0.00  0.00    -0.308 N 
ATOM     24  HN  UNK N   1      38.272  11.566  12.843  1.00  0.00     0.186 HD
BRANCH  20  25
HETATM   25  C   UNK N   1      35.819  12.189  13.981  0.00  0.00     0.187 C 
BRANCH  25  26
HETATM   26  C   UNK N   1      35.932  13.127  15.156  0.00  0.00    -0.035 A 
HETATM   27  C   UNK N   1      35.217  12.881  16.334  0.00  0.00     0.009 A 
HETATM   28  C   UNK N   1      35.376  13.730  17.438  0.00  0.00     0.004 A 
HETATM   29  C   UNK N   1      36.279  14.799  17.381  0.00  0.00     0.042 A 
HETATM   30  C   UNK N   1      36.997  15.041  16.208  0.00  0.00     0.117 A 
HETATM   31  C   UNK N   1      36.803  14.225  15.103  0.00  0.00     0.051 A 
HETATM   32  F   UNK N   1      37.912  16.038  16.149  0.00  0.00    -0.206 F 
ENDBRANCH  25  26
ENDBRANCH  20  25
ENDBRANCH  13  15
ENDBRANCH   7  13
BRANCH   3  33
HETATM   33  N   UNK N   1      30.444  17.651   7.135  0.00  0.00    -0.301 N 
HETATM   34  C   UNK N   1      29.514  17.956   8.072  0.00  0.00     0.365 C 
HETATM   35  O   UNK N   1      29.528  17.406   9.165  0.00  0.00    -0.238 OA
HETATM   36  H   UNK N   1      30.596  18.266   6.382  0.00  0.00     0.171 HD
BRANCH  34  37
HETATM   37  O   UNK N   1      28.491  18.789   7.756  0.00  0.00    -0.302 OA
BRANCH  37  38
HETATM   38  C   UNK N   1      27.808  18.686   6.550  0.00  0.00     0.207 C 
BRANCH  38  39
HETATM   39  C   UNK N   1      27.774  20.005   5.775  0.00  0.00     0.124 C 
HETATM   40  C   UNK N   1      26.442  20.743   5.916  0.00  0.00     0.194 C 
HETATM   41  O   UNK N   1      25.457  20.084   5.165  0.00  0.00    -0.387 OA
HETATM   42  C   UNK N   1      25.823  20.260   3.822  0.00  0.00     0.186 C 
HETATM   43  C   UNK N   1      27.060  19.408   3.535  0.00  0.00     0.140 C 
HETATM   44  N   UNK N   1      28.179  19.851   4.371  0.00  0.00    -0.411 N 
HETATM   45  H   UNK N   1      29.120  20.029   4.023  0.00  0.00     0.153 HD
ENDBRANCH  38  39
ENDBRANCH  37  38
ENDBRANCH  34  37
ENDBRANCH   3  33
TORSDOF 8
ENDMDL
MODEL 3
REMARK VINA RESULT:      -8.8      4.849     11.569
REMARK  8 active torsions:
REMARK  status: ('A' for Active; 'I' for Inactive)
REMARK    1  A    between atoms: C_3  and  N_32 
REMARK    2  A    between atoms: C_7  and  N_13 
REMARK    3  A    between atoms: N_13  and  C_14 
REMARK    4  A    between atoms: N_23  and  C_24 
REMARK    5  A    between atoms: C_24  and  C_25 
REMARK       I    between atoms: N_32  and  C_33 
REMARK    6  A    between atoms: C_33  and  O_35 
REMARK    7  A    between atoms: O_35  and  C_36 
REMARK    8  A    between atoms: C_37  and  C_36 
ROOT
HETATM    1  C   UNK N   1      27.430  18.972   4.861  0.00  0.00     0.053 C 
HETATM    2  C   UNK N   1      26.909  17.843   4.035  0.00  0.00    -0.001 A 
HETATM    3  C   UNK N   1      25.598  17.611   3.704  0.00  0.00     0.062 A 
HETATM    4  C   UNK N   1      25.525  16.495   2.886  0.00  0.00     0.147 A 
HETATM    5  N   UNK N   1      26.788  16.058   2.729  0.00  0.00    -0.260 N 
HETATM    6  C   UNK N   1      27.616  16.875   3.401  0.00  0.00     0.108 A 
HETATM    7  C   UNK N   1      28.969  16.694   3.320  0.00  0.00     0.136 A 
HETATM    8  N   UNK N   1      29.416  15.635   2.573  0.00  0.00    -0.336 N 
ATOM      9  HN  UNK N   1      30.419  15.462   2.507  1.00  0.00     0.168 HD
HETATM   10  C   UNK N   1      28.552  14.808   1.915  0.00  0.00     0.199 A 
HETATM   11  N   UNK N   1      27.213  15.041   1.989  0.00  0.00    -0.289 N 
ATOM     12  HN  UNK N   1      26.550  14.449   1.488  1.00  0.00     0.188 HD
ENDROOT
BRANCH   7  13
HETATM   13  N   UNK N   1      29.885  17.626   3.908  0.00  0.00    -0.341 N 
HETATM   14  H   UNK N   1      29.885  18.575   3.646  0.00  0.00     0.167 HD
BRANCH  13  15
HETATM   15  C   UNK N   1      30.785  17.137   4.875  0.00  0.00     0.034 A 
HETATM   16  C   UNK N   1      32.180  17.321   4.706  0.00  0.00     0.032 A 
HETATM   17  C   UNK N   1      33.031  17.298   5.836  0.00  0.00     0.034 A 
HETATM   18  C   UNK N   1      32.420  17.134   7.085  0.00  0.00     0.062 A 
HETATM   19  C   UNK N   1      31.094  16.877   7.202  0.00  0.00     0.011 A 
HETATM   20  N   UNK N   1      32.929  17.248   8.318  0.00  0.00    -0.288 N 
HETATM   21  C   UNK N   1      30.258  16.844   6.139  0.00  0.00     0.044 A 
HETATM   22  C   UNK N   1      30.795  16.828   8.532  0.00  0.00     0.121 A 
HETATM   23  N   UNK N   1      31.941  17.066   9.193  0.00  0.00    -0.308 N 
ATOM     24  HN  UNK N   1      32.039  17.102  10.208  1.00  0.00     0.186 HD
BRANCH  20  25
HETATM   25  C   UNK N   1      34.314  17.568   8.688  0.00  0.00     0.187 C 
BRANCH  25  26
HETATM   26  C   UNK N   1      34.979  16.424   9.412  0.00  0.00    -0.035 A 
HETATM   27  C   UNK N   1      35.430  15.302   8.707  0.00  0.00     0.009 A 
HETATM   28  C   UNK N   1      36.097  14.273   9.385  0.00  0.00     0.004 A 
HETATM   29  C   UNK N   1      36.351  14.382  10.759  0.00  0.00     0.042 A 
HETATM   30  C   UNK N   1      35.906  15.504  11.460  0.00  0.00     0.117 A 
HETATM   31  C   UNK N   1      35.207  16.499  10.794  0.00  0.00     0.051 A 
HETATM   32  F   UNK N   1      36.185  15.653  12.777  0.00  0.00    -0.206 F 
ENDBRANCH  25  26
ENDBRANCH  20  25
ENDBRANCH  13  15
ENDBRANCH   7  13
BRANCH   3  33
HETATM   33  N   UNK N   1      24.587  18.513   4.030  0.00  0.00    -0.301 N 
HETATM   34  C   UNK N   1      23.495  18.109   4.723  0.00  0.00     0.365 C 
HETATM   35  O   UNK N   1      23.513  17.062   5.358  0.00  0.00    -0.238 OA
HETATM   36  H   UNK N   1      24.666  19.454   3.752  0.00  0.00     0.171 HD
BRANCH  34  37
HETATM   37  O   UNK N   1      22.337  18.807   4.620  0.00  0.00    -0.302 OA
BRANCH  37  38
HETATM   38  C   UNK N   1      21.728  19.035   3.391  0.00  0.00     0.207 C 
BRANCH  38  39
HETATM   39  C   UNK N   1      20.314  18.456   3.315  0.00  0.00     0.124 C 
HETATM   40  C   UNK N   1      20.205  17.069   3.949  0.00  0.00     0.194 C 
HETATM   41  O   UNK N   1      20.818  16.121   3.116  0.00  0.00    -0.387 OA
HETATM   42  C   UNK N   1      20.017  16.053   1.966  0.00  0.00     0.186 C 
HETATM   43  C   UNK N   1      20.199  17.342   1.164  0.00  0.00     0.140 C 
HETATM   44  N   UNK N   1      19.757  18.492   1.956  0.00  0.00    -0.411 N 
HETATM   45  H   UNK N   1      19.140  19.226   1.608  0.00  0.00     0.153 HD
ENDBRANCH  38  39
ENDBRANCH  37  38
ENDBRANCH  34  37
ENDBRANCH   3  33
TORSDOF 8
ENDMDL
MODEL 4
REMARK VINA RESULT:      -8.8      1.781      2.255
REMARK  8 active torsions:
REMARK  status: ('A' for Active; 'I' for Inactive)
REMARK    1  A    between atoms: C_3  and  N_32 
REMARK    2  A    between atoms: C_7  and  N_13 
REMARK    3  A    between atoms: N_13  and  C_14 
REMARK    4  A    between atoms: N_23  and  C_24 
REMARK    5  A    between atoms: C_24  and  C_25 
REMARK       I    between atoms: N_32  and  C_33 
REMARK    6  A    between atoms: C_33  and  O_35 
REMARK    7  A    between atoms: O_35  and  C_36 
REMARK    8  A    between atoms: C_37  and  C_36 
ROOT
HETATM    1  C   UNK N   1      31.091  17.899   8.017  0.00  0.00     0.053 C 
HETATM    2  C   UNK N   1      32.084  17.498   6.978  0.00  0.00    -0.001 A 
HETATM    3  C   UNK N   1      33.396  17.159   7.191  0.00  0.00     0.062 A 
HETATM    4  C   UNK N   1      33.976  16.800   5.984  0.00  0.00     0.147 A 
HETATM    5  N   UNK N   1      33.016  16.928   5.051  0.00  0.00    -0.260 N 
HETATM    6  C   UNK N   1      31.880  17.327   5.648  0.00  0.00     0.108 A 
HETATM    7  C   UNK N   1      30.728  17.440   4.920  0.00  0.00     0.136 A 
HETATM    8  N   UNK N   1      30.806  17.173   3.578  0.00  0.00    -0.336 N 
ATOM      9  HN  UNK N   1      29.968  17.266   3.004  1.00  0.00     0.168 HD
HETATM   10  C   UNK N   1      31.977  16.788   2.992  0.00  0.00     0.199 A 
HETATM   11  N   UNK N   1      33.096  16.651   3.755  0.00  0.00    -0.289 N 
ATOM     12  HN  UNK N   1      33.977  16.343   3.342  1.00  0.00     0.188 HD
ENDROOT
BRANCH   7  13
HETATM   13  N   UNK N   1      29.472  17.727   5.548  0.00  0.00    -0.341 N 
HETATM   14  H   UNK N   1      29.429  18.203   6.408  0.00  0.00     0.167 HD
BRANCH  13  15
HETATM   15  C   UNK N   1      28.301  17.303   4.890  0.00  0.00     0.034 A 
HETATM   16  C   UNK N   1      27.717  16.052   5.210  0.00  0.00     0.032 A 
HETATM   17  C   UNK N   1      26.343  15.835   4.955  0.00  0.00     0.034 A 
HETATM   18  C   UNK N   1      25.619  16.911   4.430  0.00  0.00     0.062 A 
HETATM   19  C   UNK N   1      26.226  18.065   4.057  0.00  0.00     0.011 A 
HETATM   20  N   UNK N   1      24.301  17.063   4.255  0.00  0.00    -0.288 N 
HETATM   21  C   UNK N   1      27.548  18.290   4.241  0.00  0.00     0.044 A 
HETATM   22  C   UNK N   1      25.258  18.931   3.643  0.00  0.00     0.121 A 
HETATM   23  N   UNK N   1      24.083  18.290   3.782  0.00  0.00    -0.308 N 
ATOM     24  HN  UNK N   1      23.169  18.682   3.559  1.00  0.00     0.186 HD
BRANCH  20  25
HETATM   25  C   UNK N   1      23.240  16.097   4.565  0.00  0.00     0.187 C 
BRANCH  25  26
HETATM   26  C   UNK N   1      22.483  15.679   3.329  0.00  0.00    -0.035 A 
HETATM   27  C   UNK N   1      21.176  16.130   3.109  0.00  0.00     0.009 A 
HETATM   28  C   UNK N   1      20.507  15.779   1.929  0.00  0.00     0.004 A 
HETATM   29  C   UNK N   1      21.155  15.014   0.950  0.00  0.00     0.042 A 
HETATM   30  C   UNK N   1      22.461  14.570   1.168  0.00  0.00     0.117 A 
HETATM   31  C   UNK N   1      23.103  14.882   2.357  0.00  0.00     0.051 A 
HETATM   32  F   UNK N   1      23.123  13.873   0.214  0.00  0.00    -0.206 F 
ENDBRANCH  25  26
ENDBRANCH  20  25
ENDBRANCH  13  15
ENDBRANCH   7  13
BRANCH   3  33
HETATM   33  N   UNK N   1      33.926  17.040   8.474  0.00  0.00    -0.301 N 
HETATM   34  C   UNK N   1      34.832  17.936   8.935  0.00  0.00     0.365 C 
HETATM   35  O   UNK N   1      34.959  19.027   8.394  0.00  0.00    -0.238 OA
HETATM   36  H   UNK N   1      33.639  16.297   9.053  0.00  0.00     0.171 HD
BRANCH  34  37
HETATM   37  O   UNK N   1      35.686  17.579   9.926  0.00  0.00    -0.302 OA
BRANCH  37  38
HETATM   38  C   UNK N   1      35.341  16.631  10.884  0.00  0.00     0.207 C 
BRANCH  38  39
HETATM   39  C   UNK N   1      36.262  15.410  10.866  0.00  0.00     0.124 C 
HETATM   40  C   UNK N   1      35.754  14.295   9.950  0.00  0.00     0.194 C 
HETATM   41  O   UNK N   1      34.652  13.664  10.545  0.00  0.00    -0.387 OA
HETATM   42  C   UNK N   1      35.159  12.998  11.671  0.00  0.00     0.186 C 
HETATM   43  C   UNK N   1      35.533  14.038  12.728  0.00  0.00     0.140 C 
HETATM   44  N   UNK N   1      36.583  14.920  12.213  0.00  0.00    -0.411 N 
HETATM   45  H   UNK N   1      37.430  15.164  12.725  0.00  0.00     0.153 HD
ENDBRANCH  38  39
ENDBRANCH  37  38
ENDBRANCH  34  37
ENDBRANCH   3  33
TORSDOF 8
ENDMDL
MODEL 5
REMARK VINA RESULT:      -8.7      3.390      5.785
REMARK  8 active torsions:
REMARK  status: ('A' for Active; 'I' for Inactive)
REMARK    1  A    between atoms: C_3  and  N_32 
REMARK    2  A    between atoms: C_7  and  N_13 
REMARK    3  A    between atoms: N_13  and  C_14 
REMARK    4  A    between atoms: N_23  and  C_24 
REMARK    5  A    between atoms: C_24  and  C_25 
REMARK       I    between atoms: N_32  and  C_33 
REMARK    6  A    between atoms: C_33  and  O_35 
REMARK    7  A    between atoms: O_35  and  C_36 
REMARK    8  A    between atoms: C_37  and  C_36 
ROOT
HETATM    1  C   UNK N   1      34.587  16.429   9.962  0.00  0.00     0.053 C 
HETATM    2  C   UNK N   1      34.641  15.020   9.473  0.00  0.00    -0.001 A 
HETATM    3  C   UNK N   1      34.548  13.886  10.239  0.00  0.00     0.062 A 
HETATM    4  C   UNK N   1      34.591  12.773   9.414  0.00  0.00     0.147 A 
HETATM    5  N   UNK N   1      34.712  13.239   8.157  0.00  0.00    -0.260 N 
HETATM    6  C   UNK N   1      34.723  14.582   8.192  0.00  0.00     0.108 A 
HETATM    7  C   UNK N   1      34.745  15.296   7.026  0.00  0.00     0.136 A 
HETATM    8  N   UNK N   1      34.798  14.583   5.856  0.00  0.00    -0.336 N 
ATOM      9  HN  UNK N   1      34.833  15.086   4.969  1.00  0.00     0.168 HD
HETATM   10  C   UNK N   1      34.805  13.218   5.849  0.00  0.00     0.199 A 
HETATM   11  N   UNK N   1      34.746  12.541   7.029  0.00  0.00    -0.289 N 
ATOM     12  HN  UNK N   1      34.728  11.521   7.047  1.00  0.00     0.188 HD
ENDROOT
BRANCH   7  13
HETATM   13  N   UNK N   1      34.616  16.723   7.020  0.00  0.00    -0.341 N 
HETATM   14  H   UNK N   1      35.357  17.303   7.311  0.00  0.00     0.167 HD
BRANCH  13  15
HETATM   15  C   UNK N   1      33.393  17.268   6.582  0.00  0.00     0.034 A 
HETATM   16  C   UNK N   1      33.151  17.454   5.198  0.00  0.00     0.032 A 
HETATM   17  C   UNK N   1      31.821  17.516   4.723  0.00  0.00     0.034 A 
HETATM   18  C   UNK N   1      30.802  17.343   5.667  0.00  0.00     0.062 A 
HETATM   19  C   UNK N   1      31.067  17.251   6.994  0.00  0.00     0.011 A 
HETATM   20  N   UNK N   1      29.485  17.177   5.497  0.00  0.00    -0.288 N 
HETATM   21  C   UNK N   1      32.326  17.237   7.490  0.00  0.00     0.044 A 
HETATM   22  C   UNK N   1      29.887  17.031   7.641  0.00  0.00     0.121 A 
HETATM   23  N   UNK N   1      28.933  16.983   6.694  0.00  0.00    -0.308 N 
ATOM     24  HN  UNK N   1      27.940  16.824   6.867  1.00  0.00     0.186 HD
BRANCH  20  25
HETATM   25  C   UNK N   1      28.742  17.150   4.231  0.00  0.00     0.187 C 
BRANCH  25  26
HETATM   26  C   UNK N   1      27.695  18.234   4.172  0.00  0.00    -0.035 A 
HETATM   27  C   UNK N   1      26.428  17.970   3.638  0.00  0.00     0.009 A 
HETATM   28  C   UNK N   1      25.447  18.971   3.643  0.00  0.00     0.004 A 
HETATM   29  C   UNK N   1      25.715  20.219   4.218  0.00  0.00     0.042 A 
HETATM   30  C   UNK N   1      26.977  20.480   4.756  0.00  0.00     0.117 A 
HETATM   31  C   UNK N   1      27.959  19.502   4.709  0.00  0.00     0.051 A 
HETATM   32  F   UNK N   1      27.241  21.662   5.361  0.00  0.00    -0.206 F 
ENDBRANCH  25  26
ENDBRANCH  20  25
ENDBRANCH  13  15
ENDBRANCH   7  13
BRANCH   3  33
HETATM   33  N   UNK N   1      34.269  13.940  11.603  0.00  0.00    -0.301 N 
HETATM   34  C   UNK N   1      35.223  13.639  12.518  0.00  0.00     0.365 C 
HETATM   35  O   UNK N   1      36.406  13.639  12.206  0.00  0.00    -0.238 OA
HETATM   36  H   UNK N   1      33.369  14.200  11.906  0.00  0.00     0.171 HD
BRANCH  34  37
HETATM   37  O   UNK N   1      34.858  13.221  13.755  0.00  0.00    -0.302 OA
BRANCH  37  38
HETATM   38  C   UNK N   1      35.322  12.024  14.290  0.00  0.00     0.207 C 
BRANCH  38  39
HETATM   39  C   UNK N   1      36.278  12.232  15.466  0.00  0.00     0.124 C 
HETATM   40  C   UNK N   1      36.357  11.016  16.390  0.00  0.00     0.194 C 
HETATM   41  O   UNK N   1      35.180  10.923  17.147  0.00  0.00    -0.387 OA
HETATM   42  C   UNK N   1      35.195  12.030  18.010  0.00  0.00     0.186 C 
HETATM   43  C   UNK N   1      34.943  13.295  17.189  0.00  0.00     0.140 C 
HETATM   44  N   UNK N   1      36.011  13.474  16.203  0.00  0.00    -0.411 N 
HETATM   45  H   UNK N   1      36.506  14.352  16.047  0.00  0.00     0.153 HD
ENDBRANCH  38  39
ENDBRANCH  37  38
ENDBRANCH  34  37
ENDBRANCH   3  33
TORSDOF 8
ENDMDL
MODEL 6
REMARK VINA RESULT:      -8.7      2.479      3.707
REMARK  8 active torsions:
REMARK  status: ('A' for Active; 'I' for Inactive)
REMARK    1  A    between atoms: C_3  and  N_32 
REMARK    2  A    between atoms: C_7  and  N_13 
REMARK    3  A    between atoms: N_13  and  C_14 
REMARK    4  A    between atoms: N_23  and  C_24 
REMARK    5  A    between atoms: C_24  and  C_25 
REMARK       I    between atoms: N_32  and  C_33 
REMARK    6  A    between atoms: C_33  and  O_35 
REMARK    7  A    between atoms: O_35  and  C_36 
REMARK    8  A    between atoms: C_37  and  C_36 
ROOT
HETATM    1  C   UNK N   1      30.650  17.077   4.454  0.00  0.00     0.053 C 
HETATM    2  C   UNK N   1      30.452  17.211   5.927  0.00  0.00    -0.001 A 
HETATM    3  C   UNK N   1      31.288  16.744   6.909  0.00  0.00     0.062 A 
HETATM    4  C   UNK N   1      30.785  17.108   8.147  0.00  0.00     0.147 A 
HETATM    5  N   UNK N   1      29.649  17.788   7.909  0.00  0.00    -0.260 N 
HETATM    6  C   UNK N   1      29.461  17.866   6.581  0.00  0.00     0.108 A 
HETATM    7  C   UNK N   1      28.416  18.593   6.080  0.00  0.00     0.136 A 
HETATM    8  N   UNK N   1      27.573  19.183   6.985  0.00  0.00    -0.336 N 
ATOM      9  HN  UNK N   1      26.773  19.717   6.643  1.00  0.00     0.168 HD
HETATM   10  C   UNK N   1      27.776  19.073   8.330  0.00  0.00     0.199 A 
HETATM   11  N   UNK N   1      28.847  18.371   8.792  0.00  0.00    -0.289 N 
ATOM     12  HN  UNK N   1      29.031  18.295   9.792  1.00  0.00     0.188 HD
ENDROOT
BRANCH   7  13
HETATM   13  N   UNK N   1      28.266  18.812   4.672  0.00  0.00    -0.341 N 
HETATM   14  H   UNK N   1      29.016  19.133   4.122  0.00  0.00     0.167 HD
BRANCH  13  15
HETATM   15  C   UNK N   1      27.004  18.551   4.101  0.00  0.00     0.034 A 
HETATM   16  C   UNK N   1      26.260  17.416   4.507  0.00  0.00     0.032 A 
HETATM   17  C   UNK N   1      24.855  17.404   4.341  0.00  0.00     0.034 A 
HETATM   18  C   UNK N   1      24.270  18.560   3.812  0.00  0.00     0.062 A 
HETATM   19  C   UNK N   1      25.020  19.594   3.355  0.00  0.00     0.011 A 
HETATM   20  N   UNK N   1      22.982  18.907   3.706  0.00  0.00    -0.288 N 
HETATM   21  C   UNK N   1      26.370  19.620   3.454  0.00  0.00     0.044 A 
HETATM   22  C   UNK N   1      24.169  20.584   2.961  0.00  0.00     0.121 A 
HETATM   23  N   UNK N   1      22.923  20.136   3.194  0.00  0.00    -0.308 N 
ATOM     24  HN  UNK N   1      22.066  20.656   3.008  1.00  0.00     0.186 HD
BRANCH  20  25
HETATM   25  C   UNK N   1      21.809  18.126   4.118  0.00  0.00     0.187 C 
BRANCH  25  26
HETATM   26  C   UNK N   1      21.271  17.283   2.988  0.00  0.00    -0.035 A 
HETATM   27  C   UNK N   1      20.383  17.829   2.054  0.00  0.00     0.009 A 
HETATM   28  C   UNK N   1      19.937  17.049   0.978  0.00  0.00     0.004 A 
HETATM   29  C   UNK N   1      20.410  15.741   0.810  0.00  0.00     0.042 A 
HETATM   30  C   UNK N   1      21.300  15.200   1.739  0.00  0.00     0.117 A 
HETATM   31  C   UNK N   1      21.704  15.959   2.827  0.00  0.00     0.051 A 
HETATM   32  F   UNK N   1      21.808  13.956   1.568  0.00  0.00    -0.206 F 
ENDBRANCH  25  26
ENDBRANCH  20  25
ENDBRANCH  13  15
ENDBRANCH   7  13
BRANCH   3  33
HETATM   33  N   UNK N   1      32.522  16.168   6.611  0.00  0.00    -0.301 N 
HETATM   34  C   UNK N   1      32.765  14.866   6.896  0.00  0.00     0.365 C 
HETATM   35  O   UNK N   1      31.840  14.091   7.102  0.00  0.00    -0.238 OA
HETATM   36  H   UNK N   1      33.225  16.714   6.191  0.00  0.00     0.171 HD
BRANCH  34  37
HETATM   37  O   UNK N   1      34.042  14.443   7.070  0.00  0.00    -0.302 OA
BRANCH  37  38
HETATM   38  C   UNK N   1      34.638  14.410   8.326  0.00  0.00     0.207 C 
BRANCH  38  39
HETATM   39  C   UNK N   1      34.035  15.430   9.294  0.00  0.00     0.124 C 
HETATM   40  C   UNK N   1      34.933  16.649   9.508  0.00  0.00     0.194 C 
HETATM   41  O   UNK N   1      36.030  16.291  10.304  0.00  0.00    -0.387 OA
HETATM   42  C   UNK N   1      35.501  16.010  11.573  0.00  0.00     0.186 C 
HETATM   43  C   UNK N   1      34.724  14.695  11.500  0.00  0.00     0.140 C 
HETATM   44  N   UNK N   1      33.606  14.825  10.562  0.00  0.00    -0.411 N 
HETATM   45  H   UNK N   1      32.650  14.533  10.764  0.00  0.00     0.153 HD
ENDBRANCH  38  39
ENDBRANCH  37  38
ENDBRANCH  34  37
ENDBRANCH   3  33
TORSDOF 8
ENDMDL
MODEL 7
REMARK VINA RESULT:      -8.7      3.813      5.818
REMARK  8 active torsions:
REMARK  status: ('A' for Active; 'I' for Inactive)
REMARK    1  A    between atoms: C_3  and  N_32 
REMARK    2  A    between atoms: C_7  and  N_13 
REMARK    3  A    between atoms: N_13  and  C_14 
REMARK    4  A    between atoms: N_23  and  C_24 
REMARK    5  A    between atoms: C_24  and  C_25 
REMARK       I    between atoms: N_32  and  C_33 
REMARK    6  A    between atoms: C_33  and  O_35 
REMARK    7  A    between atoms: O_35  and  C_36 
REMARK    8  A    between atoms: C_37  and  C_36 
ROOT
HETATM    1  C   UNK N   1      34.126  12.925   8.817  0.00  0.00     0.053 C 
HETATM    2  C   UNK N   1      34.353  14.246   9.474  0.00  0.00    -0.001 A 
HETATM    3  C   UNK N   1      34.623  14.462  10.801  0.00  0.00     0.062 A 
HETATM    4  C   UNK N   1      34.818  15.818  11.011  0.00  0.00     0.147 A 
HETATM    5  N   UNK N   1      34.662  16.413   9.815  0.00  0.00    -0.260 N 
HETATM    6  C   UNK N   1      34.402  15.471   8.893  0.00  0.00     0.108 A 
HETATM    7  C   UNK N   1      34.295  15.816   7.574  0.00  0.00     0.136 A 
HETATM    8  N   UNK N   1      34.419  17.145   7.262  0.00  0.00    -0.336 N 
ATOM      9  HN  UNK N   1      34.326  17.438   6.290  1.00  0.00     0.168 HD
HETATM   10  C   UNK N   1      34.664  18.086   8.221  0.00  0.00     0.199 A 
HETATM   11  N   UNK N   1      34.801  17.700   9.520  0.00  0.00    -0.289 N 
ATOM     12  HN  UNK N   1      35.006  18.382  10.250  1.00  0.00     0.188 HD
ENDROOT
BRANCH   7  13
HETATM   13  N   UNK N   1      34.157  14.823   6.550  0.00  0.00    -0.341 N 
HETATM   14  H   UNK N   1      34.867  14.162   6.382  0.00  0.00     0.167 HD
BRANCH  13  15
HETATM   15  C   UNK N   1      32.970  14.826   5.792  0.00  0.00     0.034 A 
HETATM   16  C   UNK N   1      31.720  14.615   6.425  0.00  0.00     0.032 A 
HETATM   17  C   UNK N   1      30.537  15.091   5.815  0.00  0.00     0.034 A 
HETATM   18  C   UNK N   1      30.683  15.795   4.614  0.00  0.00     0.062 A 
HETATM   19  C   UNK N   1      31.884  15.906   3.993  0.00  0.00     0.011 A 
HETATM   20  N   UNK N   1      29.790  16.503   3.912  0.00  0.00    -0.288 N 
HETATM   21  C   UNK N   1      33.030  15.420   4.525  0.00  0.00     0.044 A 
HETATM   22  C   UNK N   1      31.713  16.690   2.891  0.00  0.00     0.121 A 
HETATM   23  N   UNK N   1      30.417  17.048   2.871  0.00  0.00    -0.308 N 
ATOM     24  HN  UNK N   1      29.982  17.644   2.167  1.00  0.00     0.186 HD
BRANCH  20  25
HETATM   25  C   UNK N   1      28.371  16.714   4.225  0.00  0.00     0.187 C 
BRANCH  25  26
HETATM   26  C   UNK N   1      28.145  18.015   4.953  0.00  0.00    -0.035 A 
HETATM   27  C   UNK N   1      27.788  19.171   4.250  0.00  0.00     0.009 A 
HETATM   28  C   UNK N   1      27.526  20.359   4.946  0.00  0.00     0.004 A 
HETATM   29  C   UNK N   1      27.578  20.382   6.346  0.00  0.00     0.042 A 
HETATM   30  C   UNK N   1      27.928  19.227   7.047  0.00  0.00     0.117 A 
HETATM   31  C   UNK N   1      28.231  18.066   6.352  0.00  0.00     0.051 A 
HETATM   32  F   UNK N   1      27.936  19.215   8.401  0.00  0.00    -0.206 F 
ENDBRANCH  25  26
ENDBRANCH  20  25
ENDBRANCH  13  15
ENDBRANCH   7  13
BRANCH   3  33
HETATM   33  N   UNK N   1      34.834  13.410  11.690  0.00  0.00    -0.301 N 
HETATM   34  C   UNK N   1      36.083  12.943  11.926  0.00  0.00     0.365 C 
HETATM   35  O   UNK N   1      37.064  13.618  11.644  0.00  0.00    -0.238 OA
HETATM   36  H   UNK N   1      34.066  13.001  12.150  0.00  0.00     0.171 HD
BRANCH  34  37
HETATM   37  O   UNK N   1      36.252  11.672  12.370  0.00  0.00    -0.302 OA
BRANCH  37  38
HETATM   38  C   UNK N   1      35.729  11.245  13.585  0.00  0.00     0.207 C 
BRANCH  38  39
HETATM   39  C   UNK N   1      36.684  11.483  14.757  0.00  0.00     0.124 C 
HETATM   40  C   UNK N   1      36.084  11.078  16.104  0.00  0.00     0.194 C 
HETATM   41  O   UNK N   1      35.114  12.015  16.488  0.00  0.00    -0.387 OA
HETATM   42  C   UNK N   1      35.816  13.202  16.750  0.00  0.00     0.186 C 
HETATM   43  C   UNK N   1      36.309  13.784  15.425  0.00  0.00     0.140 C 
HETATM   44  N   UNK N   1      37.230  12.846  14.778  0.00  0.00    -0.411 N 
HETATM   45  H   UNK N   1      38.136  13.108  14.390  0.00  0.00     0.153 HD
ENDBRANCH  38  39
ENDBRANCH  37  38
ENDBRANCH  34  37
ENDBRANCH   3  33
TORSDOF 8
ENDMDL
MODEL 8
REMARK VINA RESULT:      -8.6      5.202     12.217
REMARK  8 active torsions:
REMARK  status: ('A' for Active; 'I' for Inactive)
REMARK    1  A    between atoms: C_3  and  N_32 
REMARK    2  A    between atoms: C_7  and  N_13 
REMARK    3  A    between atoms: N_13  and  C_14 
REMARK    4  A    between atoms: N_23  and  C_24 
REMARK    5  A    between atoms: C_24  and  C_25 
REMARK       I    between atoms: N_32  and  C_33 
REMARK    6  A    between atoms: C_33  and  O_35 
REMARK    7  A    between atoms: O_35  and  C_36 
REMARK    8  A    between atoms: C_37  and  C_36 
ROOT
HETATM    1  C   UNK N   1      34.160  14.944   9.734  0.00  0.00     0.053 C 
HETATM    2  C   UNK N   1      35.051  14.662   8.570  0.00  0.00    -0.001 A 
HETATM    3  C   UNK N   1      34.816  15.001   7.262  0.00  0.00     0.062 A 
HETATM    4  C   UNK N   1      35.899  14.611   6.489  0.00  0.00     0.147 A 
HETATM    5  N   UNK N   1      36.778  14.038   7.331  0.00  0.00    -0.260 N 
HETATM    6  C   UNK N   1      36.279  14.086   8.577  0.00  0.00     0.108 A 
HETATM    7  C   UNK N   1      37.030  13.646   9.632  0.00  0.00     0.136 A 
HETATM    8  N   UNK N   1      38.268  13.130   9.347  0.00  0.00    -0.336 N 
ATOM      9  HN  UNK N   1      38.846  12.777  10.110  1.00  0.00     0.168 HD
HETATM   10  C   UNK N   1      38.744  13.075   8.069  0.00  0.00     0.199 A 
HETATM   11  N   UNK N   1      37.982  13.555   7.048  0.00  0.00    -0.289 N 
ATOM     12  HN  UNK N   1      38.326  13.545   6.088  1.00  0.00     0.188 HD
ENDROOT
BRANCH   7  13
HETATM   13  N   UNK N   1      36.588  13.810  10.985  0.00  0.00    -0.341 N 
HETATM   14  H   UNK N   1      36.327  14.693  11.333  0.00  0.00     0.167 HD
BRANCH  13  15
HETATM   15  C   UNK N   1      36.538  12.662  11.800  0.00  0.00     0.034 A 
HETATM   16  C   UNK N   1      37.598  12.379  12.698  0.00  0.00     0.032 A 
HETATM   17  C   UNK N   1      37.359  11.563  13.828  0.00  0.00     0.034 A 
HETATM   18  C   UNK N   1      36.049  11.111  14.016  0.00  0.00     0.062 A 
HETATM   19  C   UNK N   1      35.078  11.330  13.094  0.00  0.00     0.011 A 
HETATM   20  N   UNK N   1      35.491  10.487  15.061  0.00  0.00    -0.288 N 
HETATM   21  C   UNK N   1      35.283  12.065  11.976  0.00  0.00     0.044 A 
HETATM   22  C   UNK N   1      33.912  10.824  13.587  0.00  0.00     0.121 A 
HETATM   23  N   UNK N   1      34.195  10.318  14.801  0.00  0.00    -0.308 N 
ATOM     24  HN  UNK N   1      33.522   9.874  15.425  1.00  0.00     0.186 HD
BRANCH  20  25
HETATM   25  C   UNK N   1      36.140  10.088  16.316  0.00  0.00     0.187 C 
BRANCH  25  26
HETATM   26  C   UNK N   1      35.746  10.987  17.462  0.00  0.00    -0.035 A 
HETATM   27  C   UNK N   1      35.719  10.497  18.772  0.00  0.00     0.009 A 
HETATM   28  C   UNK N   1      35.405  11.358  19.833  0.00  0.00     0.004 A 
HETATM   29  C   UNK N   1      35.161  12.716  19.590  0.00  0.00     0.042 A 
HETATM   30  C   UNK N   1      35.195  13.206  18.283  0.00  0.00     0.117 A 
HETATM   31  C   UNK N   1      35.461  12.341  17.232  0.00  0.00     0.051 A 
HETATM   32  F   UNK N   1      35.012  14.523  18.032  0.00  0.00    -0.206 F 
ENDBRANCH  25  26
ENDBRANCH  20  25
ENDBRANCH  13  15
ENDBRANCH   7  13
BRANCH   3  33
HETATM   33  N   UNK N   1      33.722  15.778   6.889  0.00  0.00    -0.301 N 
HETATM   34  C   UNK N   1      33.752  17.126   7.020  0.00  0.00     0.365 C 
HETATM   35  O   UNK N   1      34.818  17.715   7.145  0.00  0.00    -0.238 OA
HETATM   36  H   UNK N   1      32.917  15.343   6.526  0.00  0.00     0.171 HD
BRANCH  34  37
HETATM   37  O   UNK N   1      32.591  17.817   7.132  0.00  0.00    -0.302 OA
BRANCH  37  38
HETATM   38  C   UNK N   1      31.977  18.024   8.362  0.00  0.00     0.207 C 
BRANCH  38  39
HETATM   39  C   UNK N   1      30.801  17.076   8.604  0.00  0.00     0.124 C 
HETATM   40  C   UNK N   1      29.891  16.933   7.384  0.00  0.00     0.194 C 
HETATM   41  O   UNK N   1      29.132  18.101   7.224  0.00  0.00    -0.387 OA
HETATM   42  C   UNK N   1      28.257  18.138   8.321  0.00  0.00     0.186 C 
HETATM   43  C   UNK N   1      29.062  18.455   9.581  0.00  0.00     0.140 C 
HETATM   44  N   UNK N   1      30.050  17.401   9.824  0.00  0.00    -0.411 N 
HETATM   45  H   UNK N   1      30.197  16.950  10.726  0.00  0.00     0.153 HD
ENDBRANCH  38  39
ENDBRANCH  37  38
ENDBRANCH  34  37
ENDBRANCH   3  33
TORSDOF 8
ENDMDL
MODEL 9
REMARK VINA RESULT:      -8.4      6.748     14.002
REMARK  8 active torsions:
REMARK  status: ('A' for Active; 'I' for Inactive)
REMARK    1  A    between atoms: C_3  and  N_32 
REMARK    2  A    between atoms: C_7  and  N_13 
REMARK    3  A    between atoms: N_13  and  C_14 
REMARK    4  A    between atoms: N_23  and  C_24 
REMARK    5  A    between atoms: C_24  and  C_25 
REMARK       I    between atoms: N_32  and  C_33 
REMARK    6  A    between atoms: C_33  and  O_35 
REMARK    7  A    between atoms: O_35  and  C_36 
REMARK    8  A    between atoms: C_37  and  C_36 
ROOT
HETATM    1  C   UNK N   1      35.300  10.856  12.456  0.00  0.00     0.053 C 
HETATM    2  C   UNK N   1      35.481  12.336  12.511  0.00  0.00    -0.001 A 
HETATM    3  C   UNK N   1      34.969  13.255  11.631  0.00  0.00     0.062 A 
HETATM    4  C   UNK N   1      35.317  14.529  12.048  0.00  0.00     0.147 A 
HETATM    5  N   UNK N   1      36.039  14.375  13.173  0.00  0.00    -0.260 N 
HETATM    6  C   UNK N   1      36.120  13.065  13.459  0.00  0.00     0.108 A 
HETATM    7  C   UNK N   1      36.729  12.654  14.613  0.00  0.00     0.136 A 
HETATM    8  N   UNK N   1      37.273  13.625  15.414  0.00  0.00    -0.336 N 
ATOM      9  HN  UNK N   1      37.750  13.350  16.273  1.00  0.00     0.168 HD
HETATM   10  C   UNK N   1      37.193  14.949  15.090  0.00  0.00     0.199 A 
HETATM   11  N   UNK N   1      36.548  15.323  13.951  0.00  0.00    -0.289 N 
ATOM     12  HN  UNK N   1      36.456  16.307  13.701  1.00  0.00     0.188 HD
ENDROOT
BRANCH   7  13
HETATM   13  N   UNK N   1      36.713  11.280  15.019  0.00  0.00    -0.341 N 
HETATM   14  H   UNK N   1      37.282  10.611  14.576  0.00  0.00     0.167 HD
BRANCH  13  15
HETATM   15  C   UNK N   1      35.853  10.921  16.075  0.00  0.00     0.034 A 
HETATM   16  C   UNK N   1      35.530   9.559  16.298  0.00  0.00     0.032 A 
HETATM   17  C   UNK N   1      35.107   9.141  17.582  0.00  0.00     0.034 A 
HETATM   18  C   UNK N   1      35.075  10.116  18.586  0.00  0.00     0.062 A 
HETATM   19  C   UNK N   1      35.308  11.425  18.318  0.00  0.00     0.011 A 
HETATM   20  N   UNK N   1      34.894   9.991  19.906  0.00  0.00    -0.288 N 
HETATM   21  C   UNK N   1      35.668  11.868  17.091  0.00  0.00     0.044 A 
HETATM   22  C   UNK N   1      35.263  12.106  19.498  0.00  0.00     0.121 A 
HETATM   23  N   UNK N   1      35.013  11.198  20.458  0.00  0.00    -0.308 N 
ATOM     24  HN  UNK N   1      34.927  11.402  21.453  1.00  0.00     0.186 HD
BRANCH  20  25
HETATM   25  C   UNK N   1      34.657   8.756  20.664  0.00  0.00     0.187 C 
BRANCH  25  26
HETATM   26  C   UNK N   1      33.279   8.198  20.411  0.00  0.00    -0.035 A 
HETATM   27  C   UNK N   1      32.140   8.952  20.719  0.00  0.00     0.009 A 
HETATM   28  C   UNK N   1      30.867   8.443  20.426  0.00  0.00     0.004 A 
HETATM   29  C   UNK N   1      30.732   7.203  19.788  0.00  0.00     0.042 A 
HETATM   30  C   UNK N   1      31.869   6.455  19.476  0.00  0.00     0.117 A 
HETATM   31  C   UNK N   1      33.124   6.942  19.809  0.00  0.00     0.051 A 
HETATM   32  F   UNK N   1      31.764   5.279  18.815  0.00  0.00    -0.206 F 
ENDBRANCH  25  26
ENDBRANCH  20  25
ENDBRANCH  13  15
ENDBRANCH   7  13
BRANCH   3  33
HETATM   33  N   UNK N   1      34.092  12.887  10.612  0.00  0.00    -0.301 N 
HETATM   34  C   UNK N   1      34.342  13.231   9.326  0.00  0.00     0.365 C 
HETATM   35  O   UNK N   1      35.466  13.566   8.978  0.00  0.00    -0.238 OA
HETATM   36  H   UNK N   1      33.282  12.372  10.830  0.00  0.00     0.171 HD
BRANCH  34  37
HETATM   37  O   UNK N   1      33.316  13.318   8.442  0.00  0.00    -0.302 OA
BRANCH  37  38
HETATM   38  C   UNK N   1      32.975  14.520   7.833  0.00  0.00     0.207 C 
BRANCH  38  39
HETATM   39  C   UNK N   1      32.546  15.592   8.838  0.00  0.00     0.124 C 
HETATM   40  C   UNK N   1      31.492  16.547   8.276  0.00  0.00     0.194 C 
HETATM   41  O   UNK N   1      32.089  17.415   7.351  0.00  0.00    -0.387 OA
HETATM   42  C   UNK N   1      32.950  18.233   8.099  0.00  0.00     0.186 C 
HETATM   43  C   UNK N   1      34.143  17.396   8.561  0.00  0.00     0.140 C 
HETATM   44  N   UNK N   1      33.686  16.307   9.427  0.00  0.00    -0.411 N 
HETATM   45  H   UNK N   1      34.107  16.073  10.326  0.00  0.00     0.153 HD
ENDBRANCH  38  39
ENDBRANCH  37  38
ENDBRANCH  34  37
ENDBRANCH   3  33
TORSDOF 8
ENDMDL
