REMARK  8 active torsions:
REMARK  status: ('A' for Active; 'I' for Inactive)
REMARK    1  A    between atoms: C_5  and  N_25 
REMARK       I    between atoms: C_8  and  N_24 
REMARK    2  A    between atoms: C_13  and  N_12 
REMARK    3  A    between atoms: C_15  and  C_18 
REMARK    4  A    between atoms: C_18  and  O_19 
REMARK    5  A    between atoms: O_19  and  C_20 
REMARK    6  A    between atoms: C_20  and  C_22 
REMARK    7  A    between atoms: C_22  and  O_23 
REMARK    8  A    between atoms: N_25  and  C_26 
ROOT
HETATM    1  C   UNK N   1      -0.038   0.305   0.210  0.00  0.00     0.186 A 
HETATM    2  N   UNK N   1       0.845   1.344   0.327  0.00  0.00    -0.346 N 
ATOM      3  HN  UNK N   1       0.635   2.339   0.407  1.00  0.00     0.167 HD
HETATM    4  C   UNK N   1       2.058   0.752   0.313  0.00  0.00     0.123 A 
HETATM    5  C   UNK N   1       3.337   1.290   0.325  0.00  0.00     0.148 A 
HETATM    6  N   UNK N   1       4.399   0.426   0.256  0.00  0.00    -0.175 N 
ATOM      7  HN  UNK N   1       5.349   0.798   0.262  1.00  0.00     0.186 HD
HETATM    8  C   UNK N   1       4.210  -0.931   0.180  0.00  0.00     0.679 A 
HETATM    9  N   UNK N   1       2.948  -1.437   0.137  0.00  0.00    -0.174 N 
ATOM     10  HN  UNK N   1       2.789  -2.442   0.056  1.00  0.00     0.186 HD
HETATM   11  C   UNK N   1       1.911  -0.573   0.205  0.00  0.00     0.155 A 
HETATM   12  N   UNK N   1       0.621  -0.875   0.133  0.00  0.00    -0.318 N 
HETATM   13  N   UNK N   1       5.315  -1.801   0.126  0.00  0.00    -0.234 N 
HETATM   14  H   UNK N   1       5.175  -2.774   0.088  0.00  0.00     0.174 HD
HETATM   15  H   UNK N   1       6.229  -1.435   0.126  0.00  0.00     0.174 HD
ENDROOT
BRANCH  12  16
HETATM   16  C   UNK N   1       0.192  -2.236  -0.086  0.00  0.00     0.115 C 
HETATM   17  C   UNK N   1       0.629  -3.206   0.983  0.00  0.00     0.040 C 
HETATM   18  C   UNK N   1      -0.017  -4.463   0.463  0.00  0.00     0.034 C 
HETATM   19  C   UNK N   1      -1.302  -3.915  -0.116  0.00  0.00    -0.022 C 
HETATM   20  C   UNK N   1      -1.202  -2.612  -0.353  0.00  0.00    -0.005 C 
BRANCH  18  21
HETATM   21  C   UNK N   1       0.911  -4.986  -0.645  0.00  0.00     0.187 C 
BRANCH  21  22
HETATM   22  O   UNK N   1       0.458  -6.203  -1.059  0.00  0.00    -0.319 OA
BRANCH  22  23
HETATM   23  C   UNK N   1       0.636  -7.286  -0.281  0.00  0.00     0.282 C 
HETATM   24  O   UNK N   1       1.720  -7.514   0.237  0.00  0.00    -0.263 OA
BRANCH  23  25
HETATM   25  C   UNK N   1      -0.553  -8.107   0.060  0.00  0.00     0.275 C 
BRANCH  25  26
HETATM   26  O   UNK N   1      -0.398  -9.403  -0.413  0.00  0.00    -0.391 OA
HETATM   27  H   UNK N   1      -1.128  -9.950  -0.744  0.00  0.00     0.210 HD
ENDBRANCH  25  26
ENDBRANCH  23  25
ENDBRANCH  22  23
ENDBRANCH  21  22
ENDBRANCH  18  21
ENDBRANCH  12  16
BRANCH   5  28
HETATM   28  N   UNK N   1       3.534   2.691   0.344  0.00  0.00    -0.369 N 
HETATM   29  H   UNK N   1       3.017   3.237   0.981  0.00  0.00     0.161 HD
BRANCH  28  30
HETATM   30  C   UNK N   1       4.471   3.349  -0.543  0.00  0.00     0.083 A 
HETATM   31  C   UNK N   1       5.572   3.986   0.279  0.00  0.00     0.027 A 
HETATM   32  C   UNK N   1       5.859   2.731  -0.508  0.00  0.00     0.027 A 
ENDBRANCH  28  30
ENDBRANCH   5  28
TORSDOF 8
