MODEL 1
REMARK VINA RESULT:      -7.0      0.000      0.000
REMARK  2 active torsions:
REMARK  status: ('A' for Active; 'I' for Inactive)
REMARK    1  A    between atoms: C_7  and  C_12 
REMARK    2  A    between atoms: C_10  and  N_11 
ROOT
HETATM    1  C   UNK N   1      29.407  21.088  -7.268  0.00  0.00     0.001 A 
HETATM    2  C   UNK N   1      30.343  20.178  -6.783  0.00  0.00     0.001 A 
HETATM    3  C   UNK N   1      30.853  20.323  -5.492  0.00  0.00     0.010 A 
HETATM    4  C   UNK N   1      30.437  21.386  -4.674  0.00  0.00    -0.029 A 
HETATM    5  C   UNK N   1      29.483  22.310  -5.162  0.00  0.00    -0.041 A 
HETATM    6  C   UNK N   1      28.983  22.145  -6.463  0.00  0.00     0.008 A 
HETATM    7  C   UNK N   1      29.034  23.475  -4.288  0.00  0.00     0.052 C 
HETATM    8  C   UNK N   1      29.598  23.551  -2.864  0.00  0.00     0.016 C 
HETATM    9  C   UNK N   1      31.003  22.964  -2.804  0.00  0.00     0.030 C 
HETATM   10  C   UNK N   1      30.977  21.512  -3.266  0.00  0.00     0.108 C 
ENDROOT
BRANCH   7  11
HETATM   11  C   UNK N   1      27.911  24.429  -4.670  0.00  0.00    -0.048 A 
HETATM   12  C   UNK N   1      26.569  24.075  -4.479  0.00  0.00     0.009 A 
HETATM   13  C   UNK N   1      25.540  24.945  -4.831  0.00  0.00     0.026 A 
HETATM   14  C   UNK N   1      25.834  26.188  -5.388  0.00  0.00     0.055 A 
HETATM   15  C   UNK N   1      27.173  26.562  -5.590  0.00  0.00     0.056 A 
HETATM   16 Cl   UNK N   1      24.506  27.253  -5.821  0.00  0.00    -0.083 Cl
HETATM   17  C   UNK N   1      28.204  25.683  -5.230  0.00  0.00     0.033 A 
HETATM   18 Cl   UNK N   1      27.584  28.117  -6.295  0.00  0.00    -0.083 Cl
ENDBRANCH   7  11
BRANCH  10  19
HETATM   19  N   UNK N   1      32.309  20.937  -3.150  0.00  0.00    -0.422 N 
HETATM   20  H   UNK N   1      32.758  20.389  -3.883  0.00  0.00     0.150 HD
HETATM   21  H   UNK N   1      32.824  21.093  -2.284  0.00  0.00     0.150 HD
ENDBRANCH  10  19
TORSDOF 2
ENDMDL
MODEL 2
REMARK VINA RESULT:      -6.7     23.145     25.486
REMARK  2 active torsions:
REMARK  status: ('A' for Active; 'I' for Inactive)
REMARK    1  A    between atoms: C_7  and  C_12 
REMARK    2  A    between atoms: C_10  and  N_11 
ROOT
HETATM    1  C   UNK N   1      36.956   8.769  17.774  0.00  0.00     0.001 A 
HETATM    2  C   UNK N   1      36.910   9.085  19.130  0.00  0.00     0.001 A 
HETATM    3  C   UNK N   1      36.321  10.279  19.548  0.00  0.00     0.010 A 
HETATM    4  C   UNK N   1      35.780  11.176  18.612  0.00  0.00    -0.029 A 
HETATM    5  C   UNK N   1      35.822  10.856  17.234  0.00  0.00    -0.041 A 
HETATM    6  C   UNK N   1      36.417   9.648  16.836  0.00  0.00     0.008 A 
HETATM    7  C   UNK N   1      35.250  11.827  16.208  0.00  0.00     0.052 C 
HETATM    8  C   UNK N   1      34.578  13.101  16.736  0.00  0.00     0.016 C 
HETATM    9  C   UNK N   1      35.225  13.557  18.037  0.00  0.00     0.030 C 
HETATM   10  C   UNK N   1      35.120  12.453  19.083  0.00  0.00     0.108 C 
ENDROOT
BRANCH   7  11
HETATM   11  C   UNK N   1      35.119  11.504  14.726  0.00  0.00    -0.048 A 
HETATM   12  C   UNK N   1      34.051  10.734  14.248  0.00  0.00     0.009 A 
HETATM   13  C   UNK N   1      33.932  10.435  12.893  0.00  0.00     0.026 A 
HETATM   14  C   UNK N   1      34.885  10.898  11.987  0.00  0.00     0.055 A 
HETATM   15  C   UNK N   1      35.965  11.670  12.446  0.00  0.00     0.056 A 
HETATM   16 Cl   UNK N   1      34.698  10.494  10.288  0.00  0.00    -0.083 Cl
HETATM   17  C   UNK N   1      36.077  11.971  13.811  0.00  0.00     0.033 A 
HETATM   18 Cl   UNK N   1      37.189  12.266  11.337  0.00  0.00    -0.083 Cl
ENDBRANCH   7  11
BRANCH  10  19
HETATM   19  N   UNK N   1      35.685  12.915  20.341  0.00  0.00    -0.422 N 
HETATM   20  H   UNK N   1      36.556  12.563  20.737  0.00  0.00     0.150 HD
HETATM   21  H   UNK N   1      35.180  13.635  20.858  0.00  0.00     0.150 HD
ENDBRANCH  10  19
TORSDOF 2
ENDMDL
MODEL 3
REMARK VINA RESULT:      -6.6     23.882     26.274
REMARK  2 active torsions:
REMARK  status: ('A' for Active; 'I' for Inactive)
REMARK    1  A    between atoms: C_7  and  C_12 
REMARK    2  A    between atoms: C_10  and  N_11 
ROOT
HETATM    1  C   UNK N   1      35.261  13.855  17.456  0.00  0.00     0.001 A 
HETATM    2  C   UNK N   1      35.373  13.913  18.844  0.00  0.00     0.001 A 
HETATM    3  C   UNK N   1      35.319  12.739  19.596  0.00  0.00     0.010 A 
HETATM    4  C   UNK N   1      35.143  11.494  18.970  0.00  0.00    -0.029 A 
HETATM    5  C   UNK N   1      35.032  11.432  17.561  0.00  0.00    -0.041 A 
HETATM    6  C   UNK N   1      35.091  12.625  16.823  0.00  0.00     0.008 A 
HETATM    7  C   UNK N   1      34.827  10.089  16.871  0.00  0.00     0.052 C 
HETATM    8  C   UNK N   1      34.821   8.834  17.752  0.00  0.00     0.016 C 
HETATM    9  C   UNK N   1      34.271   9.145  19.137  0.00  0.00     0.030 C 
HETATM   10  C   UNK N   1      35.115  10.229  19.798  0.00  0.00     0.108 C 
ENDROOT
BRANCH   7  11
HETATM   11  C   UNK N   1      34.845   9.909  15.360  0.00  0.00    -0.048 A 
HETATM   12  C   UNK N   1      33.868  10.503  14.550  0.00  0.00     0.009 A 
HETATM   13  C   UNK N   1      33.881  10.336  13.168  0.00  0.00     0.026 A 
HETATM   14  C   UNK N   1      34.873   9.563  12.566  0.00  0.00     0.055 A 
HETATM   15  C   UNK N   1      35.861   8.956  13.359  0.00  0.00     0.056 A 
HETATM   16 Cl   UNK N   1      34.850   9.376  10.820  0.00  0.00    -0.083 Cl
HETATM   17  C   UNK N   1      35.844   9.132  14.749  0.00  0.00     0.033 A 
HETATM   18 Cl   UNK N   1      37.123   7.971  12.637  0.00  0.00    -0.083 Cl
ENDBRANCH   7  11
BRANCH  10  19
HETATM   19  N   UNK N   1      34.623  10.480  21.144  0.00  0.00    -0.422 N 
HETATM   20  H   UNK N   1      34.460  11.412  21.525  0.00  0.00     0.150 HD
HETATM   21  H   UNK N   1      34.428   9.676  21.741  0.00  0.00     0.150 HD
ENDBRANCH  10  19
TORSDOF 2
ENDMDL
MODEL 4
REMARK VINA RESULT:      -6.6     10.726     12.497
REMARK  2 active torsions:
REMARK  status: ('A' for Active; 'I' for Inactive)
REMARK    1  A    between atoms: C_7  and  C_12 
REMARK    2  A    between atoms: C_10  and  N_11 
ROOT
HETATM    1  C   UNK N   1      28.538  18.573   9.068  0.00  0.00     0.001 A 
HETATM    2  C   UNK N   1      29.733  18.032   9.538  0.00  0.00     0.001 A 
HETATM    3  C   UNK N   1      30.621  17.426   8.648  0.00  0.00     0.010 A 
HETATM    4  C   UNK N   1      30.321  17.348   7.279  0.00  0.00    -0.029 A 
HETATM    5  C   UNK N   1      29.110  17.899   6.798  0.00  0.00    -0.041 A 
HETATM    6  C   UNK N   1      28.231  18.505   7.710  0.00  0.00     0.008 A 
HETATM    7  C   UNK N   1      28.766  17.808   5.316  0.00  0.00     0.052 C 
HETATM    8  C   UNK N   1      29.805  17.171   4.385  0.00  0.00     0.016 C 
HETATM    9  C   UNK N   1      30.605  16.100   5.117  0.00  0.00     0.030 C 
HETATM   10  C   UNK N   1      31.308  16.713   6.323  0.00  0.00     0.108 C 
ENDROOT
BRANCH   7  11
HETATM   11  C   UNK N   1      27.564  18.498   4.688  0.00  0.00    -0.048 A 
HETATM   12  C   UNK N   1      27.657  19.809   4.200  0.00  0.00     0.009 A 
HETATM   13  C   UNK N   1      26.556  20.442   3.629  0.00  0.00     0.026 A 
HETATM   14  C   UNK N   1      25.335  19.777   3.537  0.00  0.00     0.055 A 
HETATM   15  C   UNK N   1      25.219  18.463   4.021  0.00  0.00     0.056 A 
HETATM   16 Cl   UNK N   1      23.972  20.615   2.812  0.00  0.00    -0.083 Cl
HETATM   17  C   UNK N   1      26.332  17.830   4.592  0.00  0.00     0.033 A 
HETATM   18 Cl   UNK N   1      23.695  17.595   3.929  0.00  0.00    -0.083 Cl
ENDBRANCH   7  11
BRANCH  10  19
HETATM   19  N   UNK N   1      32.118  15.702   6.984  0.00  0.00    -0.422 N 
HETATM   20  H   UNK N   1      33.104  15.824   7.213  0.00  0.00     0.150 HD
HETATM   21  H   UNK N   1      31.673  14.819   7.234  0.00  0.00     0.150 HD
ENDBRANCH  10  19
TORSDOF 2
ENDMDL
MODEL 5
REMARK VINA RESULT:      -6.4     10.661     12.256
REMARK  2 active torsions:
REMARK  status: ('A' for Active; 'I' for Inactive)
REMARK    1  A    between atoms: C_7  and  C_12 
REMARK    2  A    between atoms: C_10  and  N_11 
ROOT
HETATM    1  C   UNK N   1      31.631  17.010   4.140  0.00  0.00     0.001 A 
HETATM    2  C   UNK N   1      32.507  16.413   5.043  0.00  0.00     0.001 A 
HETATM    3  C   UNK N   1      32.193  16.381   6.402  0.00  0.00     0.010 A 
HETATM    4  C   UNK N   1      31.001  16.955   6.874  0.00  0.00    -0.029 A 
HETATM    5  C   UNK N   1      30.107  17.559   5.959  0.00  0.00    -0.041 A 
HETATM    6  C   UNK N   1      30.442  17.579   4.596  0.00  0.00     0.008 A 
HETATM    7  C   UNK N   1      28.817  18.198   6.461  0.00  0.00     0.052 C 
HETATM    8  C   UNK N   1      28.510  18.089   7.959  0.00  0.00     0.016 C 
HETATM    9  C   UNK N   1      29.795  18.066   8.777  0.00  0.00     0.030 C 
HETATM   10  C   UNK N   1      30.661  16.888   8.347  0.00  0.00     0.108 C 
ENDROOT
BRANCH   7  11
HETATM   11  C   UNK N   1      27.732  18.737   5.540  0.00  0.00    -0.048 A 
HETATM   12  C   UNK N   1      27.779  20.054   5.064  0.00  0.00     0.009 A 
HETATM   13  C   UNK N   1      26.784  20.550   4.224  0.00  0.00     0.026 A 
HETATM   14  C   UNK N   1      25.717  19.737   3.847  0.00  0.00     0.055 A 
HETATM   15  C   UNK N   1      25.650  18.414   4.315  0.00  0.00     0.056 A 
HETATM   16 Cl   UNK N   1      24.483  20.403   2.790  0.00  0.00    -0.083 Cl
HETATM   17  C   UNK N   1      26.656  17.920   5.156  0.00  0.00     0.033 A 
HETATM   18 Cl   UNK N   1      24.318  17.361   3.867  0.00  0.00    -0.083 Cl
ENDBRANCH   7  11
BRANCH  10  19
HETATM   19  N   UNK N   1      31.859  16.833   9.171  0.00  0.00    -0.422 N 
HETATM   20  H   UNK N   1      32.741  17.279   8.922  0.00  0.00     0.150 HD
HETATM   21  H   UNK N   1      31.813  16.318  10.050  0.00  0.00     0.150 HD
ENDBRANCH  10  19
TORSDOF 2
ENDMDL
MODEL 6
REMARK VINA RESULT:      -6.4      5.268      7.020
REMARK  2 active torsions:
REMARK  status: ('A' for Active; 'I' for Inactive)
REMARK    1  A    between atoms: C_7  and  C_12 
REMARK    2  A    between atoms: C_10  and  N_11 
ROOT
HETATM    1  C   UNK N   1      28.945  28.994  -7.779  0.00  0.00     0.001 A 
HETATM    2  C   UNK N   1      28.961  29.827  -6.663  0.00  0.00     0.001 A 
HETATM    3  C   UNK N   1      28.065  29.607  -5.617  0.00  0.00     0.010 A 
HETATM    4  C   UNK N   1      27.136  28.555  -5.679  0.00  0.00    -0.029 A 
HETATM    5  C   UNK N   1      27.120  27.705  -6.810  0.00  0.00    -0.041 A 
HETATM    6  C   UNK N   1      28.031  27.943  -7.850  0.00  0.00     0.008 A 
HETATM    7  C   UNK N   1      26.108  26.569  -6.895  0.00  0.00     0.052 C 
HETATM    8  C   UNK N   1      25.181  26.354  -5.692  0.00  0.00     0.016 C 
HETATM    9  C   UNK N   1      24.887  27.673  -4.990  0.00  0.00     0.030 C 
HETATM   10  C   UNK N   1      26.190  28.313  -4.523  0.00  0.00     0.108 C 
ENDROOT
BRANCH   7  11
HETATM   11  C   UNK N   1      26.113  25.519  -7.997  0.00  0.00    -0.048 A 
HETATM   12  C   UNK N   1      25.642  25.821  -9.282  0.00  0.00     0.009 A 
HETATM   13  C   UNK N   1      25.643  24.860 -10.291  0.00  0.00     0.026 A 
HETATM   14  C   UNK N   1      26.111  23.573 -10.032  0.00  0.00     0.055 A 
HETATM   15  C   UNK N   1      26.585  23.249  -8.749  0.00  0.00     0.056 A 
HETATM   16 Cl   UNK N   1      26.090  22.392 -11.331  0.00  0.00    -0.083 Cl
HETATM   17  C   UNK N   1      26.586  24.222  -7.740  0.00  0.00     0.033 A 
HETATM   18 Cl   UNK N   1      27.177  21.637  -8.382  0.00  0.00    -0.083 Cl
ENDBRANCH   7  11
BRANCH  10  19
HETATM   19  N   UNK N   1      25.901  29.542  -3.801  0.00  0.00    -0.422 N 
HETATM   20  H   UNK N   1      25.049  30.087  -3.924  0.00  0.00     0.150 HD
HETATM   21  H   UNK N   1      26.593  29.878  -3.130  0.00  0.00     0.150 HD
ENDBRANCH  10  19
TORSDOF 2
ENDMDL
MODEL 7
REMARK VINA RESULT:      -6.3     25.673     28.019
REMARK  2 active torsions:
REMARK  status: ('A' for Active; 'I' for Inactive)
REMARK    1  A    between atoms: C_7  and  C_12 
REMARK    2  A    between atoms: C_10  and  N_11 
ROOT
HETATM    1  C   UNK N   1      35.232  13.476  17.322  0.00  0.00     0.001 A 
HETATM    2  C   UNK N   1      35.928  13.565  16.119  0.00  0.00     0.001 A 
HETATM    3  C   UNK N   1      36.469  12.417  15.540  0.00  0.00     0.010 A 
HETATM    4  C   UNK N   1      36.327  11.166  16.164  0.00  0.00    -0.029 A 
HETATM    5  C   UNK N   1      35.618  11.072  17.384  0.00  0.00    -0.041 A 
HETATM    6  C   UNK N   1      35.081  12.240  17.948  0.00  0.00     0.008 A 
HETATM    7  C   UNK N   1      35.470   9.723  18.078  0.00  0.00     0.052 C 
HETATM    8  C   UNK N   1      36.049   8.494  17.367  0.00  0.00     0.016 C 
HETATM    9  C   UNK N   1      37.273   8.870  16.541  0.00  0.00     0.030 C 
HETATM   10  C   UNK N   1      36.896   9.926  15.509  0.00  0.00     0.108 C 
ENDROOT
BRANCH   7  11
HETATM   11  C   UNK N   1      34.604   9.502  19.310  0.00  0.00    -0.048 A 
HETATM   12  C   UNK N   1      35.052   9.879  20.583  0.00  0.00     0.009 A 
HETATM   13  C   UNK N   1      34.262   9.673  21.712  0.00  0.00     0.026 A 
HETATM   14  C   UNK N   1      33.006   9.080  21.589  0.00  0.00     0.055 A 
HETATM   15  C   UNK N   1      32.540   8.692  20.322  0.00  0.00     0.056 A 
HETATM   16 Cl   UNK N   1      32.045   8.836  23.039  0.00  0.00    -0.083 Cl
HETATM   17  C   UNK N   1      33.338   8.906  19.190  0.00  0.00     0.033 A 
HETATM   18 Cl   UNK N   1      30.967   7.936  20.128  0.00  0.00    -0.083 Cl
ENDBRANCH   7  11
BRANCH  10  19
HETATM   19  N   UNK N   1      38.051  10.239  14.683  0.00  0.00    -0.422 N 
HETATM   20  H   UNK N   1      38.203  11.142  14.235  0.00  0.00     0.150 HD
HETATM   21  H   UNK N   1      38.752   9.510  14.544  0.00  0.00     0.150 HD
ENDBRANCH  10  19
TORSDOF 2
ENDMDL
MODEL 8
REMARK VINA RESULT:      -6.2     24.998     27.349
REMARK  2 active torsions:
REMARK  status: ('A' for Active; 'I' for Inactive)
REMARK    1  A    between atoms: C_7  and  C_12 
REMARK    2  A    between atoms: C_10  and  N_11 
ROOT
HETATM    1  C   UNK N   1      37.847   9.347  15.154  0.00  0.00     0.001 A 
HETATM    2  C   UNK N   1      38.134  10.277  14.157  0.00  0.00     0.001 A 
HETATM    3  C   UNK N   1      37.596  11.562  14.227  0.00  0.00     0.010 A 
HETATM    4  C   UNK N   1      36.757  11.930  15.292  0.00  0.00    -0.029 A 
HETATM    5  C   UNK N   1      36.467  10.989  16.308  0.00  0.00    -0.041 A 
HETATM    6  C   UNK N   1      37.020   9.702  16.219  0.00  0.00     0.008 A 
HETATM    7  C   UNK N   1      35.546  11.372  17.461  0.00  0.00     0.052 C 
HETATM    8  C   UNK N   1      35.025  12.813  17.503  0.00  0.00     0.016 C 
HETATM    9  C   UNK N   1      34.865  13.374  16.095  0.00  0.00     0.030 C 
HETATM   10  C   UNK N   1      36.205  13.336  15.368  0.00  0.00     0.108 C 
ENDROOT
BRANCH   7  11
HETATM   11  C   UNK N   1      35.296  10.480  18.669  0.00  0.00    -0.048 A 
HETATM   12  C   UNK N   1      36.056  10.619  19.838  0.00  0.00     0.009 A 
HETATM   13  C   UNK N   1      35.831   9.801  20.942  0.00  0.00     0.026 A 
HETATM   14  C   UNK N   1      34.840   8.821  20.898  0.00  0.00     0.055 A 
HETATM   15  C   UNK N   1      34.068   8.664  19.735  0.00  0.00     0.056 A 
HETATM   16 Cl   UNK N   1      34.592   7.810  22.312  0.00  0.00    -0.083 Cl
HETATM   17  C   UNK N   1      34.297   9.493  18.628  0.00  0.00     0.033 A 
HETATM   18 Cl   UNK N   1      32.815   7.437  19.638  0.00  0.00    -0.083 Cl
ENDBRANCH   7  11
BRANCH  10  19
HETATM   19  N   UNK N   1      36.062  13.928  14.047  0.00  0.00    -0.422 N 
HETATM   20  H   UNK N   1      35.304  14.557  13.784  0.00  0.00     0.150 HD
HETATM   21  H   UNK N   1      36.763  13.700  13.342  0.00  0.00     0.150 HD
ENDBRANCH  10  19
TORSDOF 2
ENDMDL
MODEL 9
REMARK VINA RESULT:      -6.2      3.950      6.465
REMARK  2 active torsions:
REMARK  status: ('A' for Active; 'I' for Inactive)
REMARK    1  A    between atoms: C_7  and  C_12 
REMARK    2  A    between atoms: C_10  and  N_11 
ROOT
HETATM    1  C   UNK N   1      28.467  28.502  -7.578  0.00  0.00     0.001 A 
HETATM    2  C   UNK N   1      28.390  29.655  -6.800  0.00  0.00     0.001 A 
HETATM    3  C   UNK N   1      27.849  29.594  -5.515  0.00  0.00     0.010 A 
HETATM    4  C   UNK N   1      27.371  28.380  -4.997  0.00  0.00    -0.029 A 
HETATM    5  C   UNK N   1      27.451  27.206  -5.782  0.00  0.00    -0.041 A 
HETATM    6  C   UNK N   1      28.000  27.289  -7.072  0.00  0.00     0.008 A 
HETATM    7  C   UNK N   1      26.923  25.885  -5.236  0.00  0.00     0.052 C 
HETATM    8  C   UNK N   1      26.383  25.878  -3.801  0.00  0.00     0.016 C 
HETATM    9  C   UNK N   1      25.768  27.226  -3.445  0.00  0.00     0.030 C 
HETATM   10  C   UNK N   1      26.813  28.326  -3.591  0.00  0.00     0.108 C 
ENDROOT
BRANCH   7  11
HETATM   11  C   UNK N   1      27.100  24.550  -5.946  0.00  0.00    -0.048 A 
HETATM   12  C   UNK N   1      28.353  23.927  -6.008  0.00  0.00     0.009 A 
HETATM   13  C   UNK N   1      28.517  22.708  -6.661  0.00  0.00     0.026 A 
HETATM   14  C   UNK N   1      27.428  22.088  -7.270  0.00  0.00     0.055 A 
HETATM   15  C   UNK N   1      26.163  22.697  -7.221  0.00  0.00     0.056 A 
HETATM   16 Cl   UNK N   1      27.680  20.553  -8.085  0.00  0.00    -0.083 Cl
HETATM   17  C   UNK N   1      26.004  23.922  -6.559  0.00  0.00     0.033 A 
HETATM   18 Cl   UNK N   1      24.767  21.950  -7.982  0.00  0.00    -0.083 Cl
ENDBRANCH   7  11
BRANCH  10  19
HETATM   19  N   UNK N   1      26.240  29.602  -3.193  0.00  0.00    -0.422 N 
HETATM   20  H   UNK N   1      25.640  29.726  -2.378  0.00  0.00     0.150 HD
HETATM   21  H   UNK N   1      26.453  30.421  -3.762  0.00  0.00     0.150 HD
ENDBRANCH  10  19
TORSDOF 2
ENDMDL
