MODEL 1
REMARK VINA RESULT:      -8.0      0.000      0.000
REMARK  12 active torsions:
REMARK  status: ('A' for Active; 'I' for Inactive)
REMARK    1  A    between atoms: C_12  and  O_1 
REMARK    2  A    between atoms: O_1  and  C_15 
REMARK    3  A    between atoms: O_2  and  C_16 
REMARK    4  A    between atoms: O_3  and  C_17 
REMARK    5  A    between atoms: O_4  and  C_18 
REMARK    6  A    between atoms: O_5  and  C_19 
REMARK    7  A    between atoms: O_6  and  C_21 
REMARK    8  A    between atoms: O_7  and  C_20 
REMARK    9  A    between atoms: O_8  and  C_23 
REMARK   10  A    between atoms: O_9  and  C_22 
REMARK   11  A    between atoms: C_13  and  C_26 
REMARK   12  A    between atoms: C_15  and  C_27 
ROOT
HETATM    1  O   UNK N   1      32.032  15.346   6.548  0.00  0.00    -0.338 OA
HETATM    2  C   UNK N   1      33.438  17.091   7.453  0.00  0.00     0.170 C 
HETATM    3  C   UNK N   1      32.102  16.709   6.782  0.00  0.00     0.192 C 
HETATM    4  C   UNK N   1      34.600  16.578   6.589  0.00  0.00     0.080 C 
HETATM    5  C   UNK N   1      35.483  14.367   5.752  0.00  0.00     0.077 A 
HETATM    6  C   UNK N   1      33.979  12.522   5.297  0.00  0.00     0.071 A 
HETATM    7  C   UNK N   1      33.093  14.612   6.135  0.00  0.00     0.081 A 
HETATM    8  C   UNK N   1      34.392  15.157   6.150  0.00  0.00     0.011 A 
HETATM    9  C   UNK N   1      35.271  13.053   5.326  0.00  0.00     0.073 A 
HETATM   10  C   UNK N   1      32.894  13.297   5.710  0.00  0.00     0.074 A 
ENDROOT
BRANCH   2  11
HETATM   11  O   UNK N   1      33.515  16.617   8.753  0.00  0.00    -0.309 OA
BRANCH  11  12
HETATM   12  C   UNK N   1      34.651  16.753   9.480  0.00  0.00     0.294 C 
HETATM   13  O   UNK N   1      35.153  17.861   9.628  0.00  0.00    -0.259 OA
BRANCH  12  14
HETATM   14  C   UNK N   1      35.221  15.592  10.186  0.00  0.00     0.045 A 
HETATM   15  C   UNK N   1      34.484  14.938  11.182  0.00  0.00     0.057 A 
HETATM   16  C   UNK N   1      35.052  13.884  11.902  0.00  0.00     0.102 A 
HETATM   17  C   UNK N   1      36.371  13.487  11.643  0.00  0.00     0.132 A 
HETATM   18  C   UNK N   1      37.113  14.141  10.648  0.00  0.00     0.102 A 
HETATM   19  C   UNK N   1      36.536  15.185   9.921  0.00  0.00     0.057 A 
BRANCH  16  20
HETATM   20  O   UNK N   1      34.332  13.260  12.850  0.00  0.00    -0.358 OA
HETATM   21  H   UNK N   1      34.732  13.021  13.663  0.00  0.00     0.217 HD
ENDBRANCH  16  20
BRANCH  17  22
HETATM   22  O   UNK N   1      36.927  12.486  12.347  0.00  0.00    -0.356 OA
HETATM   23  H   UNK N   1      37.858  12.385  12.363  0.00  0.00     0.218 HD
ENDBRANCH  17  22
BRANCH  18  24
HETATM   24  O   UNK N   1      38.380  13.776  10.395  0.00  0.00    -0.358 OA
HETATM   25  H   UNK N   1      38.951  14.347   9.921  0.00  0.00     0.217 HD
ENDBRANCH  18  24
ENDBRANCH  12  14
ENDBRANCH  11  12
ENDBRANCH   2  11
BRANCH   3  26
HETATM   26  C   UNK N   1      30.851  17.166   7.493  0.00  0.00    -0.021 A 
HETATM   27  C   UNK N   1      29.605  16.859   6.933  0.00  0.00     0.049 A 
HETATM   28  C   UNK N   1      28.424  17.228   7.581  0.00  0.00     0.102 A 
HETATM   29  C   UNK N   1      28.479  17.919   8.798  0.00  0.00     0.132 A 
HETATM   30  C   UNK N   1      29.721  18.242   9.359  0.00  0.00     0.102 A 
HETATM   31  C   UNK N   1      30.900  17.865   8.710  0.00  0.00     0.049 A 
BRANCH  28  32
HETATM   32  O   UNK N   1      27.238  16.909   7.034  0.00  0.00    -0.358 OA
HETATM   33  H   UNK N   1      26.809  16.111   7.270  0.00  0.00     0.217 HD
ENDBRANCH  28  32
BRANCH  29  34
HETATM   34  O   UNK N   1      27.343  18.271   9.425  0.00  0.00    -0.356 OA
HETATM   35  H   UNK N   1      27.066  17.852  10.216  0.00  0.00     0.218 HD
ENDBRANCH  29  34
BRANCH  30  36
HETATM   36  O   UNK N   1      29.785  18.910  10.523  0.00  0.00    -0.358 OA
HETATM   37  H   UNK N   1      29.047  19.393  10.838  0.00  0.00     0.217 HD
ENDBRANCH  30  36
ENDBRANCH   3  26
BRANCH   5  38
HETATM   38  O   UNK N   1      36.732  14.863   5.783  0.00  0.00    -0.360 OA
HETATM   39  H   UNK N   1      37.302  14.869   6.526  0.00  0.00     0.217 HD
ENDBRANCH   5  38
BRANCH   6  40
HETATM   40  O   UNK N   1      33.781  11.263   4.874  0.00  0.00    -0.361 OA
HETATM   41  H   UNK N   1      33.615  10.480   5.361  0.00  0.00     0.217 HD
ENDBRANCH   6  40
TORSDOF 12
ENDMDL
MODEL 2
REMARK VINA RESULT:      -8.0      9.472     13.317
REMARK  12 active torsions:
REMARK  status: ('A' for Active; 'I' for Inactive)
REMARK    1  A    between atoms: C_12  and  O_1 
REMARK    2  A    between atoms: O_1  and  C_15 
REMARK    3  A    between atoms: O_2  and  C_16 
REMARK    4  A    between atoms: O_3  and  C_17 
REMARK    5  A    between atoms: O_4  and  C_18 
REMARK    6  A    between atoms: O_5  and  C_19 
REMARK    7  A    between atoms: O_6  and  C_21 
REMARK    8  A    between atoms: O_7  and  C_20 
REMARK    9  A    between atoms: O_8  and  C_23 
REMARK   10  A    between atoms: O_9  and  C_22 
REMARK   11  A    between atoms: C_13  and  C_26 
REMARK   12  A    between atoms: C_15  and  C_27 
ROOT
HETATM    1  O   UNK N   1      19.857  16.862   5.525  0.00  0.00    -0.338 OA
HETATM    2  C   UNK N   1      22.002  15.941   4.897  0.00  0.00     0.170 C 
HETATM    3  C   UNK N   1      20.596  16.394   4.451  0.00  0.00     0.192 C 
HETATM    4  C   UNK N   1      21.864  14.902   6.020  0.00  0.00     0.080 C 
HETATM    5  C   UNK N   1      20.921  14.777   8.357  0.00  0.00     0.077 A 
HETATM    6  C   UNK N   1      19.001  16.112   8.994  0.00  0.00     0.071 A 
HETATM    7  C   UNK N   1      19.895  16.291   6.752  0.00  0.00     0.081 A 
HETATM    8  C   UNK N   1      20.875  15.330   7.067  0.00  0.00     0.011 A 
HETATM    9  C   UNK N   1      19.982  15.170   9.315  0.00  0.00     0.073 A 
HETATM   10  C   UNK N   1      18.964  16.678   7.719  0.00  0.00     0.074 A 
ENDROOT
BRANCH   2  11
HETATM   11  O   UNK N   1      22.789  17.014   5.284  0.00  0.00    -0.309 OA
BRANCH  11  12
HETATM   12  C   UNK N   1      24.118  17.037   5.019  0.00  0.00     0.294 C 
HETATM   13  O   UNK N   1      24.798  16.036   5.214  0.00  0.00    -0.259 OA
BRANCH  12  14
HETATM   14  C   UNK N   1      24.727  18.223   4.391  0.00  0.00     0.045 A 
HETATM   15  C   UNK N   1      23.923  19.182   3.761  0.00  0.00     0.057 A 
HETATM   16  C   UNK N   1      24.504  20.268   3.102  0.00  0.00     0.102 A 
HETATM   17  C   UNK N   1      25.899  20.394   3.053  0.00  0.00     0.132 A 
HETATM   18  C   UNK N   1      26.708  19.435   3.681  0.00  0.00     0.102 A 
HETATM   19  C   UNK N   1      26.121  18.359   4.350  0.00  0.00     0.057 A 
BRANCH  16  20
HETATM   20  O   UNK N   1      23.720  21.184   2.508  0.00  0.00    -0.358 OA
HETATM   21  H   UNK N   1      23.907  22.097   2.605  0.00  0.00     0.217 HD
ENDBRANCH  16  20
BRANCH  17  22
HETATM   22  O   UNK N   1      26.461  21.428   2.404  0.00  0.00    -0.356 OA
HETATM   23  H   UNK N   1      26.003  22.243   2.332  0.00  0.00     0.218 HD
ENDBRANCH  17  22
BRANCH  18  24
HETATM   24  O   UNK N   1      28.046  19.541   3.635  0.00  0.00    -0.358 OA
HETATM   25  H   UNK N   1      28.560  18.865   3.239  0.00  0.00     0.217 HD
ENDBRANCH  18  24
ENDBRANCH  12  14
ENDBRANCH  11  12
ENDBRANCH   2  11
BRANCH   3  26
HETATM   26  C   UNK N   1      20.551  17.401   3.328  0.00  0.00    -0.021 A 
HETATM   27  C   UNK N   1      20.646  18.763   3.638  0.00  0.00     0.049 A 
HETATM   28  C   UNK N   1      20.651  19.724   2.624  0.00  0.00     0.102 A 
HETATM   29  C   UNK N   1      20.551  19.330   1.284  0.00  0.00     0.132 A 
HETATM   30  C   UNK N   1      20.441  17.969   0.966  0.00  0.00     0.102 A 
HETATM   31  C   UNK N   1      20.445  17.011   1.983  0.00  0.00     0.049 A 
BRANCH  28  32
HETATM   32  O   UNK N   1      20.759  21.026   2.943  0.00  0.00    -0.358 OA
HETATM   33  H   UNK N   1      21.581  21.465   2.856  0.00  0.00     0.217 HD
ENDBRANCH  28  32
BRANCH  29  34
HETATM   34  O   UNK N   1      20.559  20.253   0.306  0.00  0.00    -0.356 OA
HETATM   35  H   UNK N   1      20.951  20.085  -0.528  0.00  0.00     0.218 HD
ENDBRANCH  29  34
BRANCH  30  36
HETATM   36  O   UNK N   1      20.339  17.580  -0.316  0.00  0.00    -0.358 OA
HETATM   37  H   UNK N   1      20.925  16.941  -0.669  0.00  0.00     0.217 HD
ENDBRANCH  30  36
ENDBRANCH   3  26
BRANCH   5  38
HETATM   38  O   UNK N   1      21.864  13.876   8.682  0.00  0.00    -0.360 OA
HETATM   39  H   UNK N   1      22.192  13.199   8.122  0.00  0.00     0.217 HD
ENDBRANCH   5  38
BRANCH   6  40
HETATM   40  O   UNK N   1      18.093  16.475   9.915  0.00  0.00    -0.361 OA
HETATM   41  H   UNK N   1      17.331  17.013   9.834  0.00  0.00     0.217 HD
ENDBRANCH   6  40
TORSDOF 12
ENDMDL
MODEL 3
REMARK VINA RESULT:      -8.0     10.145     14.155
REMARK  12 active torsions:
REMARK  status: ('A' for Active; 'I' for Inactive)
REMARK    1  A    between atoms: C_12  and  O_1 
REMARK    2  A    between atoms: O_1  and  C_15 
REMARK    3  A    between atoms: O_2  and  C_16 
REMARK    4  A    between atoms: O_3  and  C_17 
REMARK    5  A    between atoms: O_4  and  C_18 
REMARK    6  A    between atoms: O_5  and  C_19 
REMARK    7  A    between atoms: O_6  and  C_21 
REMARK    8  A    between atoms: O_7  and  C_20 
REMARK    9  A    between atoms: O_8  and  C_23 
REMARK   10  A    between atoms: O_9  and  C_22 
REMARK   11  A    between atoms: C_13  and  C_26 
REMARK   12  A    between atoms: C_15  and  C_27 
ROOT
HETATM    1  O   UNK N   1      22.878  14.911   7.013  0.00  0.00    -0.338 OA
HETATM    2  C   UNK N   1      21.474  16.682   6.156  0.00  0.00     0.170 C 
HETATM    3  C   UNK N   1      22.902  16.149   6.392  0.00  0.00     0.192 C 
HETATM    4  C   UNK N   1      20.718  16.705   7.493  0.00  0.00     0.080 C 
HETATM    5  C   UNK N   1      19.971  15.060   9.256  0.00  0.00     0.077 A 
HETATM    6  C   UNK N   1      21.263  13.062   9.715  0.00  0.00     0.071 A 
HETATM    7  C   UNK N   1      21.996  14.592   7.989  0.00  0.00     0.081 A 
HETATM    8  C   UNK N   1      20.895  15.427   8.263  0.00  0.00     0.011 A 
HETATM    9  C   UNK N   1      20.160  13.879   9.978  0.00  0.00     0.073 A 
HETATM   10  C   UNK N   1      22.173  13.413   8.716  0.00  0.00     0.074 A 
ENDROOT
BRANCH   2  11
HETATM   11  O   UNK N   1      20.800  15.943   5.197  0.00  0.00    -0.309 OA
BRANCH  11  12
HETATM   12  C   UNK N   1      19.806  16.495   4.459  0.00  0.00     0.294 C 
HETATM   13  O   UNK N   1      18.636  16.276   4.749  0.00  0.00    -0.259 OA
BRANCH  12  14
HETATM   14  C   UNK N   1      20.126  17.448   3.381  0.00  0.00     0.045 A 
HETATM   15  C   UNK N   1      20.377  18.793   3.677  0.00  0.00     0.057 A 
HETATM   16  C   UNK N   1      20.608  19.711   2.650  0.00  0.00     0.102 A 
HETATM   17  C   UNK N   1      20.570  19.292   1.313  0.00  0.00     0.132 A 
HETATM   18  C   UNK N   1      20.316  17.946   1.012  0.00  0.00     0.102 A 
HETATM   19  C   UNK N   1      20.100  17.029   2.044  0.00  0.00     0.057 A 
BRANCH  16  20
HETATM   20  O   UNK N   1      20.855  20.998   2.949  0.00  0.00    -0.358 OA
HETATM   21  H   UNK N   1      20.421  21.404   3.673  0.00  0.00     0.217 HD
ENDBRANCH  16  20
BRANCH  17  22
HETATM   22  O   UNK N   1      20.773  20.176   0.321  0.00  0.00    -0.356 OA
HETATM   23  H   UNK N   1      20.818  21.093   0.512  0.00  0.00     0.218 HD
ENDBRANCH  17  22
BRANCH  18  24
HETATM   24  O   UNK N   1      20.270  17.533  -0.265  0.00  0.00    -0.358 OA
HETATM   25  H   UNK N   1      20.340  16.621  -0.470  0.00  0.00     0.217 HD
ENDBRANCH  18  24
ENDBRANCH  12  14
ENDBRANCH  11  12
ENDBRANCH   2  11
BRANCH   3  26
HETATM   26  C   UNK N   1      23.794  16.088   5.175  0.00  0.00    -0.021 A 
HETATM   27  C   UNK N   1      24.411  17.264   4.731  0.00  0.00     0.049 A 
HETATM   28  C   UNK N   1      25.276  17.242   3.634  0.00  0.00     0.102 A 
HETATM   29  C   UNK N   1      25.526  16.039   2.962  0.00  0.00     0.132 A 
HETATM   30  C   UNK N   1      24.901  14.860   3.392  0.00  0.00     0.102 A 
HETATM   31  C   UNK N   1      24.042  14.886   4.494  0.00  0.00     0.049 A 
BRANCH  28  32
HETATM   32  O   UNK N   1      25.872  18.379   3.234  0.00  0.00    -0.358 OA
HETATM   33  H   UNK N   1      25.412  18.985   2.687  0.00  0.00     0.217 HD
ENDBRANCH  28  32
BRANCH  29  34
HETATM   34  O   UNK N   1      26.361  16.015   1.909  0.00  0.00    -0.356 OA
HETATM   35  H   UNK N   1      26.973  16.706   1.749  0.00  0.00     0.218 HD
ENDBRANCH  29  34
BRANCH  30  36
HETATM   36  O   UNK N   1      25.129  13.701   2.751  0.00  0.00    -0.358 OA
HETATM   37  H   UNK N   1      24.842  13.579   1.868  0.00  0.00     0.217 HD
ENDBRANCH  30  36
ENDBRANCH   3  26
BRANCH   5  38
HETATM   38  O   UNK N   1      18.902  15.833   9.513  0.00  0.00    -0.360 OA
HETATM   39  H   UNK N   1      18.059  15.530   9.788  0.00  0.00     0.217 HD
ENDBRANCH   5  38
BRANCH   6  40
HETATM   40  O   UNK N   1      21.446  11.935  10.422  0.00  0.00    -0.361 OA
HETATM   41  H   UNK N   1      22.173  11.343  10.440  0.00  0.00     0.217 HD
ENDBRANCH   6  40
TORSDOF 12
ENDMDL
MODEL 4
REMARK VINA RESULT:      -7.9     10.084     12.279
REMARK  12 active torsions:
REMARK  status: ('A' for Active; 'I' for Inactive)
REMARK    1  A    between atoms: C_12  and  O_1 
REMARK    2  A    between atoms: O_1  and  C_15 
REMARK    3  A    between atoms: O_2  and  C_16 
REMARK    4  A    between atoms: O_3  and  C_17 
REMARK    5  A    between atoms: O_4  and  C_18 
REMARK    6  A    between atoms: O_5  and  C_19 
REMARK    7  A    between atoms: O_6  and  C_21 
REMARK    8  A    between atoms: O_7  and  C_20 
REMARK    9  A    between atoms: O_8  and  C_23 
REMARK   10  A    between atoms: O_9  and  C_22 
REMARK   11  A    between atoms: C_13  and  C_26 
REMARK   12  A    between atoms: C_15  and  C_27 
ROOT
HETATM    1  O   UNK N   1      20.596  16.671   5.465  0.00  0.00    -0.338 OA
HETATM    2  C   UNK N   1      22.121  15.619   7.017  0.00  0.00     0.170 C 
HETATM    3  C   UNK N   1      21.218  16.827   6.692  0.00  0.00     0.192 C 
HETATM    4  C   UNK N   1      23.119  15.413   5.868  0.00  0.00     0.080 C 
HETATM    5  C   UNK N   1      23.060  14.892   3.399  0.00  0.00     0.077 A 
HETATM    6  C   UNK N   1      21.215  15.641   2.017  0.00  0.00     0.071 A 
HETATM    7  C   UNK N   1      21.213  16.131   4.387  0.00  0.00     0.081 A 
HETATM    8  C   UNK N   1      22.454  15.477   4.523  0.00  0.00     0.011 A 
HETATM    9  C   UNK N   1      22.438  14.978   2.151  0.00  0.00     0.073 A 
HETATM   10  C   UNK N   1      20.600  16.208   3.135  0.00  0.00     0.074 A 
ENDROOT
BRANCH   2  11
HETATM   11  O   UNK N   1      21.379  14.474   7.265  0.00  0.00    -0.309 OA
BRANCH  11  12
HETATM   12  C   UNK N   1      21.986  13.280   7.473  0.00  0.00     0.294 C 
HETATM   13  O   UNK N   1      22.229  12.545   6.523  0.00  0.00    -0.259 OA
BRANCH  12  14
HETATM   14  C   UNK N   1      22.455  12.912   8.821  0.00  0.00     0.045 A 
HETATM   15  C   UNK N   1      21.543  12.489   9.796  0.00  0.00     0.057 A 
HETATM   16  C   UNK N   1      21.976  12.211  11.094  0.00  0.00     0.102 A 
HETATM   17  C   UNK N   1      23.326  12.373  11.433  0.00  0.00     0.132 A 
HETATM   18  C   UNK N   1      24.243  12.799  10.460  0.00  0.00     0.102 A 
HETATM   19  C   UNK N   1      23.806  13.062   9.159  0.00  0.00     0.057 A 
BRANCH  16  20
HETATM   20  O   UNK N   1      21.092  11.798  12.018  0.00  0.00    -0.358 OA
HETATM   21  H   UNK N   1      20.261  11.454  11.753  0.00  0.00     0.217 HD
ENDBRANCH  16  20
BRANCH  17  22
HETATM   22  O   UNK N   1      23.744  12.124  12.686  0.00  0.00    -0.356 OA
HETATM   23  H   UNK N   1      24.168  11.313  12.887  0.00  0.00     0.218 HD
ENDBRANCH  17  22
BRANCH  18  24
HETATM   24  O   UNK N   1      25.538  12.965  10.773  0.00  0.00    -0.358 OA
HETATM   25  H   UNK N   1      25.798  13.070  11.667  0.00  0.00     0.217 HD
ENDBRANCH  18  24
ENDBRANCH  12  14
ENDBRANCH  11  12
ENDBRANCH   2  11
BRANCH   3  26
HETATM   26  C   UNK N   1      20.191  17.185   7.739  0.00  0.00    -0.021 A 
HETATM   27  C   UNK N   1      20.415  18.305   8.549  0.00  0.00     0.049 A 
HETATM   28  C   UNK N   1      19.469  18.694   9.501  0.00  0.00     0.102 A 
HETATM   29  C   UNK N   1      18.289  17.956   9.659  0.00  0.00     0.132 A 
HETATM   30  C   UNK N   1      18.064  16.825   8.863  0.00  0.00     0.102 A 
HETATM   31  C   UNK N   1      19.010  16.445   7.906  0.00  0.00     0.049 A 
BRANCH  28  32
HETATM   32  O   UNK N   1      19.696  19.783  10.257  0.00  0.00    -0.358 OA
HETATM   33  H   UNK N   1      20.155  19.705  11.069  0.00  0.00     0.217 HD
ENDBRANCH  28  32
BRANCH  29  34
HETATM   34  O   UNK N   1      17.376  18.331  10.573  0.00  0.00    -0.356 OA
HETATM   35  H   UNK N   1      16.461  18.178  10.446  0.00  0.00     0.218 HD
ENDBRANCH  29  34
BRANCH  30  36
HETATM   36  O   UNK N   1      16.939  16.107   9.010  0.00  0.00    -0.358 OA
HETATM   37  H   UNK N   1      16.807  15.320   8.520  0.00  0.00     0.217 HD
ENDBRANCH  30  36
ENDBRANCH   3  26
BRANCH   5  38
HETATM   38  O   UNK N   1      24.232  14.244   3.515  0.00  0.00    -0.360 OA
HETATM   39  H   UNK N   1      24.617  13.687   2.868  0.00  0.00     0.217 HD
ENDBRANCH   5  38
BRANCH   6  40
HETATM   40  O   UNK N   1      20.630  15.732   0.812  0.00  0.00    -0.361 OA
HETATM   41  H   UNK N   1      20.998  15.929  -0.027  0.00  0.00     0.217 HD
ENDBRANCH   6  40
TORSDOF 12
ENDMDL
MODEL 5
REMARK VINA RESULT:      -7.9      9.653     12.844
REMARK  12 active torsions:
REMARK  status: ('A' for Active; 'I' for Inactive)
REMARK    1  A    between atoms: C_12  and  O_1 
REMARK    2  A    between atoms: O_1  and  C_15 
REMARK    3  A    between atoms: O_2  and  C_16 
REMARK    4  A    between atoms: O_3  and  C_17 
REMARK    5  A    between atoms: O_4  and  C_18 
REMARK    6  A    between atoms: O_5  and  C_19 
REMARK    7  A    between atoms: O_6  and  C_21 
REMARK    8  A    between atoms: O_7  and  C_20 
REMARK    9  A    between atoms: O_8  and  C_23 
REMARK   10  A    between atoms: O_9  and  C_22 
REMARK   11  A    between atoms: C_13  and  C_26 
REMARK   12  A    between atoms: C_15  and  C_27 
ROOT
HETATM    1  O   UNK N   1      21.264  17.759   7.047  0.00  0.00    -0.338 OA
HETATM    2  C   UNK N   1      21.129  15.373   6.682  0.00  0.00     0.170 C 
HETATM    3  C   UNK N   1      21.385  16.772   6.083  0.00  0.00     0.192 C 
HETATM    4  C   UNK N   1      19.756  15.364   7.370  0.00  0.00     0.080 C 
HETATM    5  C   UNK N   1      18.602  16.553   9.274  0.00  0.00     0.077 A 
HETATM    6  C   UNK N   1      19.161  18.846   9.826  0.00  0.00     0.071 A 
HETATM    7  C   UNK N   1      20.319  17.732   8.016  0.00  0.00     0.081 A 
HETATM    8  C   UNK N   1      19.552  16.572   8.240  0.00  0.00     0.011 A 
HETATM    9  C   UNK N   1      18.410  17.691  10.062  0.00  0.00     0.073 A 
HETATM   10  C   UNK N   1      20.120  18.863   8.811  0.00  0.00     0.074 A 
ENDROOT
BRANCH   2  11
HETATM   11  O   UNK N   1      22.141  14.991   7.548  0.00  0.00    -0.309 OA
BRANCH  11  12
HETATM   12  C   UNK N   1      22.417  13.682   7.767  0.00  0.00     0.294 C 
HETATM   13  O   UNK N   1      22.669  12.944   6.821  0.00  0.00    -0.259 OA
BRANCH  12  14
HETATM   14  C   UNK N   1      22.525  13.169   9.144  0.00  0.00     0.045 A 
HETATM   15  C   UNK N   1      23.783  12.961   9.724  0.00  0.00     0.057 A 
HETATM   16  C   UNK N   1      23.888  12.405  11.002  0.00  0.00     0.102 A 
HETATM   17  C   UNK N   1      22.732  12.036  11.703  0.00  0.00     0.132 A 
HETATM   18  C   UNK N   1      21.471  12.240  11.124  0.00  0.00     0.102 A 
HETATM   19  C   UNK N   1      21.371  12.809   9.853  0.00  0.00     0.057 A 
BRANCH  16  20
HETATM   20  O   UNK N   1      25.100  12.218  11.550  0.00  0.00    -0.358 OA
HETATM   21  H   UNK N   1      25.279  12.530  12.415  0.00  0.00     0.217 HD
ENDBRANCH  16  20
BRANCH  17  22
HETATM   22  O   UNK N   1      22.830  11.483  12.925  0.00  0.00    -0.356 OA
HETATM   23  H   UNK N   1      23.671  11.370  13.322  0.00  0.00     0.218 HD
ENDBRANCH  17  22
BRANCH  18  24
HETATM   24  O   UNK N   1      20.356  11.883  11.783  0.00  0.00    -0.358 OA
HETATM   25  H   UNK N   1      20.346  11.109  12.311  0.00  0.00     0.217 HD
ENDBRANCH  18  24
ENDBRANCH  12  14
ENDBRANCH  11  12
ENDBRANCH   2  11
BRANCH   3  26
HETATM   26  C   UNK N   1      22.689  16.944   5.341  0.00  0.00    -0.021 A 
HETATM   27  C   UNK N   1      23.190  15.870   4.597  0.00  0.00     0.049 A 
HETATM   28  C   UNK N   1      24.371  16.002   3.863  0.00  0.00     0.102 A 
HETATM   29  C   UNK N   1      25.072  17.215   3.875  0.00  0.00     0.132 A 
HETATM   30  C   UNK N   1      24.585  18.292   4.629  0.00  0.00     0.102 A 
HETATM   31  C   UNK N   1      23.398  18.156   5.355  0.00  0.00     0.049 A 
BRANCH  28  32
HETATM   32  O   UNK N   1      24.826  14.963   3.142  0.00  0.00    -0.358 OA
HETATM   33  H   UNK N   1      24.436  14.117   3.235  0.00  0.00     0.217 HD
ENDBRANCH  28  32
BRANCH  29  34
HETATM   34  O   UNK N   1      26.207  17.346   3.167  0.00  0.00    -0.356 OA
HETATM   35  H   UNK N   1      26.989  17.694   3.549  0.00  0.00     0.218 HD
ENDBRANCH  29  34
BRANCH  30  36
HETATM   36  O   UNK N   1      25.251  19.458   4.653  0.00  0.00    -0.358 OA
HETATM   37  H   UNK N   1      25.804  19.706   3.939  0.00  0.00     0.217 HD
ENDBRANCH  30  36
ENDBRANCH   3  26
BRANCH   5  38
HETATM   38  O   UNK N   1      17.879  15.446   9.517  0.00  0.00    -0.360 OA
HETATM   39  H   UNK N   1      17.075  15.411   9.996  0.00  0.00     0.217 HD
ENDBRANCH   5  38
BRANCH   6  40
HETATM   40  O   UNK N   1      18.962  19.940  10.577  0.00  0.00    -0.361 OA
HETATM   41  H   UNK N   1      18.171  20.403  10.775  0.00  0.00     0.217 HD
ENDBRANCH   6  40
TORSDOF 12
ENDMDL
MODEL 6
REMARK VINA RESULT:      -7.8     10.396     12.501
REMARK  12 active torsions:
REMARK  status: ('A' for Active; 'I' for Inactive)
REMARK    1  A    between atoms: C_12  and  O_1 
REMARK    2  A    between atoms: O_1  and  C_15 
REMARK    3  A    between atoms: O_2  and  C_16 
REMARK    4  A    between atoms: O_3  and  C_17 
REMARK    5  A    between atoms: O_4  and  C_18 
REMARK    6  A    between atoms: O_5  and  C_19 
REMARK    7  A    between atoms: O_6  and  C_21 
REMARK    8  A    between atoms: O_7  and  C_20 
REMARK    9  A    between atoms: O_8  and  C_23 
REMARK   10  A    between atoms: O_9  and  C_22 
REMARK   11  A    between atoms: C_13  and  C_26 
REMARK   12  A    between atoms: C_15  and  C_27 
ROOT
HETATM    1  O   UNK N   1      20.497  16.753   5.435  0.00  0.00    -0.338 OA
HETATM    2  C   UNK N   1      21.957  15.599   6.976  0.00  0.00     0.170 C 
HETATM    3  C   UNK N   1      21.125  16.860   6.664  0.00  0.00     0.192 C 
HETATM    4  C   UNK N   1      22.944  15.349   5.826  0.00  0.00     0.080 C 
HETATM    5  C   UNK N   1      22.859  14.860   3.352  0.00  0.00     0.077 A 
HETATM    6  C   UNK N   1      21.062  15.728   1.976  0.00  0.00     0.071 A 
HETATM    7  C   UNK N   1      21.084  16.191   4.352  0.00  0.00     0.081 A 
HETATM    8  C   UNK N   1      22.285  15.466   4.481  0.00  0.00     0.011 A 
HETATM    9  C   UNK N   1      22.245  14.995   2.104  0.00  0.00     0.073 A 
HETATM   10  C   UNK N   1      20.478  16.316   3.100  0.00  0.00     0.074 A 
ENDROOT
BRANCH   2  11
HETATM   11  O   UNK N   1      21.151  14.496   7.211  0.00  0.00    -0.309 OA
BRANCH  11  12
HETATM   12  C   UNK N   1      21.689  13.287   7.507  0.00  0.00     0.294 C 
HETATM   13  O   UNK N   1      21.906  12.479   6.612  0.00  0.00    -0.259 OA
BRANCH  12  14
HETATM   14  C   UNK N   1      22.119  12.985   8.884  0.00  0.00     0.045 A 
HETATM   15  C   UNK N   1      23.480  12.993   9.218  0.00  0.00     0.057 A 
HETATM   16  C   UNK N   1      23.893  12.636  10.504  0.00  0.00     0.102 A 
HETATM   17  C   UNK N   1      22.946  12.249  11.462  0.00  0.00     0.132 A 
HETATM   18  C   UNK N   1      21.583  12.237  11.131  0.00  0.00     0.102 A 
HETATM   19  C   UNK N   1      21.175  12.609   9.848  0.00  0.00     0.057 A 
BRANCH  16  20
HETATM   20  O   UNK N   1      25.200  12.655  10.813  0.00  0.00    -0.358 OA
HETATM   21  H   UNK N   1      25.546  12.040  11.430  0.00  0.00     0.217 HD
ENDBRANCH  16  20
BRANCH  17  22
HETATM   22  O   UNK N   1      23.342  11.885  12.695  0.00  0.00    -0.356 OA
HETATM   23  H   UNK N   1      23.116  11.039  13.029  0.00  0.00     0.218 HD
ENDBRANCH  17  22
BRANCH  18  24
HETATM   24  O   UNK N   1      20.667  11.861  12.038  0.00  0.00    -0.358 OA
HETATM   25  H   UNK N   1      19.932  11.340  11.779  0.00  0.00     0.217 HD
ENDBRANCH  18  24
ENDBRANCH  12  14
ENDBRANCH  11  12
ENDBRANCH   2  11
BRANCH   3  26
HETATM   26  C   UNK N   1      20.119  17.264   7.714  0.00  0.00    -0.021 A 
HETATM   27  C   UNK N   1      18.965  16.488   7.879  0.00  0.00     0.049 A 
HETATM   28  C   UNK N   1      18.030  16.804   8.867  0.00  0.00     0.102 A 
HETATM   29  C   UNK N   1      18.237  17.912   9.699  0.00  0.00     0.132 A 
HETATM   30  C   UNK N   1      19.382  18.703   9.532  0.00  0.00     0.102 A 
HETATM   31  C   UNK N   1      20.318  18.378   8.546  0.00  0.00     0.049 A 
BRANCH  28  32
HETATM   32  O   UNK N   1      16.938  16.036   9.019  0.00  0.00    -0.358 OA
HETATM   33  H   UNK N   1      16.603  15.856   9.875  0.00  0.00     0.217 HD
ENDBRANCH  28  32
BRANCH  29  34
HETATM   34  O   UNK N   1      17.340  18.217  10.653  0.00  0.00    -0.356 OA
HETATM   35  H   UNK N   1      17.241  19.090  10.976  0.00  0.00     0.218 HD
ENDBRANCH  29  34
BRANCH  30  36
HETATM   36  O   UNK N   1      19.587  19.772  10.320  0.00  0.00    -0.358 OA
HETATM   37  H   UNK N   1      19.146  19.850  11.142  0.00  0.00     0.217 HD
ENDBRANCH  30  36
ENDBRANCH   3  26
BRANCH   5  38
HETATM   38  O   UNK N   1      23.992  14.145   3.462  0.00  0.00    -0.360 OA
HETATM   39  H   UNK N   1      24.624  14.012   2.784  0.00  0.00     0.217 HD
ENDBRANCH   5  38
BRANCH   6  40
HETATM   40  O   UNK N   1      20.485  15.865   0.772  0.00  0.00    -0.361 OA
HETATM   41  H   UNK N   1      20.868  15.909  -0.082  0.00  0.00     0.217 HD
ENDBRANCH   6  40
TORSDOF 12
ENDMDL
MODEL 7
REMARK VINA RESULT:      -7.8      9.653     13.379
REMARK  12 active torsions:
REMARK  status: ('A' for Active; 'I' for Inactive)
REMARK    1  A    between atoms: C_12  and  O_1 
REMARK    2  A    between atoms: O_1  and  C_15 
REMARK    3  A    between atoms: O_2  and  C_16 
REMARK    4  A    between atoms: O_3  and  C_17 
REMARK    5  A    between atoms: O_4  and  C_18 
REMARK    6  A    between atoms: O_5  and  C_19 
REMARK    7  A    between atoms: O_6  and  C_21 
REMARK    8  A    between atoms: O_7  and  C_20 
REMARK    9  A    between atoms: O_8  and  C_23 
REMARK   10  A    between atoms: O_9  and  C_22 
REMARK   11  A    between atoms: C_13  and  C_26 
REMARK   12  A    between atoms: C_15  and  C_27 
ROOT
HETATM    1  O   UNK N   1      21.697  12.630   7.348  0.00  0.00    -0.338 OA
HETATM    2  C   UNK N   1      23.510  13.872   6.341  0.00  0.00     0.170 C 
HETATM    3  C   UNK N   1      22.387  12.829   6.164  0.00  0.00     0.192 C 
HETATM    4  C   UNK N   1      24.425  13.434   7.495  0.00  0.00     0.080 C 
HETATM    5  C   UNK N   1      24.243  12.992   9.972  0.00  0.00     0.077 A 
HETATM    6  C   UNK N   1      22.183  12.151  10.934  0.00  0.00     0.071 A 
HETATM    7  C   UNK N   1      22.302  12.597   8.559  0.00  0.00     0.081 A 
HETATM    8  C   UNK N   1      23.644  13.000   8.702  0.00  0.00     0.011 A 
HETATM    9  C   UNK N   1      23.510  12.566  11.083  0.00  0.00     0.073 A 
HETATM   10  C   UNK N   1      21.579  12.175   9.676  0.00  0.00     0.074 A 
ENDROOT
BRANCH   2  11
HETATM   11  O   UNK N   1      23.002  15.146   6.542  0.00  0.00    -0.309 OA
BRANCH  11  12
HETATM   12  C   UNK N   1      23.437  16.196   5.804  0.00  0.00     0.294 C 
HETATM   13  O   UNK N   1      24.639  16.376   5.646  0.00  0.00    -0.259 OA
BRANCH  12  14
HETATM   14  C   UNK N   1      22.470  17.055   5.097  0.00  0.00     0.045 A 
HETATM   15  C   UNK N   1      21.154  16.620   4.896  0.00  0.00     0.057 A 
HETATM   16  C   UNK N   1      20.257  17.402   4.163  0.00  0.00     0.102 A 
HETATM   17  C   UNK N   1      20.678  18.618   3.609  0.00  0.00     0.132 A 
HETATM   18  C   UNK N   1      21.996  19.056   3.806  0.00  0.00     0.102 A 
HETATM   19  C   UNK N   1      22.884  18.277   4.552  0.00  0.00     0.057 A 
BRANCH  16  20
HETATM   20  O   UNK N   1      18.995  16.977   3.983  0.00  0.00    -0.358 OA
HETATM   21  H   UNK N   1      18.715  16.164   4.357  0.00  0.00     0.217 HD
ENDBRANCH  16  20
BRANCH  17  22
HETATM   22  O   UNK N   1      19.823  19.364   2.887  0.00  0.00    -0.356 OA
HETATM   23  H   UNK N   1      18.949  19.506   3.195  0.00  0.00     0.218 HD
ENDBRANCH  17  22
BRANCH  18  24
HETATM   24  O   UNK N   1      22.413  20.216   3.274  0.00  0.00    -0.358 OA
HETATM   25  H   UNK N   1      23.176  20.643   3.612  0.00  0.00     0.217 HD
ENDBRANCH  18  24
ENDBRANCH  12  14
ENDBRANCH  11  12
ENDBRANCH   2  11
BRANCH   3  26
HETATM   26  C   UNK N   1      21.409  13.095   5.046  0.00  0.00    -0.021 A 
HETATM   27  C   UNK N   1      20.043  13.167   5.346  0.00  0.00     0.049 A 
HETATM   28  C   UNK N   1      19.109  13.452   4.346  0.00  0.00     0.102 A 
HETATM   29  C   UNK N   1      19.535  13.662   3.028  0.00  0.00     0.132 A 
HETATM   30  C   UNK N   1      20.899  13.579   2.717  0.00  0.00     0.102 A 
HETATM   31  C   UNK N   1      21.829  13.300   3.722  0.00  0.00     0.049 A 
BRANCH  28  32
HETATM   32  O   UNK N   1      17.804  13.533   4.659  0.00  0.00    -0.358 OA
HETATM   33  H   UNK N   1      17.178  13.002   4.208  0.00  0.00     0.217 HD
ENDBRANCH  28  32
BRANCH  29  34
HETATM   34  O   UNK N   1      18.639  13.941   2.066  0.00  0.00    -0.356 OA
HETATM   35  H   UNK N   1      18.129  13.270   1.657  0.00  0.00     0.218 HD
ENDBRANCH  29  34
BRANCH  30  36
HETATM   36  O   UNK N   1      21.318  13.772   1.455  0.00  0.00    -0.358 OA
HETATM   37  H   UNK N   1      20.819  14.298   0.862  0.00  0.00     0.217 HD
ENDBRANCH  30  36
ENDBRANCH   3  26
BRANCH   5  38
HETATM   38  O   UNK N   1      25.515  13.397  10.131  0.00  0.00    -0.360 OA
HETATM   39  H   UNK N   1      25.945  14.062   9.631  0.00  0.00     0.217 HD
ENDBRANCH   5  38
BRANCH   6  40
HETATM   40  O   UNK N   1      21.489  11.730  12.004  0.00  0.00    -0.361 OA
HETATM   41  H   UNK N   1      21.765  11.231  12.747  0.00  0.00     0.217 HD
ENDBRANCH   6  40
TORSDOF 12
ENDMDL
MODEL 8
REMARK VINA RESULT:      -7.8     10.105     13.092
REMARK  12 active torsions:
REMARK  status: ('A' for Active; 'I' for Inactive)
REMARK    1  A    between atoms: C_12  and  O_1 
REMARK    2  A    between atoms: O_1  and  C_15 
REMARK    3  A    between atoms: O_2  and  C_16 
REMARK    4  A    between atoms: O_3  and  C_17 
REMARK    5  A    between atoms: O_4  and  C_18 
REMARK    6  A    between atoms: O_5  and  C_19 
REMARK    7  A    between atoms: O_6  and  C_21 
REMARK    8  A    between atoms: O_7  and  C_20 
REMARK    9  A    between atoms: O_8  and  C_23 
REMARK   10  A    between atoms: O_9  and  C_22 
REMARK   11  A    between atoms: C_13  and  C_26 
REMARK   12  A    between atoms: C_15  and  C_27 
ROOT
HETATM    1  O   UNK N   1      21.814  13.977   5.062  0.00  0.00    -0.338 OA
HETATM    2  C   UNK N   1      20.668  15.866   6.043  0.00  0.00     0.170 C 
HETATM    3  C   UNK N   1      21.057  14.376   6.151  0.00  0.00     0.192 C 
HETATM    4  C   UNK N   1      19.953  16.104   4.705  0.00  0.00     0.080 C 
HETATM    5  C   UNK N   1      20.466  15.908   2.242  0.00  0.00     0.077 A 
HETATM    6  C   UNK N   1      22.005  14.223   1.425  0.00  0.00     0.071 A 
HETATM    7  C   UNK N   1      21.571  14.400   3.799  0.00  0.00     0.081 A 
HETATM    8  C   UNK N   1      20.676  15.461   3.556  0.00  0.00     0.011 A 
HETATM    9  C   UNK N   1      21.130  15.286   1.181  0.00  0.00     0.073 A 
HETATM   10  C   UNK N   1      22.231  13.788   2.732  0.00  0.00     0.074 A 
ENDROOT
BRANCH   2  11
HETATM   11  O   UNK N   1      21.767  16.697   6.195  0.00  0.00    -0.309 OA
BRANCH  11  12
HETATM   12  C   UNK N   1      21.661  18.036   6.015  0.00  0.00     0.294 C 
HETATM   13  O   UNK N   1      21.014  18.710   6.809  0.00  0.00    -0.259 OA
BRANCH  12  14
HETATM   14  C   UNK N   1      22.411  18.699   4.933  0.00  0.00     0.045 A 
HETATM   15  C   UNK N   1      23.812  18.689   4.935  0.00  0.00     0.057 A 
HETATM   16  C   UNK N   1      24.524  19.379   3.951  0.00  0.00     0.102 A 
HETATM   17  C   UNK N   1      23.837  20.103   2.966  0.00  0.00     0.132 A 
HETATM   18  C   UNK N   1      22.435  20.118   2.963  0.00  0.00     0.102 A 
HETATM   19  C   UNK N   1      21.728  19.414   3.941  0.00  0.00     0.057 A 
BRANCH  16  20
HETATM   20  O   UNK N   1      25.867  19.355   3.960  0.00  0.00    -0.358 OA
HETATM   21  H   UNK N   1      26.341  19.280   3.155  0.00  0.00     0.217 HD
ENDBRANCH  16  20
BRANCH  17  22
HETATM   22  O   UNK N   1      24.519  20.785   2.030  0.00  0.00    -0.356 OA
HETATM   23  H   UNK N   1      24.270  21.662   1.813  0.00  0.00     0.218 HD
ENDBRANCH  17  22
BRANCH  18  24
HETATM   24  O   UNK N   1      21.765  20.814   2.030  0.00  0.00    -0.358 OA
HETATM   25  H   UNK N   1      20.915  21.161   2.218  0.00  0.00     0.217 HD
ENDBRANCH  18  24
ENDBRANCH  12  14
ENDBRANCH  11  12
ENDBRANCH   2  11
BRANCH   3  26
HETATM   26  C   UNK N   1      21.749  13.965   7.428  0.00  0.00    -0.021 A 
HETATM   27  C   UNK N   1      20.968  13.637   8.543  0.00  0.00     0.049 A 
HETATM   28  C   UNK N   1      21.569  13.211   9.731  0.00  0.00     0.102 A 
HETATM   29  C   UNK N   1      22.964  13.118   9.817  0.00  0.00     0.132 A 
HETATM   30  C   UNK N   1      23.753  13.458   8.710  0.00  0.00     0.102 A 
HETATM   31  C   UNK N   1      23.147  13.876   7.522  0.00  0.00     0.049 A 
BRANCH  28  32
HETATM   32  O   UNK N   1      20.801  12.885  10.785  0.00  0.00    -0.358 OA
HETATM   33  H   UNK N   1      21.061  12.196  11.362  0.00  0.00     0.217 HD
ENDBRANCH  28  32
BRANCH  29  34
HETATM   34  O   UNK N   1      23.544  12.705  10.957  0.00  0.00    -0.356 OA
HETATM   35  H   UNK N   1      24.395  12.313  10.964  0.00  0.00     0.218 HD
ENDBRANCH  29  34
BRANCH  30  36
HETATM   36  O   UNK N   1      25.092  13.379   8.783  0.00  0.00    -0.358 OA
HETATM   37  H   UNK N   1      25.569  12.814   8.208  0.00  0.00     0.217 HD
ENDBRANCH  30  36
ENDBRANCH   3  26
BRANCH   5  38
HETATM   38  O   UNK N   1      19.634  16.934   1.995  0.00  0.00    -0.360 OA
HETATM   39  H   UNK N   1      18.774  17.042   2.351  0.00  0.00     0.217 HD
ENDBRANCH   5  38
BRANCH   6  40
HETATM   40  O   UNK N   1      22.629  13.621   0.400  0.00  0.00    -0.361 OA
HETATM   41  H   UNK N   1      23.229  13.967  -0.231  0.00  0.00     0.217 HD
ENDBRANCH   6  40
TORSDOF 12
ENDMDL
MODEL 9
REMARK VINA RESULT:      -7.7      7.424     12.159
REMARK  12 active torsions:
REMARK  status: ('A' for Active; 'I' for Inactive)
REMARK    1  A    between atoms: C_12  and  O_1 
REMARK    2  A    between atoms: O_1  and  C_15 
REMARK    3  A    between atoms: O_2  and  C_16 
REMARK    4  A    between atoms: O_3  and  C_17 
REMARK    5  A    between atoms: O_4  and  C_18 
REMARK    6  A    between atoms: O_5  and  C_19 
REMARK    7  A    between atoms: O_6  and  C_21 
REMARK    8  A    between atoms: O_7  and  C_20 
REMARK    9  A    between atoms: O_8  and  C_23 
REMARK   10  A    between atoms: O_9  and  C_22 
REMARK   11  A    between atoms: C_13  and  C_26 
REMARK   12  A    between atoms: C_15  and  C_27 
ROOT
HETATM    1  O   UNK N   1      34.353   8.895  18.312  0.00  0.00    -0.338 OA
HETATM    2  C   UNK N   1      35.576  10.882  18.942  0.00  0.00     0.170 C 
HETATM    3  C   UNK N   1      35.572   9.539  18.182  0.00  0.00     0.192 C 
HETATM    4  C   UNK N   1      35.191  10.633  20.408  0.00  0.00     0.080 C 
HETATM    5  C   UNK N   1      33.220   9.738  21.705  0.00  0.00     0.077 A 
HETATM    6  C   UNK N   1      31.784   8.029  20.758  0.00  0.00     0.071 A 
HETATM    7  C   UNK N   1      33.641   8.886  19.464  0.00  0.00     0.081 A 
HETATM    8  C   UNK N   1      33.992   9.736  20.532  0.00  0.00     0.011 A 
HETATM    9  C   UNK N   1      32.119   8.883  21.813  0.00  0.00     0.073 A 
HETATM   10  C   UNK N   1      32.538   8.038  19.583  0.00  0.00     0.074 A 
ENDROOT
BRANCH   2  11
HETATM   11  O   UNK N   1      34.745  11.815  18.343  0.00  0.00    -0.309 OA
BRANCH  11  12
HETATM   12  C   UNK N   1      35.171  13.079  18.102  0.00  0.00     0.294 C 
HETATM   13  O   UNK N   1      35.306  13.866  19.031  0.00  0.00    -0.259 OA
BRANCH  12  14
HETATM   14  C   UNK N   1      35.581  13.476  16.743  0.00  0.00     0.045 A 
HETATM   15  C   UNK N   1      36.592  14.427  16.558  0.00  0.00     0.057 A 
HETATM   16  C   UNK N   1      36.930  14.858  15.273  0.00  0.00     0.102 A 
HETATM   17  C   UNK N   1      36.244  14.352  14.161  0.00  0.00     0.132 A 
HETATM   18  C   UNK N   1      35.229  13.401  14.341  0.00  0.00     0.102 A 
HETATM   19  C   UNK N   1      34.905  12.963  15.627  0.00  0.00     0.057 A 
BRANCH  16  20
HETATM   20  O   UNK N   1      37.907  15.766  15.110  0.00  0.00    -0.358 OA
HETATM   21  H   UNK N   1      37.837  16.609  15.513  0.00  0.00     0.217 HD
ENDBRANCH  16  20
BRANCH  17  22
HETATM   22  O   UNK N   1      36.554  14.778  12.924  0.00  0.00    -0.356 OA
HETATM   23  H   UNK N   1      35.872  14.987  12.316  0.00  0.00     0.218 HD
ENDBRANCH  17  22
BRANCH  18  24
HETATM   24  O   UNK N   1      34.559  12.913  13.284  0.00  0.00    -0.358 OA
HETATM   25  H   UNK N   1      34.065  12.121  13.362  0.00  0.00     0.217 HD
ENDBRANCH  18  24
ENDBRANCH  12  14
ENDBRANCH  11  12
ENDBRANCH   2  11
BRANCH   3  26
HETATM   26  C   UNK N   1      35.959   9.603  16.725  0.00  0.00    -0.021 A 
HETATM   27  C   UNK N   1      34.946   9.631  15.758  0.00  0.00     0.049 A 
HETATM   28  C   UNK N   1      35.261   9.732  14.401  0.00  0.00     0.102 A 
HETATM   29  C   UNK N   1      36.601   9.797  13.995  0.00  0.00     0.132 A 
HETATM   30  C   UNK N   1      37.621   9.756  14.955  0.00  0.00     0.102 A 
HETATM   31  C   UNK N   1      37.299   9.662  16.313  0.00  0.00     0.049 A 
BRANCH  28  32
HETATM   32  O   UNK N   1      34.274   9.774  13.490  0.00  0.00    -0.358 OA
HETATM   33  H   UNK N   1      33.644   9.083  13.445  0.00  0.00     0.217 HD
ENDBRANCH  28  32
BRANCH  29  34
HETATM   34  O   UNK N   1      36.906   9.899  12.690  0.00  0.00    -0.356 OA
HETATM   35  H   UNK N   1      37.479   9.288  12.269  0.00  0.00     0.218 HD
ENDBRANCH  29  34
BRANCH  30  36
HETATM   36  O   UNK N   1      38.909   9.812  14.577  0.00  0.00    -0.358 OA
HETATM   37  H   UNK N   1      39.447   9.046  14.600  0.00  0.00     0.217 HD
ENDBRANCH  30  36
ENDBRANCH   3  26
BRANCH   5  38
HETATM   38  O   UNK N   1      33.526  10.559  22.723  0.00  0.00    -0.360 OA
HETATM   39  H   UNK N   1      33.019  11.294  23.007  0.00  0.00     0.217 HD
ENDBRANCH   5  38
BRANCH   6  40
HETATM   40  O   UNK N   1      30.734   7.201  20.874  0.00  0.00    -0.361 OA
HETATM   41  H   UNK N   1      29.848   7.378  21.121  0.00  0.00     0.217 HD
ENDBRANCH   6  40
TORSDOF 12
ENDMDL
