REMARK  12 active torsions:
REMARK  status: ('A' for Active; 'I' for Inactive)
REMARK    1  A    between atoms: N_8  and  N_7 
REMARK    2  A    between atoms: N_8  and  C_10 
REMARK    3  A    between atoms: C_10  and  C_11 
REMARK    4  A    between atoms: C_14  and  O_42 
REMARK    5  A    between atoms: C_15  and  C_17 
REMARK    6  A    between atoms: C_17  and  C_18 
REMARK    7  A    between atoms: C_17  and  C_25 
REMARK    8  A    between atoms: C_21  and  O_24 
REMARK    9  A    between atoms: C_32  and  C_27 
REMARK   10  A    between atoms: C_30  and  O_31 
REMARK   11  A    between atoms: C_32  and  N_33 
REMARK   12  A    between atoms: N_33  and  N_35 
ROOT
HETATM    1  C   UNK N   1       1.777   2.383   0.285  0.00  0.00     0.090 C 
ENDROOT
BRANCH   1   2
HETATM    2  C   UNK N   1       1.787   0.847   0.263  0.00  0.00    -0.011 A 
HETATM    3  C   UNK N   1       0.603   0.055   0.196  0.00  0.00     0.073 A 
HETATM    4  C   UNK N   1       0.692  -1.341   0.153  0.00  0.00     0.038 A 
HETATM    5  C   UNK N   1       1.933  -1.974   0.169  0.00  0.00     0.015 A 
HETATM    6  C   UNK N   1       3.095  -1.212   0.260  0.00  0.00    -0.019 A 
HETATM    7  C   UNK N   1       3.011   0.181   0.319  0.00  0.00     0.024 A 
BRANCH   3   8
HETATM    8  O   UNK N   1      -0.620   0.609   0.175  0.00  0.00    -0.360 OA
HETATM    9  H   UNK N   1      -0.712   1.542   0.161  0.00  0.00     0.217 HD
ENDBRANCH   3   8
BRANCH   6  10
HETATM   10  C   UNK N   1       4.407  -1.859   0.184  0.00  0.00     0.120 C 
BRANCH  10  11
HETATM   11  N   UNK N   1       5.471  -1.139   0.160  0.00  0.00    -0.290 N 
ATOM     12  HN  UNK N   1       5.390  -0.130   0.284  1.00  0.00     0.188 HD
BRANCH  11  13
HETATM   13  N   UNK N   1       6.725  -1.697  -0.028  0.00  0.00    -0.169 N 
HETATM   14  N   UNK N   1       6.985  -2.978  -0.220  0.00  0.00     0.016 NA
HETATM   15  N   UNK N   1       8.291  -3.115  -0.402  0.00  0.00    -0.006 NA
HETATM   16  N   UNK N   1       8.879  -1.922  -0.333  0.00  0.00    -0.272 N 
HETATM   17  C   UNK N   1       7.888  -1.045  -0.100  0.00  0.00     0.128 A 
ATOM     18  HN  UNK N   1       9.873  -1.717  -0.436  1.00  0.00     0.185 HD
HETATM   19  C   UNK N   1       8.062   0.429   0.038  0.00  0.00     0.093 C 
ENDBRANCH  11  13
ENDBRANCH  10  11
ENDBRANCH   6  10
ENDBRANCH   1   2
BRANCH   1  20
HETATM   20  C   UNK N   1       0.480   3.073   0.015  0.00  0.00    -0.045 A 
HETATM   21  C   UNK N   1      -0.093   3.039  -1.261  0.00  0.00     0.011 A 
HETATM   22  C   UNK N   1      -1.335   3.640  -1.480  0.00  0.00     0.037 A 
HETATM   23  C   UNK N   1      -2.000   4.278  -0.428  0.00  0.00     0.065 A 
HETATM   24  C   UNK N   1      -1.419   4.328   0.841  0.00  0.00     0.037 A 
HETATM   25  C   UNK N   1      -0.180   3.724   1.064  0.00  0.00     0.011 A 
BRANCH  23  26
HETATM   26  O   UNK N   1      -3.200   4.840  -0.637  0.00  0.00    -0.361 OA
HETATM   27  H   UNK N   1      -3.280   5.762  -0.783  0.00  0.00     0.217 HD
ENDBRANCH  23  26
ENDBRANCH   1  20
BRANCH   1  28
HETATM   28  C   UNK N   1       2.999   3.266   0.018  0.00  0.00    -0.011 A 
HETATM   29  C   UNK N   1       2.982   4.540   0.604  0.00  0.00     0.024 A 
HETATM   30  C   UNK N   1       4.028   5.447   0.432  0.00  0.00    -0.019 A 
HETATM   31  C   UNK N   1       5.156   5.062  -0.296  0.00  0.00     0.015 A 
HETATM   32  C   UNK N   1       5.185   3.814  -0.926  0.00  0.00     0.038 A 
HETATM   33  C   UNK N   1       4.115   2.918  -0.792  0.00  0.00     0.073 A 
BRANCH  30  34
HETATM   34  C   UNK N   1       4.002   6.710   1.191  0.00  0.00     0.120 C 
BRANCH  34  35
HETATM   35  N   UNK N   1       2.935   7.428   1.336  0.00  0.00    -0.290 N 
ATOM     36  HN  UNK N   1       2.708   7.778   2.267  1.00  0.00     0.188 HD
BRANCH  35  37
HETATM   37  N   UNK N   1       2.083   7.747   0.279  0.00  0.00    -0.169 N 
HETATM   38  C   UNK N   1       0.761   7.968   0.327  0.00  0.00     0.128 A 
HETATM   39  N   UNK N   1       0.344   8.437  -0.864  0.00  0.00    -0.272 N 
HETATM   40  C   UNK N   1      -0.119   7.752   1.506  0.00  0.00     0.093 C 
HETATM   41  N   UNK N   1       1.432   8.505  -1.624  0.00  0.00    -0.006 NA
ATOM     42  HN  UNK N   1      -0.609   8.689  -1.128  1.00  0.00     0.185 HD
HETATM   43  N   UNK N   1       2.486   8.091  -0.931  0.00  0.00     0.016 NA
ENDBRANCH  35  37
ENDBRANCH  34  35
ENDBRANCH  30  34
BRANCH  33  44
HETATM   44  O   UNK N   1       4.178   1.748  -1.446  0.00  0.00    -0.360 OA
HETATM   45  H   UNK N   1       3.493   1.301  -1.904  0.00  0.00     0.217 HD
ENDBRANCH  33  44
ENDBRANCH   1  28
TORSDOF 12
