MODEL 1
REMARK VINA RESULT:      -8.7      0.000      0.000
REMARK  6 active torsions:
REMARK  status: ('A' for Active; 'I' for Inactive)
REMARK    1  A    between atoms: C_5  and  C_25 
REMARK    2  A    between atoms: C_7  and  N_8 
REMARK       I    between atoms: N_8  and  C_9 
REMARK    3  A    between atoms: C_14  and  C_17 
REMARK       I    between atoms: C_25  and  N_27 
REMARK    4  A    between atoms: N_27  and  C_28 
REMARK    5  A    between atoms: C_30  and  C_41 
REMARK    6  A    between atoms: C_32  and  N_34 
ROOT
HETATM    1  C   UNK N   1      21.073  13.016   0.982  0.00  0.00     0.050 C 
HETATM    2  C   UNK N   1      22.433  13.442   1.423  0.00  0.00    -0.035 A 
HETATM    3  C   UNK N   1      23.412  13.624   0.438  0.00  0.00     0.010 A 
HETATM    4  C   UNK N   1      24.688  14.076   0.783  0.00  0.00     0.018 A 
HETATM    5  C   UNK N   1      24.988  14.340   2.121  0.00  0.00     0.034 A 
HETATM    6  C   UNK N   1      24.013  14.151   3.105  0.00  0.00     0.047 A 
HETATM    7  C   UNK N   1      22.749  13.695   2.788  0.00  0.00     0.056 A 
ENDROOT
BRANCH   5   8
HETATM    8  C   UNK N   1      26.231  15.001   2.517  0.00  0.00     0.256 C 
HETATM    9  O   UNK N   1      27.114  15.212   1.697  0.00  0.00    -0.267 OA
HETATM   10  N   UNK N   1      26.236  15.591   3.736  0.00  0.00    -0.323 N 
HETATM   11  H   UNK N   1      25.672  15.182   4.431  0.00  0.00     0.169 HD
BRANCH  10  12
HETATM   12  C   UNK N   1      26.972  16.731   4.103  0.00  0.00     0.037 A 
HETATM   13  C   UNK N   1      26.532  18.025   3.816  0.00  0.00     0.046 A 
HETATM   14  C   UNK N   1      27.060  19.117   4.507  0.00  0.00     0.052 A 
HETATM   15  C   UNK N   1      28.011  18.900   5.526  0.00  0.00     0.046 A 
HETATM   16  C   UNK N   1      28.462  17.597   5.801  0.00  0.00     0.042 A 
HETATM   17  C   UNK N   1      27.931  16.534   5.083  0.00  0.00     0.059 A 
BRANCH  14  18
HETATM   18  C   UNK N   1      26.507  20.480   4.222  0.00  0.00     0.417 C 
HETATM   19  F   UNK N   1      25.136  20.508   4.404  0.00  0.00    -0.166 F 
HETATM   20  F   UNK N   1      27.098  21.406   5.060  0.00  0.00    -0.166 F 
HETATM   21  F   UNK N   1      26.785  20.820   2.908  0.00  0.00    -0.166 F 
ENDBRANCH  14  18
BRANCH  16  22
HETATM   22  N   UNK N   1      29.344  17.317   6.899  0.00  0.00    -0.317 N 
HETATM   23  C   UNK N   1      30.475  16.593   6.873  0.00  0.00     0.122 A 
HETATM   24  C   UNK N   1      31.021  16.664   8.135  0.00  0.00     0.022 A 
HETATM   25  N   UNK N   1      30.245  17.422   8.931  0.00  0.00    -0.354 N 
HETATM   26  C   UNK N   1      32.288  16.026   8.576  0.00  0.00     0.069 C 
HETATM   27  C   UNK N   1      29.222  17.815   8.150  0.00  0.00     0.188 A 
ATOM     28  HN  UNK N   1      30.399  17.651   9.914  1.00  0.00     0.166 HD
ENDBRANCH  16  22
ENDBRANCH  10  12
ENDBRANCH   5   8
BRANCH   7  29
HETATM   29  N   UNK N   1      21.831  13.467   3.856  0.00  0.00    -0.191 N 
HETATM   30  C   UNK N   1      20.998  14.514   4.300  0.00  0.00     0.683 A 
HETATM   31  N   UNK N   1      20.297  14.424   5.461  0.00  0.00    -0.202 N 
HETATM   32  N   UNK N   1      20.947  15.648   3.573  0.00  0.00    -0.189 N 
HETATM   33  C   UNK N   1      19.571  15.491   5.902  0.00  0.00     0.108 A 
ATOM     34  HN  UNK N   1      20.316  13.560   6.002  1.00  0.00     0.183 HD
HETATM   35  C   UNK N   1      19.571  16.696   5.180  0.00  0.00     0.050 A 
HETATM   36  C   UNK N   1      20.283  16.741   3.975  0.00  0.00     0.078 A 
ATOM     37  HN  UNK N   1      21.436  15.676   2.679  1.00  0.00     0.184 HD
HETATM   38  H   UNK N   1      21.781  12.581   4.284  0.00  0.00     0.184 HD
BRANCH  36  39
HETATM   39  C   UNK N   1      20.475  17.954   3.175  0.00  0.00     0.075 A 
HETATM   40  C   UNK N   1      20.204  17.993   1.807  0.00  0.00     0.119 A 
HETATM   41  N   UNK N   1      20.290  19.177   1.143  0.00  0.00    -0.372 N 
HETATM   42  C   UNK N   1      20.639  20.323   1.788  0.00  0.00     0.104 A 
ATOM     43  HN  UNK N   1      20.088  19.207   0.144  1.00  0.00     0.164 HD
HETATM   44  C   UNK N   1      20.919  20.287   3.152  0.00  0.00     0.105 A 
HETATM   45  N   UNK N   1      20.821  19.109   3.815  0.00  0.00    -0.362 N 
ATOM     46  HN  UNK N   1      21.010  19.084   4.817  1.00  0.00     0.165 HD
ENDBRANCH  36  39
ENDBRANCH   7  29
TORSDOF 6
ENDMDL
MODEL 2
REMARK VINA RESULT:      -8.5      3.637      6.861
REMARK  6 active torsions:
REMARK  status: ('A' for Active; 'I' for Inactive)
REMARK    1  A    between atoms: C_5  and  C_25 
REMARK    2  A    between atoms: C_7  and  N_8 
REMARK       I    between atoms: N_8  and  C_9 
REMARK    3  A    between atoms: C_14  and  C_17 
REMARK       I    between atoms: C_25  and  N_27 
REMARK    4  A    between atoms: N_27  and  C_28 
REMARK    5  A    between atoms: C_30  and  C_41 
REMARK    6  A    between atoms: C_32  and  N_34 
ROOT
HETATM    1  C   UNK N   1      22.197  11.932  10.094  0.00  0.00     0.050 C 
HETATM    2  C   UNK N   1      21.821  13.051   9.181  0.00  0.00    -0.035 A 
HETATM    3  C   UNK N   1      21.317  14.223   9.757  0.00  0.00     0.010 A 
HETATM    4  C   UNK N   1      20.999  15.324   8.959  0.00  0.00     0.018 A 
HETATM    5  C   UNK N   1      21.180  15.250   7.576  0.00  0.00     0.034 A 
HETATM    6  C   UNK N   1      21.676  14.076   7.000  0.00  0.00     0.047 A 
HETATM    7  C   UNK N   1      21.986  12.972   7.769  0.00  0.00     0.056 A 
ENDROOT
BRANCH   5   8
HETATM    8  C   UNK N   1      21.058  16.427   6.717  0.00  0.00     0.256 C 
HETATM    9  O   UNK N   1      21.057  17.552   7.197  0.00  0.00    -0.267 OA
HETATM   10  N   UNK N   1      21.214  16.220   5.388  0.00  0.00    -0.323 N 
HETATM   11  H   UNK N   1      20.936  15.343   5.037  0.00  0.00     0.169 HD
BRANCH  10  12
HETATM   12  C   UNK N   1      21.737  17.139   4.461  0.00  0.00     0.037 A 
HETATM   13  C   UNK N   1      20.917  17.949   3.673  0.00  0.00     0.046 A 
HETATM   14  C   UNK N   1      21.437  19.093   3.063  0.00  0.00     0.052 A 
HETATM   15  C   UNK N   1      22.783  19.447   3.283  0.00  0.00     0.046 A 
HETATM   16  C   UNK N   1      23.609  18.620   4.065  0.00  0.00     0.042 A 
HETATM   17  C   UNK N   1      23.068  17.478   4.643  0.00  0.00     0.059 A 
BRANCH  14  18
HETATM   18  C   UNK N   1      20.506  19.975   2.288  0.00  0.00     0.417 C 
HETATM   19  F   UNK N   1      20.616  19.742   0.929  0.00  0.00    -0.166 F 
HETATM   20  F   UNK N   1      19.204  19.741   2.688  0.00  0.00    -0.166 F 
HETATM   21  F   UNK N   1      20.820  21.301   2.536  0.00  0.00    -0.166 F 
ENDBRANCH  14  18
BRANCH  16  22
HETATM   22  N   UNK N   1      24.953  18.995   4.406  0.00  0.00    -0.317 N 
HETATM   23  C   UNK N   1      25.347  19.796   5.409  0.00  0.00     0.122 A 
HETATM   24  C   UNK N   1      26.724  19.801   5.395  0.00  0.00     0.022 A 
HETATM   25  N   UNK N   1      27.178  19.015   4.402  0.00  0.00    -0.354 N 
HETATM   26  C   UNK N   1      27.604  20.540   6.336  0.00  0.00     0.069 C 
HETATM   27  C   UNK N   1      26.072  18.527   3.810  0.00  0.00     0.188 A 
ATOM     28  HN  UNK N   1      28.150  18.827   4.153  1.00  0.00     0.166 HD
ENDBRANCH  16  22
ENDBRANCH  10  12
ENDBRANCH   5   8
BRANCH   7  29
HETATM   29  N   UNK N   1      22.426  11.792   7.099  0.00  0.00    -0.191 N 
HETATM   30  C   UNK N   1      23.673  11.784   6.439  0.00  0.00     0.683 A 
HETATM   31  N   UNK N   1      24.022  10.785   5.587  0.00  0.00    -0.202 N 
HETATM   32  N   UNK N   1      24.505  12.827   6.625  0.00  0.00    -0.189 N 
HETATM   33  C   UNK N   1      25.197  10.856   4.899  0.00  0.00     0.108 A 
ATOM     34  HN  UNK N   1      23.403   9.983   5.461  1.00  0.00     0.183 HD
HETATM   35  C   UNK N   1      26.034  11.975   5.041  0.00  0.00     0.050 A 
HETATM   36  C   UNK N   1      25.654  12.971   5.949  0.00  0.00     0.078 A 
ATOM     37  HN  UNK N   1      24.250  13.539   7.309  1.00  0.00     0.184 HD
HETATM   38  H   UNK N   1      21.862  10.985   7.097  0.00  0.00     0.184 HD
BRANCH  36  39
HETATM   39  C   UNK N   1      26.358  14.245   6.118  0.00  0.00     0.075 A 
HETATM   40  C   UNK N   1      25.939  15.210   7.035  0.00  0.00     0.119 A 
HETATM   41  N   UNK N   1      26.700  16.321   7.229  0.00  0.00    -0.372 N 
HETATM   42  C   UNK N   1      27.860  16.509   6.543  0.00  0.00     0.104 A 
ATOM     43  HN  UNK N   1      26.396  17.025   7.901  1.00  0.00     0.164 HD
HETATM   44  C   UNK N   1      28.277  15.553   5.621  0.00  0.00     0.105 A 
HETATM   45  N   UNK N   1      27.525  14.441   5.437  0.00  0.00    -0.362 N 
ATOM     46  HN  UNK N   1      27.838  13.731   4.774  1.00  0.00     0.165 HD
ENDBRANCH  36  39
ENDBRANCH   7  29
TORSDOF 6
ENDMDL
MODEL 3
REMARK VINA RESULT:      -8.3      2.604      3.568
REMARK  6 active torsions:
REMARK  status: ('A' for Active; 'I' for Inactive)
REMARK    1  A    between atoms: C_5  and  C_25 
REMARK    2  A    between atoms: C_7  and  N_8 
REMARK       I    between atoms: N_8  and  C_9 
REMARK    3  A    between atoms: C_14  and  C_17 
REMARK       I    between atoms: C_25  and  N_27 
REMARK    4  A    between atoms: N_27  and  C_28 
REMARK    5  A    between atoms: C_30  and  C_41 
REMARK    6  A    between atoms: C_32  and  N_34 
ROOT
HETATM    1  C   UNK N   1      23.152  13.836   2.222  0.00  0.00     0.050 C 
HETATM    2  C   UNK N   1      24.445  14.412   2.693  0.00  0.00    -0.035 A 
HETATM    3  C   UNK N   1      25.417  14.712   1.730  0.00  0.00     0.010 A 
HETATM    4  C   UNK N   1      26.625  15.304   2.104  0.00  0.00     0.018 A 
HETATM    5  C   UNK N   1      26.867  15.591   3.450  0.00  0.00     0.034 A 
HETATM    6  C   UNK N   1      25.900  15.284   4.412  0.00  0.00     0.047 A 
HETATM    7  C   UNK N   1      24.703  14.688   4.066  0.00  0.00     0.056 A 
ENDROOT
BRANCH   5   8
HETATM    8  C   UNK N   1      28.017  16.387   3.875  0.00  0.00     0.256 C 
HETATM    9  O   UNK N   1      28.130  17.555   3.528  0.00  0.00    -0.267 OA
HETATM   10  N   UNK N   1      28.782  15.860   4.861  0.00  0.00    -0.323 N 
HETATM   11  H   UNK N   1      28.840  14.878   4.903  0.00  0.00     0.169 HD
BRANCH  10  12
HETATM   12  C   UNK N   1      29.500  16.582   5.829  0.00  0.00     0.037 A 
HETATM   13  C   UNK N   1      28.868  17.258   6.874  0.00  0.00     0.046 A 
HETATM   14  C   UNK N   1      29.590  17.631   8.010  0.00  0.00     0.052 A 
HETATM   15  C   UNK N   1      30.953  17.282   8.112  0.00  0.00     0.046 A 
HETATM   16  C   UNK N   1      31.589  16.615   7.050  0.00  0.00     0.042 A 
HETATM   17  C   UNK N   1      30.848  16.275   5.925  0.00  0.00     0.059 A 
BRANCH  14  18
HETATM   18  C   UNK N   1      28.858  18.287   9.140  0.00  0.00     0.417 C 
HETATM   19  F   UNK N   1      28.176  17.354   9.900  0.00  0.00    -0.166 F 
HETATM   20  F   UNK N   1      29.755  18.963   9.944  0.00  0.00    -0.166 F 
HETATM   21  F   UNK N   1      27.943  19.192   8.627  0.00  0.00    -0.166 F 
ENDBRANCH  14  18
BRANCH  16  22
HETATM   22  N   UNK N   1      32.942  16.144   7.153  0.00  0.00    -0.317 N 
HETATM   23  C   UNK N   1      33.667  15.529   6.203  0.00  0.00     0.122 A 
HETATM   24  C   UNK N   1      34.925  15.337   6.728  0.00  0.00     0.022 A 
HETATM   25  N   UNK N   1      34.983  15.826   7.980  0.00  0.00    -0.354 N 
HETATM   26  C   UNK N   1      36.074  14.704   6.031  0.00  0.00     0.069 C 
HETATM   27  C   UNK N   1      33.754  16.320   8.219  0.00  0.00     0.188 A 
ATOM     28  HN  UNK N   1      35.785  15.824   8.611  1.00  0.00     0.166 HD
ENDBRANCH  16  22
ENDBRANCH  10  12
ENDBRANCH   5   8
BRANCH   7  29
HETATM   29  N   UNK N   1      23.796  14.348   5.114  0.00  0.00    -0.191 N 
HETATM   30  C   UNK N   1      22.819  15.278   5.524  0.00  0.00     0.683 A 
HETATM   31  N   UNK N   1      22.106  15.105   6.668  0.00  0.00    -0.202 N 
HETATM   32  N   UNK N   1      22.636  16.389   4.783  0.00  0.00    -0.189 N 
HETATM   33  C   UNK N   1      21.232  16.069   7.079  0.00  0.00     0.108 A 
ATOM     34  HN  UNK N   1      22.226  14.256   7.220  1.00  0.00     0.183 HD
HETATM   35  C   UNK N   1      21.091  17.256   6.342  0.00  0.00     0.050 A 
HETATM   36  C   UNK N   1      21.822  17.386   5.155  0.00  0.00     0.078 A 
ATOM     37  HN  UNK N   1      23.140  16.474   3.901  1.00  0.00     0.184 HD
HETATM   38  H   UNK N   1      23.854  13.468   5.551  0.00  0.00     0.184 HD
BRANCH  36  39
HETATM   39  C   UNK N   1      21.870  18.607   4.345  0.00  0.00     0.075 A 
HETATM   40  C   UNK N   1      23.062  19.099   3.812  0.00  0.00     0.119 A 
HETATM   41  N   UNK N   1      23.026  20.169   2.973  0.00  0.00    -0.372 N 
HETATM   42  C   UNK N   1      21.850  20.771   2.647  0.00  0.00     0.104 A 
ATOM     43  HN  UNK N   1      23.897  20.527   2.580  1.00  0.00     0.164 HD
HETATM   44  C   UNK N   1      20.659  20.288   3.185  0.00  0.00     0.105 A 
HETATM   45  N   UNK N   1      20.695  19.214   4.011  0.00  0.00    -0.362 N 
ATOM     46  HN  UNK N   1      19.821  18.850   4.392  1.00  0.00     0.165 HD
ENDBRANCH  36  39
ENDBRANCH   7  29
TORSDOF 6
ENDMDL
MODEL 4
REMARK VINA RESULT:      -8.3      2.985      8.607
REMARK  6 active torsions:
REMARK  status: ('A' for Active; 'I' for Inactive)
REMARK    1  A    between atoms: C_5  and  C_25 
REMARK    2  A    between atoms: C_7  and  N_8 
REMARK       I    between atoms: N_8  and  C_9 
REMARK    3  A    between atoms: C_14  and  C_17 
REMARK       I    between atoms: C_25  and  N_27 
REMARK    4  A    between atoms: N_27  and  C_28 
REMARK    5  A    between atoms: C_30  and  C_41 
REMARK    6  A    between atoms: C_32  and  N_34 
ROOT
HETATM    1  C   UNK N   1      30.703  11.213   4.047  0.00  0.00     0.050 C 
HETATM    2  C   UNK N   1      29.541  12.148   4.075  0.00  0.00    -0.035 A 
HETATM    3  C   UNK N   1      28.355  11.699   4.671  0.00  0.00     0.010 A 
HETATM    4  C   UNK N   1      27.251  12.548   4.777  0.00  0.00     0.018 A 
HETATM    5  C   UNK N   1      27.331  13.851   4.279  0.00  0.00     0.034 A 
HETATM    6  C   UNK N   1      28.512  14.296   3.677  0.00  0.00     0.047 A 
HETATM    7  C   UNK N   1      29.612  13.470   3.552  0.00  0.00     0.056 A 
ENDROOT
BRANCH   5   8
HETATM    8  C   UNK N   1      26.288  14.842   4.539  0.00  0.00     0.256 C 
HETATM    9  O   UNK N   1      25.438  14.643   5.396  0.00  0.00    -0.267 OA
HETATM   10  N   UNK N   1      26.471  16.066   3.988  0.00  0.00    -0.323 N 
HETATM   11  H   UNK N   1      26.960  16.102   3.135  0.00  0.00     0.169 HD
BRANCH  10  12
HETATM   12  C   UNK N   1      26.027  17.289   4.521  0.00  0.00     0.037 A 
HETATM   13  C   UNK N   1      26.909  18.236   5.043  0.00  0.00     0.046 A 
HETATM   14  C   UNK N   1      26.503  19.563   5.203  0.00  0.00     0.052 A 
HETATM   15  C   UNK N   1      25.209  19.947   4.793  0.00  0.00     0.046 A 
HETATM   16  C   UNK N   1      24.320  18.986   4.282  0.00  0.00     0.042 A 
HETATM   17  C   UNK N   1      24.747  17.671   4.153  0.00  0.00     0.059 A 
BRANCH  14  18
HETATM   18  C   UNK N   1      27.503  20.563   5.696  0.00  0.00     0.417 C 
HETATM   19  F   UNK N   1      27.916  20.261   6.982  0.00  0.00    -0.166 F 
HETATM   20  F   UNK N   1      28.600  20.576   4.856  0.00  0.00    -0.166 F 
HETATM   21  F   UNK N   1      26.926  21.822   5.702  0.00  0.00    -0.166 F 
ENDBRANCH  14  18
BRANCH  16  22
HETATM   22  N   UNK N   1      23.035  19.349   3.752  0.00  0.00    -0.317 N 
HETATM   23  C   UNK N   1      22.778  20.195   2.740  0.00  0.00     0.122 A 
HETATM   24  C   UNK N   1      21.417  20.168   2.537  0.00  0.00     0.022 A 
HETATM   25  N   UNK N   1      20.837  19.318   3.404  0.00  0.00    -0.354 N 
HETATM   26  C   UNK N   1      20.673  20.937   1.507  0.00  0.00     0.069 C 
HETATM   27  C   UNK N   1      21.851  18.824   4.139  0.00  0.00     0.188 A 
ATOM     28  HN  UNK N   1      19.844  19.096   3.486  1.00  0.00     0.166 HD
ENDBRANCH  16  22
ENDBRANCH  10  12
ENDBRANCH   5   8
BRANCH   7  29
HETATM   29  N   UNK N   1      30.757  13.978   2.868  0.00  0.00    -0.191 N 
HETATM   30  C   UNK N   1      31.501  15.032   3.438  0.00  0.00     0.683 A 
HETATM   31  N   UNK N   1      32.436  15.712   2.722  0.00  0.00    -0.202 N 
HETATM   32  N   UNK N   1      31.231  15.400   4.705  0.00  0.00    -0.189 N 
HETATM   33  C   UNK N   1      33.074  16.782   3.278  0.00  0.00     0.108 A 
ATOM     34  HN  UNK N   1      32.659  15.422   1.769  1.00  0.00     0.183 HD
HETATM   35  C   UNK N   1      32.744  17.207   4.575  0.00  0.00     0.050 A 
HETATM   36  C   UNK N   1      31.796  16.465   5.290  0.00  0.00     0.078 A 
ATOM     37  HN  UNK N   1      30.567  14.844   5.243  1.00  0.00     0.184 HD
HETATM   38  H   UNK N   1      31.026  13.596   2.002  0.00  0.00     0.184 HD
BRANCH  36  39
HETATM   39  C   UNK N   1      31.264  16.851   6.601  0.00  0.00     0.075 A 
HETATM   40  C   UNK N   1      32.090  17.264   7.647  0.00  0.00     0.119 A 
HETATM   41  N   UNK N   1      31.530  17.720   8.799  0.00  0.00    -0.372 N 
HETATM   42  C   UNK N   1      30.179  17.777   8.952  0.00  0.00     0.104 A 
ATOM     43  HN  UNK N   1      32.133  18.025   9.563  1.00  0.00     0.164 HD
HETATM   44  C   UNK N   1      29.351  17.356   7.914  0.00  0.00     0.105 A 
HETATM   45  N   UNK N   1      29.911  16.914   6.762  0.00  0.00    -0.362 N 
ATOM     46  HN  UNK N   1      29.305  16.622   5.994  1.00  0.00     0.165 HD
ENDBRANCH  36  39
ENDBRANCH   7  29
TORSDOF 6
ENDMDL
MODEL 5
REMARK VINA RESULT:      -8.2      3.490      5.393
REMARK  6 active torsions:
REMARK  status: ('A' for Active; 'I' for Inactive)
REMARK    1  A    between atoms: C_5  and  C_25 
REMARK    2  A    between atoms: C_7  and  N_8 
REMARK       I    between atoms: N_8  and  C_9 
REMARK    3  A    between atoms: C_14  and  C_17 
REMARK       I    between atoms: C_25  and  N_27 
REMARK    4  A    between atoms: N_27  and  C_28 
REMARK    5  A    between atoms: C_30  and  C_41 
REMARK    6  A    between atoms: C_32  and  N_34 
ROOT
HETATM    1  C   UNK N   1      21.448  15.609   3.141  0.00  0.00     0.050 C 
HETATM    2  C   UNK N   1      22.841  15.976   3.530  0.00  0.00    -0.035 A 
HETATM    3  C   UNK N   1      23.895  15.356   2.846  0.00  0.00     0.010 A 
HETATM    4  C   UNK N   1      25.219  15.698   3.127  0.00  0.00     0.018 A 
HETATM    5  C   UNK N   1      25.492  16.662   4.102  0.00  0.00     0.034 A 
HETATM    6  C   UNK N   1      24.440  17.275   4.788  0.00  0.00     0.047 A 
HETATM    7  C   UNK N   1      23.123  16.943   4.535  0.00  0.00     0.056 A 
ENDROOT
BRANCH   5   8
HETATM    8  C   UNK N   1      26.836  17.204   4.296  0.00  0.00     0.256 C 
HETATM    9  O   UNK N   1      27.096  18.355   3.976  0.00  0.00    -0.267 OA
HETATM   10  N   UNK N   1      27.672  16.474   5.072  0.00  0.00    -0.323 N 
HETATM   11  H   UNK N   1      27.549  15.498   5.065  0.00  0.00     0.169 HD
BRANCH  10  12
HETATM   12  C   UNK N   1      28.700  16.980   5.887  0.00  0.00     0.037 A 
HETATM   13  C   UNK N   1      28.471  17.398   7.199  0.00  0.00     0.046 A 
HETATM   14  C   UNK N   1      29.537  17.525   8.093  0.00  0.00     0.052 A 
HETATM   15  C   UNK N   1      30.840  17.189   7.672  0.00  0.00     0.046 A 
HETATM   16  C   UNK N   1      31.067  16.784   6.345  0.00  0.00     0.042 A 
HETATM   17  C   UNK N   1      29.989  16.685   5.475  0.00  0.00     0.059 A 
BRANCH  14  18
HETATM   18  C   UNK N   1      29.240  17.904   9.511  0.00  0.00     0.417 C 
HETATM   19  F   UNK N   1      29.529  16.862  10.375  0.00  0.00    -0.166 F 
HETATM   20  F   UNK N   1      29.989  19.010   9.864  0.00  0.00    -0.166 F 
HETATM   21  F   UNK N   1      27.895  18.215   9.629  0.00  0.00    -0.166 F 
ENDBRANCH  14  18
BRANCH  16  22
HETATM   22  N   UNK N   1      32.355  16.327   5.902  0.00  0.00    -0.317 N 
HETATM   23  C   UNK N   1      33.380  15.910   6.664  0.00  0.00     0.122 A 
HETATM   24  C   UNK N   1      34.372  15.499   5.803  0.00  0.00     0.022 A 
HETATM   25  N   UNK N   1      33.971  15.654   4.528  0.00  0.00    -0.354 N 
HETATM   26  C   UNK N   1      35.693  14.943   6.194  0.00  0.00     0.069 C 
HETATM   27  C   UNK N   1      32.727  16.161   4.613  0.00  0.00     0.188 A 
ATOM     28  HN  UNK N   1      34.495  15.433   3.680  1.00  0.00     0.166 HD
ENDBRANCH  16  22
ENDBRANCH  10  12
ENDBRANCH   5   8
BRANCH   7  29
HETATM   29  N   UNK N   1      22.112  17.568   5.323  0.00  0.00    -0.191 N 
HETATM   30  C   UNK N   1      21.630  16.924   6.482  0.00  0.00     0.683 A 
HETATM   31  N   UNK N   1      20.507  17.351   7.119  0.00  0.00    -0.202 N 
HETATM   32  N   UNK N   1      22.275  15.828   6.925  0.00  0.00    -0.189 N 
HETATM   33  C   UNK N   1      20.021  16.651   8.184  0.00  0.00     0.108 A 
ATOM     34  HN  UNK N   1      20.028  18.193   6.799  1.00  0.00     0.183 HD
HETATM   35  C   UNK N   1      20.656  15.471   8.605  0.00  0.00     0.050 A 
HETATM   36  C   UNK N   1      21.824  15.079   7.941  0.00  0.00     0.078 A 
ATOM     37  HN  UNK N   1      23.145  15.556   6.467  1.00  0.00     0.184 HD
HETATM   38  H   UNK N   1      21.750  18.445   5.059  0.00  0.00     0.184 HD
BRANCH  36  39
HETATM   39  C   UNK N   1      22.528  13.816   8.185  0.00  0.00     0.075 A 
HETATM   40  C   UNK N   1      23.742  13.510   7.570  0.00  0.00     0.119 A 
HETATM   41  N   UNK N   1      24.404  12.376   7.926  0.00  0.00    -0.372 N 
HETATM   42  C   UNK N   1      23.901  11.533   8.868  0.00  0.00     0.104 A 
ATOM     43  HN  UNK N   1      25.293  12.154   7.479  1.00  0.00     0.164 HD
HETATM   44  C   UNK N   1      22.685  11.830   9.478  0.00  0.00     0.105 A 
HETATM   45  N   UNK N   1      22.033  12.967   9.132  0.00  0.00    -0.362 N 
ATOM     46  HN  UNK N   1      21.151  13.194   9.591  1.00  0.00     0.165 HD
ENDBRANCH  36  39
ENDBRANCH   7  29
TORSDOF 6
ENDMDL
MODEL 6
REMARK VINA RESULT:      -8.1      2.753      4.646
REMARK  6 active torsions:
REMARK  status: ('A' for Active; 'I' for Inactive)
REMARK    1  A    between atoms: C_5  and  C_25 
REMARK    2  A    between atoms: C_7  and  N_8 
REMARK       I    between atoms: N_8  and  C_9 
REMARK    3  A    between atoms: C_14  and  C_17 
REMARK       I    between atoms: C_25  and  N_27 
REMARK    4  A    between atoms: N_27  and  C_28 
REMARK    5  A    between atoms: C_30  and  C_41 
REMARK    6  A    between atoms: C_32  and  N_34 
ROOT
HETATM    1  C   UNK N   1      20.244  13.892   3.950  0.00  0.00     0.050 C 
HETATM    2  C   UNK N   1      21.614  14.467   4.083  0.00  0.00    -0.035 A 
HETATM    3  C   UNK N   1      22.677  13.764   3.502  0.00  0.00     0.010 A 
HETATM    4  C   UNK N   1      23.974  14.281   3.545  0.00  0.00     0.018 A 
HETATM    5  C   UNK N   1      24.211  15.503   4.179  0.00  0.00     0.034 A 
HETATM    6  C   UNK N   1      23.150  16.200   4.765  0.00  0.00     0.047 A 
HETATM    7  C   UNK N   1      21.862  15.703   4.744  0.00  0.00     0.056 A 
ENDROOT
BRANCH   5   8
HETATM    8  C   UNK N   1      25.500  16.186   4.081  0.00  0.00     0.256 C 
HETATM    9  O   UNK N   1      25.795  16.821   3.079  0.00  0.00    -0.267 OA
HETATM   10  N   UNK N   1      26.208  16.299   5.230  0.00  0.00    -0.323 N 
HETATM   11  H   UNK N   1      26.099  15.581   5.894  0.00  0.00     0.169 HD
BRANCH  10  12
HETATM   12  C   UNK N   1      27.086  17.345   5.564  0.00  0.00     0.037 A 
HETATM   13  C   UNK N   1      26.663  18.673   5.647  0.00  0.00     0.046 A 
HETATM   14  C   UNK N   1      27.431  19.614   6.337  0.00  0.00     0.052 A 
HETATM   15  C   UNK N   1      28.614  19.204   6.984  0.00  0.00     0.046 A 
HETATM   16  C   UNK N   1      29.044  17.869   6.885  0.00  0.00     0.042 A 
HETATM   17  C   UNK N   1      28.268  16.961   6.175  0.00  0.00     0.059 A 
BRANCH  14  18
HETATM   18  C   UNK N   1      26.904  21.010   6.466  0.00  0.00     0.417 C 
HETATM   19  F   UNK N   1      26.072  21.328   5.408  0.00  0.00    -0.166 F 
HETATM   20  F   UNK N   1      26.204  21.135   7.651  0.00  0.00    -0.166 F 
HETATM   21  F   UNK N   1      27.966  21.900   6.476  0.00  0.00    -0.166 F 
ENDBRANCH  14  18
BRANCH  16  22
HETATM   22  N   UNK N   1      30.180  17.382   7.616  0.00  0.00    -0.317 N 
HETATM   23  C   UNK N   1      30.922  16.295   7.344  0.00  0.00     0.122 A 
HETATM   24  C   UNK N   1      31.945  16.272   8.265  0.00  0.00     0.022 A 
HETATM   25  N   UNK N   1      31.844  17.328   9.094  0.00  0.00    -0.354 N 
HETATM   26  C   UNK N   1      33.025  15.256   8.344  0.00  0.00     0.069 C 
HETATM   27  C   UNK N   1      30.754  17.998   8.674  0.00  0.00     0.188 A 
ATOM     28  HN  UNK N   1      32.460  17.568   9.871  1.00  0.00     0.166 HD
ENDBRANCH  16  22
ENDBRANCH  10  12
ENDBRANCH   5   8
BRANCH   7  29
HETATM   29  N   UNK N   1      20.847  16.444   5.421  0.00  0.00    -0.191 N 
HETATM   30  C   UNK N   1      20.529  16.135   6.759  0.00  0.00     0.683 A 
HETATM   31  N   UNK N   1      19.416  16.633   7.360  0.00  0.00    -0.202 N 
HETATM   32  N   UNK N   1      21.326  15.280   7.429  0.00  0.00    -0.189 N 
HETATM   33  C   UNK N   1      19.093  16.242   8.627  0.00  0.00     0.108 A 
ATOM     34  HN  UNK N   1      18.822  17.297   6.863  1.00  0.00     0.183 HD
HETATM   35  C   UNK N   1      19.887  15.300   9.301  0.00  0.00     0.050 A 
HETATM   36  C   UNK N   1      21.040  14.831   8.659  0.00  0.00     0.078 A 
ATOM     37  HN  UNK N   1      22.184  14.961   6.981  1.00  0.00     0.184 HD
HETATM   38  H   UNK N   1      20.370  17.168   4.954  0.00  0.00     0.184 HD
BRANCH  36  39
HETATM   39  C   UNK N   1      21.899  13.764   9.182  0.00  0.00     0.075 A 
HETATM   40  C   UNK N   1      21.554  13.016  10.308  0.00  0.00     0.119 A 
HETATM   41  N   UNK N   1      22.335  11.964  10.674  0.00  0.00    -0.372 N 
HETATM   42  C   UNK N   1      23.447  11.630   9.966  0.00  0.00     0.104 A 
ATOM     43  HN  UNK N   1      22.081  11.414  11.496  1.00  0.00     0.164 HD
HETATM   44  C   UNK N   1      23.800  12.380   8.847  0.00  0.00     0.105 A 
HETATM   45  N   UNK N   1      23.015  13.420   8.475  0.00  0.00    -0.362 N 
ATOM     46  HN  UNK N   1      23.263  13.960   7.646  1.00  0.00     0.165 HD
ENDBRANCH  36  39
ENDBRANCH   7  29
TORSDOF 6
ENDMDL
MODEL 7
REMARK VINA RESULT:      -8.1      5.183      9.491
REMARK  6 active torsions:
REMARK  status: ('A' for Active; 'I' for Inactive)
REMARK    1  A    between atoms: C_5  and  C_25 
REMARK    2  A    between atoms: C_7  and  N_8 
REMARK       I    between atoms: N_8  and  C_9 
REMARK    3  A    between atoms: C_14  and  C_17 
REMARK       I    between atoms: C_25  and  N_27 
REMARK    4  A    between atoms: N_27  and  C_28 
REMARK    5  A    between atoms: C_30  and  C_41 
REMARK    6  A    between atoms: C_32  and  N_34 
ROOT
HETATM    1  C   UNK N   1      27.434  19.631   4.205  0.00  0.00     0.050 C 
HETATM    2  C   UNK N   1      26.936  18.254   4.487  0.00  0.00    -0.035 A 
HETATM    3  C   UNK N   1      26.472  17.492   3.407  0.00  0.00     0.010 A 
HETATM    4  C   UNK N   1      26.045  16.176   3.600  0.00  0.00     0.018 A 
HETATM    5  C   UNK N   1      26.076  15.621   4.882  0.00  0.00     0.034 A 
HETATM    6  C   UNK N   1      26.532  16.384   5.961  0.00  0.00     0.047 A 
HETATM    7  C   UNK N   1      26.948  17.691   5.795  0.00  0.00     0.056 A 
ENDROOT
BRANCH   5   8
HETATM    8  C   UNK N   1      25.835  14.197   5.111  0.00  0.00     0.256 C 
HETATM    9  O   UNK N   1      26.726  13.474   5.535  0.00  0.00    -0.267 OA
HETATM   10  N   UNK N   1      24.542  13.795   5.089  0.00  0.00    -0.323 N 
HETATM   11  H   UNK N   1      23.931  14.292   4.499  0.00  0.00     0.169 HD
BRANCH  10  12
HETATM   12  C   UNK N   1      23.991  12.733   5.828  0.00  0.00     0.037 A 
HETATM   13  C   UNK N   1      23.844  11.452   5.293  0.00  0.00     0.046 A 
HETATM   14  C   UNK N   1      23.665  10.354   6.137  0.00  0.00     0.052 A 
HETATM   15  C   UNK N   1      23.676  10.543   7.534  0.00  0.00     0.046 A 
HETATM   16  C   UNK N   1      23.809  11.837   8.068  0.00  0.00     0.042 A 
HETATM   17  C   UNK N   1      23.966  12.912   7.201  0.00  0.00     0.059 A 
BRANCH  14  18
HETATM   18  C   UNK N   1      23.587   8.988   5.527  0.00  0.00     0.417 C 
HETATM   19  F   UNK N   1      22.706   8.182   6.224  0.00  0.00    -0.166 F 
HETATM   20  F   UNK N   1      23.171   9.090   4.213  0.00  0.00    -0.166 F 
HETATM   21  F   UNK N   1      24.842   8.402   5.557  0.00  0.00    -0.166 F 
ENDBRANCH  14  18
BRANCH  16  22
HETATM   22  N   UNK N   1      23.935  12.066   9.480  0.00  0.00    -0.317 N 
HETATM   23  C   UNK N   1      23.099  11.660  10.450  0.00  0.00     0.122 A 
HETATM   24  C   UNK N   1      23.665  12.040  11.646  0.00  0.00     0.022 A 
HETATM   25  N   UNK N   1      24.834  12.668  11.425  0.00  0.00    -0.354 N 
HETATM   26  C   UNK N   1      23.102  11.789  12.997  0.00  0.00     0.069 C 
HETATM   27  C   UNK N   1      24.981  12.669  10.086  0.00  0.00     0.188 A 
ATOM     28  HN  UNK N   1      25.472  13.057  12.120  1.00  0.00     0.166 HD
ENDBRANCH  16  22
ENDBRANCH  10  12
ENDBRANCH   5   8
BRANCH   7  29
HETATM   29  N   UNK N   1      27.338  18.422   6.956  0.00  0.00    -0.191 N 
HETATM   30  C   UNK N   1      28.633  18.254   7.488  0.00  0.00     0.683 A 
HETATM   31  N   UNK N   1      28.965  18.727   8.718  0.00  0.00    -0.202 N 
HETATM   32  N   UNK N   1      29.537  17.557   6.772  0.00  0.00    -0.189 N 
HETATM   33  C   UNK N   1      30.200  18.470   9.236  0.00  0.00     0.108 A 
ATOM     34  HN  UNK N   1      28.291  19.274   9.253  1.00  0.00     0.183 HD
HETATM   35  C   UNK N   1      31.120  17.686   8.518  0.00  0.00     0.050 A 
HETATM   36  C   UNK N   1      30.751  17.240   7.244  0.00  0.00     0.078 A 
ATOM     37  HN  UNK N   1      29.287  17.258   5.830  1.00  0.00     0.184 HD
HETATM   38  H   UNK N   1      26.704  19.041   7.386  0.00  0.00     0.184 HD
BRANCH  36  39
HETATM   39  C   UNK N   1      31.550  16.320   6.428  0.00  0.00     0.075 A 
HETATM   40  C   UNK N   1      32.540  16.770   5.554  0.00  0.00     0.119 A 
HETATM   41  N   UNK N   1      33.326  15.864   4.913  0.00  0.00    -0.372 N 
HETATM   42  C   UNK N   1      33.162  14.527   5.105  0.00  0.00     0.104 A 
ATOM     43  HN  UNK N   1      34.052  16.193   4.277  1.00  0.00     0.164 HD
HETATM   44  C   UNK N   1      32.168  14.074   5.970  0.00  0.00     0.105 A 
HETATM   45  N   UNK N   1      31.394  14.978   6.618  0.00  0.00    -0.362 N 
ATOM     46  HN  UNK N   1      30.678  14.647   7.265  1.00  0.00     0.165 HD
ENDBRANCH  36  39
ENDBRANCH   7  29
TORSDOF 6
ENDMDL
MODEL 8
REMARK VINA RESULT:      -8.0      4.096      7.075
REMARK  6 active torsions:
REMARK  status: ('A' for Active; 'I' for Inactive)
REMARK    1  A    between atoms: C_5  and  C_25 
REMARK    2  A    between atoms: C_7  and  N_8 
REMARK       I    between atoms: N_8  and  C_9 
REMARK    3  A    between atoms: C_14  and  C_17 
REMARK       I    between atoms: C_25  and  N_27 
REMARK    4  A    between atoms: N_27  and  C_28 
REMARK    5  A    between atoms: C_30  and  C_41 
REMARK    6  A    between atoms: C_32  and  N_34 
ROOT
HETATM    1  C   UNK N   1      21.891  12.305  10.678  0.00  0.00     0.050 C 
HETATM    2  C   UNK N   1      21.631  13.337   9.633  0.00  0.00    -0.035 A 
HETATM    3  C   UNK N   1      20.533  14.188   9.812  0.00  0.00     0.010 A 
HETATM    4  C   UNK N   1      20.271  15.209   8.896  0.00  0.00     0.018 A 
HETATM    5  C   UNK N   1      21.108  15.376   7.790  0.00  0.00     0.034 A 
HETATM    6  C   UNK N   1      22.200  14.523   7.608  0.00  0.00     0.047 A 
HETATM    7  C   UNK N   1      22.471  13.500   8.495  0.00  0.00     0.056 A 
ENDROOT
BRANCH   5   8
HETATM    8  C   UNK N   1      21.005  16.542   6.914  0.00  0.00     0.256 C 
HETATM    9  O   UNK N   1      20.997  17.674   7.379  0.00  0.00    -0.267 OA
HETATM   10  N   UNK N   1      21.187  16.318   5.591  0.00  0.00    -0.323 N 
HETATM   11  H   UNK N   1      20.914  15.437   5.246  0.00  0.00     0.169 HD
BRANCH  10  12
HETATM   12  C   UNK N   1      21.729  17.224   4.663  0.00  0.00     0.037 A 
HETATM   13  C   UNK N   1      20.929  18.082   3.906  0.00  0.00     0.046 A 
HETATM   14  C   UNK N   1      21.486  19.208   3.297  0.00  0.00     0.052 A 
HETATM   15  C   UNK N   1      22.853  19.496   3.488  0.00  0.00     0.046 A 
HETATM   16  C   UNK N   1      23.658  18.621   4.238  0.00  0.00     0.042 A 
HETATM   17  C   UNK N   1      23.078  17.499   4.815  0.00  0.00     0.059 A 
BRANCH  14  18
HETATM   18  C   UNK N   1      20.579  20.143   2.557  0.00  0.00     0.417 C 
HETATM   19  F   UNK N   1      21.154  20.556   1.368  0.00  0.00    -0.166 F 
HETATM   20  F   UNK N   1      19.380  19.511   2.289  0.00  0.00    -0.166 F 
HETATM   21  F   UNK N   1      20.334  21.259   3.340  0.00  0.00    -0.166 F 
ENDBRANCH  14  18
BRANCH  16  22
HETATM   22  N   UNK N   1      25.026  18.929   4.550  0.00  0.00    -0.317 N 
HETATM   23  C   UNK N   1      26.025  18.062   4.783  0.00  0.00     0.122 A 
HETATM   24  C   UNK N   1      27.167  18.811   4.958  0.00  0.00     0.022 A 
HETATM   25  N   UNK N   1      26.884  20.120   4.833  0.00  0.00    -0.354 N 
HETATM   26  C   UNK N   1      28.527  18.278   5.227  0.00  0.00     0.069 C 
HETATM   27  C   UNK N   1      25.563  20.169   4.579  0.00  0.00     0.188 A 
ATOM     28  HN  UNK N   1      27.531  20.906   4.912  1.00  0.00     0.166 HD
ENDBRANCH  16  22
ENDBRANCH  10  12
ENDBRANCH   5   8
BRANCH   7  29
HETATM   29  N   UNK N   1      23.566  12.633   8.203  0.00  0.00    -0.191 N 
HETATM   30  C   UNK N   1      23.381  11.538   7.333  0.00  0.00     0.683 A 
HETATM   31  N   UNK N   1      24.309  10.552   7.221  0.00  0.00    -0.202 N 
HETATM   32  N   UNK N   1      22.226  11.452   6.645  0.00  0.00    -0.189 N 
HETATM   33  C   UNK N   1      24.057   9.465   6.437  0.00  0.00     0.108 A 
ATOM     34  HN  UNK N   1      25.193  10.624   7.725  1.00  0.00     0.183 HD
HETATM   35  C   UNK N   1      22.825   9.342   5.772  0.00  0.00     0.050 A 
HETATM   36  C   UNK N   1      21.906  10.391   5.891  0.00  0.00     0.078 A 
ATOM     37  HN  UNK N   1      21.566  12.228   6.700  1.00  0.00     0.184 HD
HETATM   38  H   UNK N   1      24.449  12.797   8.608  0.00  0.00     0.184 HD
BRANCH  36  39
HETATM   39  C   UNK N   1      20.541  10.356   5.356  0.00  0.00     0.075 A 
HETATM   40  C   UNK N   1      19.937  11.477   4.787  0.00  0.00     0.119 A 
HETATM   41  N   UNK N   1      18.714  11.352   4.204  0.00  0.00    -0.372 N 
HETATM   42  C   UNK N   1      18.069  10.155   4.168  0.00  0.00     0.104 A 
ATOM     43  HN  UNK N   1      18.273  12.171   3.785  1.00  0.00     0.164 HD
HETATM   44  C   UNK N   1      18.665   9.035   4.743  0.00  0.00     0.105 A 
HETATM   45  N   UNK N   1      19.889   9.158   5.313  0.00  0.00    -0.362 N 
ATOM     46  HN  UNK N   1      20.334   8.335   5.719  1.00  0.00     0.165 HD
ENDBRANCH  36  39
ENDBRANCH   7  29
TORSDOF 6
ENDMDL
MODEL 9
REMARK VINA RESULT:      -8.0      1.931      3.360
REMARK  6 active torsions:
REMARK  status: ('A' for Active; 'I' for Inactive)
REMARK    1  A    between atoms: C_5  and  C_25 
REMARK    2  A    between atoms: C_7  and  N_8 
REMARK       I    between atoms: N_8  and  C_9 
REMARK    3  A    between atoms: C_14  and  C_17 
REMARK       I    between atoms: C_25  and  N_27 
REMARK    4  A    between atoms: N_27  and  C_28 
REMARK    5  A    between atoms: C_30  and  C_41 
REMARK    6  A    between atoms: C_32  and  N_34 
ROOT
HETATM    1  C   UNK N   1      23.383  11.657   0.062  0.00  0.00     0.050 C 
HETATM    2  C   UNK N   1      24.384  12.458   0.826  0.00  0.00    -0.035 A 
HETATM    3  C   UNK N   1      25.561  11.817   1.232  0.00  0.00     0.010 A 
HETATM    4  C   UNK N   1      26.560  12.528   1.902  0.00  0.00     0.018 A 
HETATM    5  C   UNK N   1      26.377  13.886   2.173  0.00  0.00     0.034 A 
HETATM    6  C   UNK N   1      25.199  14.524   1.774  0.00  0.00     0.047 A 
HETATM    7  C   UNK N   1      24.194  13.837   1.120  0.00  0.00     0.056 A 
ENDROOT
BRANCH   5   8
HETATM    8  C   UNK N   1      27.461  14.723   2.685  0.00  0.00     0.256 C 
HETATM    9  O   UNK N   1      28.431  14.985   1.988  0.00  0.00    -0.267 OA
HETATM   10  N   UNK N   1      27.211  15.391   3.837  0.00  0.00    -0.323 N 
HETATM   11  H   UNK N   1      26.596  14.964   4.476  0.00  0.00     0.169 HD
BRANCH  10  12
HETATM   12  C   UNK N   1      27.748  16.637   4.206  0.00  0.00     0.037 A 
HETATM   13  C   UNK N   1      27.102  17.840   3.918  0.00  0.00     0.046 A 
HETATM   14  C   UNK N   1      27.441  19.004   4.611  0.00  0.00     0.052 A 
HETATM   15  C   UNK N   1      28.411  18.946   5.633  0.00  0.00     0.046 A 
HETATM   16  C   UNK N   1      29.070  17.735   5.909  0.00  0.00     0.042 A 
HETATM   17  C   UNK N   1      28.723  16.599   5.189  0.00  0.00     0.059 A 
BRANCH  14  18
HETATM   18  C   UNK N   1      26.672  20.257   4.324  0.00  0.00     0.417 C 
HETATM   19  F   UNK N   1      26.752  20.595   2.985  0.00  0.00    -0.166 F 
HETATM   20  F   UNK N   1      25.346  20.078   4.671  0.00  0.00    -0.166 F 
HETATM   21  F   UNK N   1      27.196  21.297   5.074  0.00  0.00    -0.166 F 
ENDBRANCH  14  18
BRANCH  16  22
HETATM   22  N   UNK N   1      29.983  17.603   7.010  0.00  0.00    -0.317 N 
HETATM   23  C   UNK N   1      31.264  17.203   6.964  0.00  0.00     0.122 A 
HETATM   24  C   UNK N   1      31.759  17.308   8.244  0.00  0.00     0.022 A 
HETATM   25  N   UNK N   1      30.803  17.769   9.072  0.00  0.00    -0.354 N 
HETATM   26  C   UNK N   1      33.143  16.987   8.675  0.00  0.00     0.069 C 
HETATM   27  C   UNK N   1      29.721  17.946   8.291  0.00  0.00     0.188 A 
ATOM     28  HN  UNK N   1      30.881  17.946  10.074  1.00  0.00     0.166 HD
ENDBRANCH  16  22
ENDBRANCH  10  12
ENDBRANCH   5   8
BRANCH   7  29
HETATM   29  N   UNK N   1      22.996  14.545   0.804  0.00  0.00    -0.191 N 
HETATM   30  C   UNK N   1      22.068  14.843   1.823  0.00  0.00     0.683 A 
HETATM   31  N   UNK N   1      20.815  15.286   1.539  0.00  0.00    -0.202 N 
HETATM   32  N   UNK N   1      22.427  14.626   3.104  0.00  0.00    -0.189 N 
HETATM   33  C   UNK N   1      19.916  15.479   2.546  0.00  0.00     0.108 A 
ATOM     34  HN  UNK N   1      20.547  15.472   0.572  1.00  0.00     0.183 HD
HETATM   35  C   UNK N   1      20.268  15.189   3.875  0.00  0.00     0.050 A 
HETATM   36  C   UNK N   1      21.577  14.761   4.131  0.00  0.00     0.078 A 
ATOM     37  HN  UNK N   1      23.388  14.347   3.300  1.00  0.00     0.184 HD
HETATM   38  H   UNK N   1      22.817  14.825  -0.123  0.00  0.00     0.184 HD
BRANCH  36  39
HETATM   39  C   UNK N   1      22.056  14.309   5.440  0.00  0.00     0.075 A 
HETATM   40  C   UNK N   1      23.235  13.579   5.590  0.00  0.00     0.119 A 
HETATM   41  N   UNK N   1      23.686  13.290   6.840  0.00  0.00    -0.372 N 
HETATM   42  C   UNK N   1      23.008  13.697   7.947  0.00  0.00     0.104 A 
ATOM     43  HN  UNK N   1      24.550  12.758   6.949  1.00  0.00     0.164 HD
HETATM   44  C   UNK N   1      21.826  14.418   7.802  0.00  0.00     0.105 A 
HETATM   45  N   UNK N   1      21.383  14.717   6.556  0.00  0.00    -0.362 N 
ATOM     46  HN  UNK N   1      20.526  15.260   6.449  1.00  0.00     0.165 HD
ENDBRANCH  36  39
ENDBRANCH   7  29
TORSDOF 6
ENDMDL
