MODEL 1
REMARK VINA RESULT:      -7.0      0.000      0.000
REMARK  9 active torsions:
REMARK  status: ('A' for Active; 'I' for Inactive)
REMARK    1  A    between atoms: O_2  and  C_3 
REMARK    2  A    between atoms: C_7  and  O_26 
REMARK    3  A    between atoms: C_8  and  C_9 
REMARK    4  A    between atoms: C_11  and  N_15 
REMARK    5  A    between atoms: N_15  and  C_16 
REMARK    6  A    between atoms: O_26  and  C_27 
REMARK    7  A    between atoms: C_27  and  C_28 
REMARK    8  A    between atoms: C_28  and  C_29 
REMARK    9  A    between atoms: C_29  and  N_30 
ROOT
HETATM    1  C   UNK N   1      34.782  16.902   9.518  0.00  0.00     0.122 A 
HETATM    2  C   UNK N   1      34.677  15.751   8.740  0.00  0.00     0.137 A 
HETATM    3  N   UNK N   1      34.306  15.891   7.437  0.00  0.00    -0.353 N 
ATOM      4  HN  UNK N   1      34.202  15.064   6.850  1.00  0.00     0.166 HD
HETATM    5  C   UNK N   1      34.073  17.131   6.909  0.00  0.00     0.129 A 
HETATM    6  C   UNK N   1      34.241  18.258   7.674  0.00  0.00     0.130 A 
HETATM    7  N   UNK N   1      34.581  18.119   8.956  0.00  0.00    -0.348 N 
ATOM      8  HN  UNK N   1      34.694  18.954   9.530  1.00  0.00     0.167 HD
HETATM    9  C   UNK N   1      33.552  17.290   5.603  0.00  0.00     0.119 C 
HETATM   10  N   UNK N   1      33.129  17.386   4.536  0.00  0.00    -0.190 NA
ENDROOT
BRANCH   1  11
HETATM   11  N   UNK N   1      34.997  16.852  10.890  0.00  0.00    -0.326 N 
HETATM   12  H   UNK N   1      34.837  17.622  11.481  0.00  0.00     0.169 HD
BRANCH  11  13
HETATM   13  C   UNK N   1      35.463  15.617  11.369  0.00  0.00     0.123 A 
HETATM   14  C   UNK N   1      34.676  14.555  11.568  0.00  0.00     0.082 A 
HETATM   15  C   UNK N   1      35.517  13.561  11.912  0.00  0.00     0.067 A 
HETATM   16  N   UNK N   1      36.791  14.007  11.855  0.00  0.00    -0.298 N 
HETATM   17  N   UNK N   1      36.759  15.274  11.486  0.00  0.00    -0.285 N 
HETATM   18  H   UNK N   1      37.600  13.483  12.054  0.00  0.00     0.187 HD
ATOM     19  HN  UNK N   1      37.563  15.878  11.320  1.00  0.00     0.188 HD
BRANCH  15  20
HETATM   20  C   UNK N   1      35.139  12.460  12.782  0.00  0.00     0.059 A 
HETATM   21  C   UNK N   1      34.559  11.242  12.227  0.00  0.00     0.084 A 
HETATM   22  C   UNK N   1      33.891  10.396  13.102  0.00  0.00     0.038 A 
HETATM   23  C   UNK N   1      33.776  10.675  14.454  0.00  0.00     0.005 A 
HETATM   24  C   UNK N   1      34.380  11.798  14.995  0.00  0.00     0.038 A 
HETATM   25  C   UNK N   1      35.077  12.693  14.195  0.00  0.00     0.083 A 
BRANCH  21  26
HETATM   26  O   UNK N   1      34.470  10.857  10.905  0.00  0.00    -0.350 OA
BRANCH  26  27
HETATM   27  C   UNK N   1      35.384  10.794   9.864  0.00  0.00     0.177 C 
BRANCH  27  28
HETATM   28  C   UNK N   1      34.972  11.757   8.739  0.00  0.00     0.046 C 
BRANCH  28  29
HETATM   29  C   UNK N   1      33.503  11.634   8.391  0.00  0.00     0.113 C 
BRANCH  29  30
HETATM   30  N   UNK N   1      32.727  12.579   9.172  0.00  0.00    -0.430 N 
HETATM   31  H   UNK N   1      32.700  12.583  10.192  0.00  0.00     0.149 HD
HETATM   32  H   UNK N   1      32.177  13.279   8.673  0.00  0.00     0.149 HD
ENDBRANCH  29  30
ENDBRANCH  28  29
ENDBRANCH  27  28
ENDBRANCH  26  27
ENDBRANCH  21  26
BRANCH  25  33
HETATM   33  O   UNK N   1      35.647  13.763  14.823  0.00  0.00    -0.355 OA
HETATM   34  C   UNK N   1      36.868  13.749  15.464  0.00  0.00     0.210 C 
ENDBRANCH  25  33
ENDBRANCH  15  20
ENDBRANCH  11  13
ENDBRANCH   1  11
TORSDOF 9
ENDMDL
MODEL 2
REMARK VINA RESULT:      -7.0      1.683      2.057
REMARK  9 active torsions:
REMARK  status: ('A' for Active; 'I' for Inactive)
REMARK    1  A    between atoms: O_2  and  C_3 
REMARK    2  A    between atoms: C_7  and  O_26 
REMARK    3  A    between atoms: C_8  and  C_9 
REMARK    4  A    between atoms: C_11  and  N_15 
REMARK    5  A    between atoms: N_15  and  C_16 
REMARK    6  A    between atoms: O_26  and  C_27 
REMARK    7  A    between atoms: C_27  and  C_28 
REMARK    8  A    between atoms: C_28  and  C_29 
REMARK    9  A    between atoms: C_29  and  N_30 
ROOT
HETATM    1  C   UNK N   1      34.199  16.345   9.316  0.00  0.00     0.122 A 
HETATM    2  C   UNK N   1      34.766  15.635   8.260  0.00  0.00     0.137 A 
HETATM    3  N   UNK N   1      33.930  15.104   7.325  0.00  0.00    -0.353 N 
ATOM      4  HN  UNK N   1      34.317  14.563   6.551  1.00  0.00     0.166 HD
HETATM    5  C   UNK N   1      32.579  15.290   7.413  0.00  0.00     0.129 A 
HETATM    6  C   UNK N   1      32.042  16.044   8.427  0.00  0.00     0.130 A 
HETATM    7  N   UNK N   1      32.859  16.544   9.355  0.00  0.00    -0.348 N 
ATOM      8  HN  UNK N   1      32.462  17.093  10.117  1.00  0.00     0.167 HD
HETATM    9  C   UNK N   1      31.684  14.632   6.536  0.00  0.00     0.119 C 
HETATM   10  N   UNK N   1      30.983  14.081   5.806  0.00  0.00    -0.190 NA
ENDROOT
BRANCH   1  11
HETATM   11  N   UNK N   1      34.949  16.787  10.399  0.00  0.00    -0.326 N 
HETATM   12  H   UNK N   1      35.042  17.740  10.627  0.00  0.00     0.169 HD
BRANCH  11  13
HETATM   13  C   UNK N   1      35.568  15.770  11.142  0.00  0.00     0.123 A 
HETATM   14  C   UNK N   1      34.896  14.849  11.842  0.00  0.00     0.082 A 
HETATM   15  C   UNK N   1      35.840  14.007  12.301  0.00  0.00     0.067 A 
HETATM   16  N   UNK N   1      37.049  14.382  11.829  0.00  0.00    -0.298 N 
HETATM   17  N   UNK N   1      36.875  15.457  11.083  0.00  0.00    -0.285 N 
HETATM   18  H   UNK N   1      37.908  13.935  12.010  0.00  0.00     0.187 HD
ATOM     19  HN  UNK N   1      37.594  15.956  10.561  1.00  0.00     0.188 HD
BRANCH  15  20
HETATM   20  C   UNK N   1      35.710  13.262  13.543  0.00  0.00     0.059 A 
HETATM   21  C   UNK N   1      34.892  12.056  13.602  0.00  0.00     0.084 A 
HETATM   22  C   UNK N   1      34.509  11.604  14.857  0.00  0.00     0.038 A 
HETATM   23  C   UNK N   1      34.887  12.253  16.021  0.00  0.00     0.005 A 
HETATM   24  C   UNK N   1      35.717  13.361  15.972  0.00  0.00     0.038 A 
HETATM   25  C   UNK N   1      36.155  13.875  14.759  0.00  0.00     0.083 A 
BRANCH  21  26
HETATM   26  O   UNK N   1      34.326  11.349  12.560  0.00  0.00    -0.350 OA
BRANCH  26  27
HETATM   27  C   UNK N   1      33.699  10.116  12.471  0.00  0.00     0.177 C 
BRANCH  27  28
HETATM   28  C   UNK N   1      33.704   9.623  11.015  0.00  0.00     0.046 C 
BRANCH  28  29
HETATM   29  C   UNK N   1      33.773  10.768  10.025  0.00  0.00     0.113 C 
BRANCH  29  30
HETATM   30  N   UNK N   1      32.436  11.152   9.615  0.00  0.00    -0.430 N 
HETATM   31  H   UNK N   1      32.193  11.428   8.664  0.00  0.00     0.149 HD
HETATM   32  H   UNK N   1      31.696  11.145  10.317  0.00  0.00     0.149 HD
ENDBRANCH  29  30
ENDBRANCH  28  29
ENDBRANCH  27  28
ENDBRANCH  26  27
ENDBRANCH  21  26
BRANCH  25  33
HETATM   33  O   UNK N   1      36.979  14.962  14.815  0.00  0.00    -0.355 OA
HETATM   34  C   UNK N   1      37.375  15.599  15.972  0.00  0.00     0.210 C 
ENDBRANCH  25  33
ENDBRANCH  15  20
ENDBRANCH  11  13
ENDBRANCH   1  11
TORSDOF 9
ENDMDL
MODEL 3
REMARK VINA RESULT:      -6.7      3.349      7.510
REMARK  9 active torsions:
REMARK  status: ('A' for Active; 'I' for Inactive)
REMARK    1  A    between atoms: O_2  and  C_3 
REMARK    2  A    between atoms: C_7  and  O_26 
REMARK    3  A    between atoms: C_8  and  C_9 
REMARK    4  A    between atoms: C_11  and  N_15 
REMARK    5  A    between atoms: N_15  and  C_16 
REMARK    6  A    between atoms: O_26  and  C_27 
REMARK    7  A    between atoms: C_27  and  C_28 
REMARK    8  A    between atoms: C_28  and  C_29 
REMARK    9  A    between atoms: C_29  and  N_30 
ROOT
HETATM    1  C   UNK N   1      35.476  15.712  10.949  0.00  0.00     0.122 A 
HETATM    2  C   UNK N   1      36.735  15.365  10.462  0.00  0.00     0.137 A 
HETATM    3  N   UNK N   1      37.253  14.161  10.831  0.00  0.00    -0.353 N 
ATOM      4  HN  UNK N   1      38.181  13.890  10.505  1.00  0.00     0.166 HD
HETATM    5  C   UNK N   1      36.542  13.313  11.634  0.00  0.00     0.129 A 
HETATM    6  C   UNK N   1      35.279  13.646  12.055  0.00  0.00     0.130 A 
HETATM    7  N   UNK N   1      34.781  14.835  11.712  0.00  0.00    -0.348 N 
ATOM      8  HN  UNK N   1      33.848  15.091  12.034  1.00  0.00     0.167 HD
HETATM    9  C   UNK N   1      37.116  12.125  12.144  0.00  0.00     0.119 C 
HETATM   10  N   UNK N   1      37.613  11.164  12.542  0.00  0.00    -0.190 NA
ENDROOT
BRANCH   1  11
HETATM   11  N   UNK N   1      34.933  16.977  10.760  0.00  0.00    -0.326 N 
HETATM   12  H   UNK N   1      34.895  17.651  11.476  0.00  0.00     0.169 HD
BRANCH  11  13
HETATM   13  C   UNK N   1      34.440  17.220   9.468  0.00  0.00     0.123 A 
HETATM   14  C   UNK N   1      33.379  16.595   8.949  0.00  0.00     0.082 A 
HETATM   15  C   UNK N   1      33.173  17.191   7.760  0.00  0.00     0.067 A 
HETATM   16  N   UNK N   1      34.058  18.200   7.600  0.00  0.00    -0.298 N 
HETATM   17  N   UNK N   1      34.823  18.238   8.675  0.00  0.00    -0.285 N 
HETATM   18  H   UNK N   1      34.122  18.798   6.822  0.00  0.00     0.187 HD
ATOM     19  HN  UNK N   1      35.562  18.912   8.869  1.00  0.00     0.188 HD
BRANCH  15  20
HETATM   20  C   UNK N   1      32.586  16.511   6.616  0.00  0.00     0.059 A 
HETATM   21  C   UNK N   1      31.143  16.322   6.527  0.00  0.00     0.084 A 
HETATM   22  C   UNK N   1      30.677  15.370   5.629  0.00  0.00     0.038 A 
HETATM   23  C   UNK N   1      31.533  14.625   4.835  0.00  0.00     0.005 A 
HETATM   24  C   UNK N   1      32.900  14.847   4.872  0.00  0.00     0.038 A 
HETATM   25  C   UNK N   1      33.451  15.787   5.732  0.00  0.00     0.083 A 
BRANCH  21  26
HETATM   26  O   UNK N   1      30.153  16.880   7.310  0.00  0.00    -0.350 OA
BRANCH  26  27
HETATM   27  C   UNK N   1      29.133  17.786   7.061  0.00  0.00     0.177 C 
BRANCH  27  28
HETATM   28  C   UNK N   1      28.771  18.542   8.349  0.00  0.00     0.046 C 
BRANCH  28  29
HETATM   29  C   UNK N   1      29.924  18.583   9.330  0.00  0.00     0.113 C 
BRANCH  29  30
HETATM   30  N   UNK N   1      29.835  17.462  10.247  0.00  0.00    -0.430 N 
HETATM   31  H   UNK N   1      28.957  17.113  10.631  0.00  0.00     0.149 HD
HETATM   32  H   UNK N   1      30.700  16.996  10.523  0.00  0.00     0.149 HD
ENDBRANCH  29  30
ENDBRANCH  28  29
ENDBRANCH  27  28
ENDBRANCH  26  27
ENDBRANCH  21  26
BRANCH  25  33
HETATM   33  O   UNK N   1      34.807  15.941   5.686  0.00  0.00    -0.355 OA
HETATM   34  C   UNK N   1      35.726  14.926   5.842  0.00  0.00     0.210 C 
ENDBRANCH  25  33
ENDBRANCH  15  20
ENDBRANCH  11  13
ENDBRANCH   1  11
TORSDOF 9
ENDMDL
MODEL 4
REMARK VINA RESULT:      -6.7      2.532      4.077
REMARK  9 active torsions:
REMARK  status: ('A' for Active; 'I' for Inactive)
REMARK    1  A    between atoms: O_2  and  C_3 
REMARK    2  A    between atoms: C_7  and  O_26 
REMARK    3  A    between atoms: C_8  and  C_9 
REMARK    4  A    between atoms: C_11  and  N_15 
REMARK    5  A    between atoms: N_15  and  C_16 
REMARK    6  A    between atoms: O_26  and  C_27 
REMARK    7  A    between atoms: C_27  and  C_28 
REMARK    8  A    between atoms: C_28  and  C_29 
REMARK    9  A    between atoms: C_29  and  N_30 
ROOT
HETATM    1  C   UNK N   1      36.018  14.902  11.166  0.00  0.00     0.122 A 
HETATM    2  C   UNK N   1      35.603  16.151  11.621  0.00  0.00     0.137 A 
HETATM    3  N   UNK N   1      35.024  16.998  10.726  0.00  0.00    -0.353 N 
ATOM      4  HN  UNK N   1      34.728  17.927  11.027  1.00  0.00     0.166 HD
HETATM    5  C   UNK N   1      34.834  16.615   9.427  0.00  0.00     0.129 A 
HETATM    6  C   UNK N   1      35.195  15.358   9.010  0.00  0.00     0.130 A 
HETATM    7  N   UNK N   1      35.783  14.537   9.882  0.00  0.00    -0.348 N 
ATOM      8  HN  UNK N   1      36.064  13.607   9.572  1.00  0.00     0.167 HD
HETATM    9  C   UNK N   1      34.366  17.525   8.450  0.00  0.00     0.119 C 
HETATM   10  N   UNK N   1      33.983  18.290   7.679  0.00  0.00    -0.190 NA
ENDROOT
BRANCH   1  11
HETATM   11  N   UNK N   1      36.759  14.033  11.959  0.00  0.00    -0.326 N 
HETATM   12  H   UNK N   1      37.710  13.845  11.794  0.00  0.00     0.169 HD
BRANCH  11  13
HETATM   13  C   UNK N   1      36.044  13.443  13.014  0.00  0.00     0.123 A 
HETATM   14  C   UNK N   1      36.332  13.638  14.304  0.00  0.00     0.082 A 
HETATM   15  C   UNK N   1      35.355  13.001  14.976  0.00  0.00     0.067 A 
HETATM   16  N   UNK N   1      34.463  12.489  14.100  0.00  0.00    -0.298 N 
HETATM   17  N   UNK N   1      34.874  12.793  12.883  0.00  0.00    -0.285 N 
HETATM   18  H   UNK N   1      33.652  11.980  14.328  0.00  0.00     0.187 HD
ATOM     19  HN  UNK N   1      34.395  12.576  12.010  1.00  0.00     0.188 HD
BRANCH  15  20
HETATM   20  C   UNK N   1      35.543  12.415  16.294  0.00  0.00     0.059 A 
HETATM   21  C   UNK N   1      35.587  10.967  16.462  0.00  0.00     0.084 A 
HETATM   22  C   UNK N   1      35.400  10.467  17.744  0.00  0.00     0.038 A 
HETATM   23  C   UNK N   1      35.188  11.294  18.835  0.00  0.00     0.005 A 
HETATM   24  C   UNK N   1      35.210  12.671  18.689  0.00  0.00     0.038 A 
HETATM   25  C   UNK N   1      35.401  13.257  17.444  0.00  0.00     0.083 A 
BRANCH  21  26
HETATM   26  O   UNK N   1      35.668   9.991  15.491  0.00  0.00    -0.350 OA
BRANCH  26  27
HETATM   27  C   UNK N   1      36.693   9.172  15.041  0.00  0.00     0.177 C 
BRANCH  27  28
HETATM   28  C   UNK N   1      37.929  10.016  14.689  0.00  0.00     0.046 C 
BRANCH  28  29
HETATM   29  C   UNK N   1      37.955  10.407  13.226  0.00  0.00     0.113 C 
BRANCH  29  30
HETATM   30  N   UNK N   1      36.804   9.849  12.541  0.00  0.00    -0.430 N 
HETATM   31  H   UNK N   1      36.263   9.061  12.896  0.00  0.00     0.149 HD
HETATM   32  H   UNK N   1      36.520  10.268  11.656  0.00  0.00     0.149 HD
ENDBRANCH  29  30
ENDBRANCH  28  29
ENDBRANCH  27  28
ENDBRANCH  26  27
ENDBRANCH  21  26
BRANCH  25  33
HETATM   33  O   UNK N   1      35.418  14.622  17.405  0.00  0.00    -0.355 OA
HETATM   34  C   UNK N   1      36.518  15.410  17.671  0.00  0.00     0.210 C 
ENDBRANCH  25  33
ENDBRANCH  15  20
ENDBRANCH  11  13
ENDBRANCH   1  11
TORSDOF 9
ENDMDL
MODEL 5
REMARK VINA RESULT:      -6.4      4.164      7.928
REMARK  9 active torsions:
REMARK  status: ('A' for Active; 'I' for Inactive)
REMARK    1  A    between atoms: O_2  and  C_3 
REMARK    2  A    between atoms: C_7  and  O_26 
REMARK    3  A    between atoms: C_8  and  C_9 
REMARK    4  A    between atoms: C_11  and  N_15 
REMARK    5  A    between atoms: N_15  and  C_16 
REMARK    6  A    between atoms: O_26  and  C_27 
REMARK    7  A    between atoms: C_27  and  C_28 
REMARK    8  A    between atoms: C_28  and  C_29 
REMARK    9  A    between atoms: C_29  and  N_30 
ROOT
HETATM    1  C   UNK N   1      34.835  16.526   9.724  0.00  0.00     0.122 A 
HETATM    2  C   UNK N   1      35.681  16.690  10.819  0.00  0.00     0.137 A 
HETATM    3  N   UNK N   1      36.582  15.705  11.084  0.00  0.00    -0.353 N 
ATOM      4  HN  UNK N   1      37.201  15.790  11.890  1.00  0.00     0.166 HD
HETATM    5  C   UNK N   1      36.667  14.604  10.278  0.00  0.00     0.129 A 
HETATM    6  C   UNK N   1      35.867  14.487   9.169  0.00  0.00     0.130 A 
HETATM    7  N   UNK N   1      34.969  15.441   8.923  0.00  0.00    -0.348 N 
ATOM      8  HN  UNK N   1      34.364  15.351   8.107  1.00  0.00     0.167 HD
HETATM    9  C   UNK N   1      37.495  13.506  10.613  0.00  0.00     0.119 C 
HETATM   10  N   UNK N   1      38.180  12.629  10.914  0.00  0.00    -0.190 NA
ENDROOT
BRANCH   1  11
HETATM   11  N   UNK N   1      33.781  17.394   9.466  0.00  0.00    -0.326 N 
HETATM   12  H   UNK N   1      33.442  18.031  10.134  0.00  0.00     0.169 HD
BRANCH  11  13
HETATM   13  C   UNK N   1      33.235  17.291   8.176  0.00  0.00     0.123 A 
HETATM   14  C   UNK N   1      31.948  17.022   7.936  0.00  0.00     0.082 A 
HETATM   15  C   UNK N   1      31.816  17.127   6.600  0.00  0.00     0.067 A 
HETATM   16  N   UNK N   1      32.992  17.517   6.059  0.00  0.00    -0.298 N 
HETATM   17  N   UNK N   1      33.863  17.650   7.042  0.00  0.00    -0.285 N 
HETATM   18  H   UNK N   1      33.168  17.672   5.103  0.00  0.00     0.187 HD
ATOM     19  HN  UNK N   1      34.828  17.966   6.958  1.00  0.00     0.188 HD
BRANCH  15  20
HETATM   20  C   UNK N   1      30.844  16.367   5.831  0.00  0.00     0.059 A 
HETATM   21  C   UNK N   1      29.495  16.883   5.627  0.00  0.00     0.084 A 
HETATM   22  C   UNK N   1      28.521  15.981   5.217  0.00  0.00     0.038 A 
HETATM   23  C   UNK N   1      28.802  14.643   4.996  0.00  0.00     0.005 A 
HETATM   24  C   UNK N   1      30.096  14.164   5.127  0.00  0.00     0.038 A 
HETATM   25  C   UNK N   1      31.133  14.999   5.523  0.00  0.00     0.083 A 
BRANCH  21  26
HETATM   26  O   UNK N   1      29.004  18.142   5.906  0.00  0.00    -0.350 OA
BRANCH  26  27
HETATM   27  C   UNK N   1      28.064  18.625   6.803  0.00  0.00     0.177 C 
BRANCH  27  28
HETATM   28  C   UNK N   1      28.707  18.832   8.184  0.00  0.00     0.046 C 
BRANCH  28  29
HETATM   29  C   UNK N   1      28.202  17.832   9.203  0.00  0.00     0.113 C 
BRANCH  29  30
HETATM   30  N   UNK N   1      27.342  16.856   8.560  0.00  0.00    -0.430 N 
HETATM   31  H   UNK N   1      26.325  16.864   8.634  0.00  0.00     0.149 HD
HETATM   32  H   UNK N   1      27.779  16.122   8.003  0.00  0.00     0.149 HD
ENDBRANCH  29  30
ENDBRANCH  28  29
ENDBRANCH  27  28
ENDBRANCH  26  27
ENDBRANCH  21  26
BRANCH  25  33
HETATM   33  O   UNK N   1      32.373  14.436   5.611  0.00  0.00    -0.355 OA
HETATM   34  C   UNK N   1      32.794  13.596   6.621  0.00  0.00     0.210 C 
ENDBRANCH  25  33
ENDBRANCH  15  20
ENDBRANCH  11  13
ENDBRANCH   1  11
TORSDOF 9
ENDMDL
MODEL 6
REMARK VINA RESULT:      -6.4      3.380      7.938
REMARK  9 active torsions:
REMARK  status: ('A' for Active; 'I' for Inactive)
REMARK    1  A    between atoms: O_2  and  C_3 
REMARK    2  A    between atoms: C_7  and  O_26 
REMARK    3  A    between atoms: C_8  and  C_9 
REMARK    4  A    between atoms: C_11  and  N_15 
REMARK    5  A    between atoms: N_15  and  C_16 
REMARK    6  A    between atoms: O_26  and  C_27 
REMARK    7  A    between atoms: C_27  and  C_28 
REMARK    8  A    between atoms: C_28  and  C_29 
REMARK    9  A    between atoms: C_29  and  N_30 
ROOT
HETATM    1  C   UNK N   1      34.712  14.337  11.525  0.00  0.00     0.122 A 
HETATM    2  C   UNK N   1      35.916  14.841  12.012  0.00  0.00     0.137 A 
HETATM    3  N   UNK N   1      36.811  13.961  12.540  0.00  0.00    -0.353 N 
ATOM      4  HN  UNK N   1      37.693  14.304  12.921  1.00  0.00     0.166 HD
HETATM    5  C   UNK N   1      36.539  12.621  12.562  0.00  0.00     0.129 A 
HETATM    6  C   UNK N   1      35.373  12.136  12.024  0.00  0.00     0.130 A 
HETATM    7  N   UNK N   1      34.488  13.001  11.528  0.00  0.00    -0.348 N 
ATOM      8  HN  UNK N   1      33.615  12.645  11.139  1.00  0.00     0.167 HD
HETATM    9  C   UNK N   1      37.387  11.707  13.231  0.00  0.00     0.119 C 
HETATM   10  N   UNK N   1      38.099  10.989  13.784  0.00  0.00    -0.190 NA
ENDROOT
BRANCH   1  11
HETATM   11  N   UNK N   1      33.674  15.166  11.115  0.00  0.00    -0.326 N 
HETATM   12  H   UNK N   1      33.241  15.812  11.717  0.00  0.00     0.169 HD
BRANCH  11  13
HETATM   13  C   UNK N   1      33.290  15.010   9.774  0.00  0.00     0.123 A 
HETATM   14  C   UNK N   1      34.004  15.467   8.740  0.00  0.00     0.082 A 
HETATM   15  C   UNK N   1      33.360  15.014   7.648  0.00  0.00     0.067 A 
HETATM   16  N   UNK N   1      32.314  14.246   8.026  0.00  0.00    -0.298 N 
HETATM   17  N   UNK N   1      32.291  14.217   9.345  0.00  0.00    -0.285 N 
HETATM   18  H   UNK N   1      31.681  13.790   7.425  0.00  0.00     0.187 HD
ATOM     19  HN  UNK N   1      31.641  13.692   9.929  1.00  0.00     0.188 HD
BRANCH  15  20
HETATM   20  C   UNK N   1      33.365  15.712   6.372  0.00  0.00     0.059 A 
HETATM   21  C   UNK N   1      32.448  16.819   6.128  0.00  0.00     0.084 A 
HETATM   22  C   UNK N   1      32.238  17.197   4.809  0.00  0.00     0.038 A 
HETATM   23  C   UNK N   1      32.874  16.567   3.752  0.00  0.00     0.005 A 
HETATM   24  C   UNK N   1      33.794  15.558   3.984  0.00  0.00     0.038 A 
HETATM   25  C   UNK N   1      34.072  15.123   5.273  0.00  0.00     0.083 A 
BRANCH  21  26
HETATM   26  O   UNK N   1      31.643  17.483   7.031  0.00  0.00    -0.350 OA
BRANCH  26  27
HETATM   27  C   UNK N   1      30.322  17.336   7.425  0.00  0.00     0.177 C 
BRANCH  27  28
HETATM   28  C   UNK N   1      30.048  18.170   8.685  0.00  0.00     0.046 C 
BRANCH  28  29
HETATM   29  C   UNK N   1      28.843  17.666   9.453  0.00  0.00     0.113 C 
BRANCH  29  30
HETATM   30  N   UNK N   1      27.675  18.460   9.121  0.00  0.00    -0.430 N 
HETATM   31  H   UNK N   1      27.633  19.101   8.329  0.00  0.00     0.149 HD
HETATM   32  H   UNK N   1      26.849  18.372   9.714  0.00  0.00     0.149 HD
ENDBRANCH  29  30
ENDBRANCH  28  29
ENDBRANCH  27  28
ENDBRANCH  26  27
ENDBRANCH  21  26
BRANCH  25  33
HETATM   33  O   UNK N   1      35.002  14.132   5.400  0.00  0.00    -0.355 OA
HETATM   34  C   UNK N   1      36.350  14.331   5.609  0.00  0.00     0.210 C 
ENDBRANCH  25  33
ENDBRANCH  15  20
ENDBRANCH  11  13
ENDBRANCH   1  11
TORSDOF 9
ENDMDL
MODEL 7
REMARK VINA RESULT:      -6.2      3.973      8.236
REMARK  9 active torsions:
REMARK  status: ('A' for Active; 'I' for Inactive)
REMARK    1  A    between atoms: O_2  and  C_3 
REMARK    2  A    between atoms: C_7  and  O_26 
REMARK    3  A    between atoms: C_8  and  C_9 
REMARK    4  A    between atoms: C_11  and  N_15 
REMARK    5  A    between atoms: N_15  and  C_16 
REMARK    6  A    between atoms: O_26  and  C_27 
REMARK    7  A    between atoms: C_27  and  C_28 
REMARK    8  A    between atoms: C_28  and  C_29 
REMARK    9  A    between atoms: C_29  and  N_30 
ROOT
HETATM    1  C   UNK N   1      33.855  14.557  10.307  0.00  0.00     0.122 A 
HETATM    2  C   UNK N   1      34.257  13.434   9.588  0.00  0.00     0.137 A 
HETATM    3  N   UNK N   1      35.545  13.014   9.724  0.00  0.00    -0.353 N 
ATOM      4  HN  UNK N   1      35.871  12.205   9.194  1.00  0.00     0.166 HD
HETATM    5  C   UNK N   1      36.404  13.665  10.565  0.00  0.00     0.129 A 
HETATM    6  C   UNK N   1      35.975  14.733  11.312  0.00  0.00     0.130 A 
HETATM    7  N   UNK N   1      34.719  15.158  11.161  0.00  0.00    -0.348 N 
ATOM      8  HN  UNK N   1      34.401  15.960  11.704  1.00  0.00     0.167 HD
HETATM    9  C   UNK N   1      37.779  13.335  10.615  0.00  0.00     0.119 C 
HETATM   10  N   UNK N   1      38.893  13.041  10.633  0.00  0.00    -0.190 NA
ENDROOT
BRANCH   1  11
HETATM   11  N   UNK N   1      32.615  15.155  10.116  0.00  0.00    -0.326 N 
HETATM   12  H   UNK N   1      31.831  14.939  10.670  0.00  0.00     0.169 HD
BRANCH  11  13
HETATM   13  C   UNK N   1      32.566  16.090   9.071  0.00  0.00     0.123 A 
HETATM   14  C   UNK N   1      31.870  15.908   7.944  0.00  0.00     0.082 A 
HETATM   15  C   UNK N   1      31.992  17.068   7.271  0.00  0.00     0.067 A 
HETATM   16  N   UNK N   1      32.697  17.950   8.013  0.00  0.00    -0.298 N 
HETATM   17  N   UNK N   1      33.025  17.353   9.144  0.00  0.00    -0.285 N 
HETATM   18  H   UNK N   1      32.926  18.872   7.757  0.00  0.00     0.187 HD
ATOM     19  HN  UNK N   1      33.529  17.770   9.926  1.00  0.00     0.188 HD
BRANCH  15  20
HETATM   20  C   UNK N   1      31.959  17.156   5.820  0.00  0.00     0.059 A 
HETATM   21  C   UNK N   1      30.690  17.302   5.116  0.00  0.00     0.084 A 
HETATM   22  C   UNK N   1      30.676  17.016   3.757  0.00  0.00     0.038 A 
HETATM   23  C   UNK N   1      31.814  16.614   3.077  0.00  0.00     0.005 A 
HETATM   24  C   UNK N   1      33.034  16.535   3.730  0.00  0.00     0.038 A 
HETATM   25  C   UNK N   1      33.141  16.814   5.086  0.00  0.00     0.083 A 
BRANCH  21  26
HETATM   26  O   UNK N   1      29.442  17.575   5.639  0.00  0.00    -0.350 OA
BRANCH  26  27
HETATM   27  C   UNK N   1      28.455  16.790   6.216  0.00  0.00     0.177 C 
BRANCH  27  28
HETATM   28  C   UNK N   1      27.086  17.126   5.603  0.00  0.00     0.046 C 
BRANCH  28  29
HETATM   29  C   UNK N   1      26.892  18.618   5.424  0.00  0.00     0.113 C 
BRANCH  29  30
HETATM   30  N   UNK N   1      27.154  19.307   6.673  0.00  0.00    -0.430 N 
HETATM   31  H   UNK N   1      28.089  19.551   7.000  0.00  0.00     0.149 HD
HETATM   32  H   UNK N   1      26.358  19.563   7.258  0.00  0.00     0.149 HD
ENDBRANCH  29  30
ENDBRANCH  28  29
ENDBRANCH  27  28
ENDBRANCH  26  27
ENDBRANCH  21  26
BRANCH  25  33
HETATM   33  O   UNK N   1      34.387  16.720   5.635  0.00  0.00    -0.355 OA
HETATM   34  C   UNK N   1      35.018  15.542   5.975  0.00  0.00     0.210 C 
ENDBRANCH  25  33
ENDBRANCH  15  20
ENDBRANCH  11  13
ENDBRANCH   1  11
TORSDOF 9
ENDMDL
MODEL 8
REMARK VINA RESULT:      -6.2      2.339      4.345
REMARK  9 active torsions:
REMARK  status: ('A' for Active; 'I' for Inactive)
REMARK    1  A    between atoms: O_2  and  C_3 
REMARK    2  A    between atoms: C_7  and  O_26 
REMARK    3  A    between atoms: C_8  and  C_9 
REMARK    4  A    between atoms: C_11  and  N_15 
REMARK    5  A    between atoms: N_15  and  C_16 
REMARK    6  A    between atoms: O_26  and  C_27 
REMARK    7  A    between atoms: C_27  and  C_28 
REMARK    8  A    between atoms: C_28  and  C_29 
REMARK    9  A    between atoms: C_29  and  N_30 
ROOT
HETATM    1  C   UNK N   1      34.575  15.956  10.026  0.00  0.00     0.122 A 
HETATM    2  C   UNK N   1      34.257  15.064   9.004  0.00  0.00     0.137 A 
HETATM    3  N   UNK N   1      34.060  15.567   7.754  0.00  0.00    -0.353 N 
ATOM      4  HN  UNK N   1      33.807  14.939   6.991  1.00  0.00     0.166 HD
HETATM    5  C   UNK N   1      34.199  16.906   7.513  0.00  0.00     0.129 A 
HETATM    6  C   UNK N   1      34.571  17.762   8.519  0.00  0.00     0.130 A 
HETATM    7  N   UNK N   1      34.742  17.272   9.747  0.00  0.00    -0.348 N 
ATOM      8  HN  UNK N   1      35.006  17.907  10.500  1.00  0.00     0.167 HD
HETATM    9  C   UNK N   1      33.862  17.468   6.259  0.00  0.00     0.119 C 
HETATM   10  N   UNK N   1      33.580  17.894   5.226  0.00  0.00    -0.190 NA
ENDROOT
BRANCH   1  11
HETATM   11  N   UNK N   1      34.638  15.564  11.358  0.00  0.00    -0.326 N 
HETATM   12  H   UNK N   1      34.056  15.947  12.052  0.00  0.00     0.169 HD
BRANCH  11  13
HETATM   13  C   UNK N   1      35.599  14.579  11.637  0.00  0.00     0.123 A 
HETATM   14  C   UNK N   1      35.295  13.318  11.958  0.00  0.00     0.082 A 
HETATM   15  C   UNK N   1      36.481  12.684  12.030  0.00  0.00     0.067 A 
HETATM   16  N   UNK N   1      37.472  13.539  11.694  0.00  0.00    -0.298 N 
HETATM   17  N   UNK N   1      36.920  14.706  11.419  0.00  0.00    -0.285 N 
HETATM   18  H   UNK N   1      38.433  13.331  11.662  0.00  0.00     0.187 HD
ATOM     19  HN  UNK N   1      37.404  15.545  11.099  1.00  0.00     0.188 HD
BRANCH  15  20
HETATM   20  C   UNK N   1      36.727  11.545  12.901  0.00  0.00     0.059 A 
HETATM   21  C   UNK N   1      37.219  11.744  14.259  0.00  0.00     0.084 A 
HETATM   22  C   UNK N   1      37.775  10.647  14.904  0.00  0.00     0.038 A 
HETATM   23  C   UNK N   1      37.860   9.403  14.301  0.00  0.00     0.005 A 
HETATM   24  C   UNK N   1      37.335   9.196  13.036  0.00  0.00     0.038 A 
HETATM   25  C   UNK N   1      36.752  10.235  12.323  0.00  0.00     0.083 A 
BRANCH  21  26
HETATM   26  O   UNK N   1      37.326  12.921  14.972  0.00  0.00    -0.350 OA
BRANCH  26  27
HETATM   27  C   UNK N   1      36.414  13.712  15.654  0.00  0.00     0.177 C 
BRANCH  27  28
HETATM   28  C   UNK N   1      35.638  12.866  16.675  0.00  0.00     0.046 C 
BRANCH  28  29
HETATM   29  C   UNK N   1      34.952  13.721  17.720  0.00  0.00     0.113 C 
BRANCH  29  30
HETATM   30  N   UNK N   1      35.336  13.285  19.049  0.00  0.00    -0.430 N 
HETATM   31  H   UNK N   1      36.031  12.560  19.228  0.00  0.00     0.149 HD
HETATM   32  H   UNK N   1      34.885  13.727  19.850  0.00  0.00     0.149 HD
ENDBRANCH  29  30
ENDBRANCH  28  29
ENDBRANCH  27  28
ENDBRANCH  26  27
ENDBRANCH  21  26
BRANCH  25  33
HETATM   33  O   UNK N   1      36.253   9.928  11.089  0.00  0.00    -0.355 OA
HETATM   34  C   UNK N   1      36.997   9.463  10.026  0.00  0.00     0.210 C 
ENDBRANCH  25  33
ENDBRANCH  15  20
ENDBRANCH  11  13
ENDBRANCH   1  11
TORSDOF 9
ENDMDL
MODEL 9
REMARK VINA RESULT:      -6.2     13.257     15.319
REMARK  9 active torsions:
REMARK  status: ('A' for Active; 'I' for Inactive)
REMARK    1  A    between atoms: O_2  and  C_3 
REMARK    2  A    between atoms: C_7  and  O_26 
REMARK    3  A    between atoms: C_8  and  C_9 
REMARK    4  A    between atoms: C_11  and  N_15 
REMARK    5  A    between atoms: N_15  and  C_16 
REMARK    6  A    between atoms: O_26  and  C_27 
REMARK    7  A    between atoms: C_27  and  C_28 
REMARK    8  A    between atoms: C_28  and  C_29 
REMARK    9  A    between atoms: C_29  and  N_30 
ROOT
HETATM    1  C   UNK N   1      19.824  16.840   3.293  0.00  0.00     0.122 A 
HETATM    2  C   UNK N   1      19.901  16.719   1.907  0.00  0.00     0.137 A 
HETATM    3  N   UNK N   1      20.271  17.814   1.188  0.00  0.00    -0.353 N 
ATOM      4  HN  UNK N   1      20.318  17.759   0.171  1.00  0.00     0.166 HD
HETATM    5  C   UNK N   1      20.583  18.987   1.818  0.00  0.00     0.129 A 
HETATM    6  C   UNK N   1      20.560  19.072   3.188  0.00  0.00     0.130 A 
HETATM    7  N   UNK N   1      20.175  18.005   3.890  0.00  0.00    -0.348 N 
ATOM      8  HN  UNK N   1      20.144  18.069   4.907  1.00  0.00     0.167 HD
HETATM    9  C   UNK N   1      20.832  20.173   1.087  0.00  0.00     0.119 C 
HETATM   10  N   UNK N   1      21.030  21.121   0.463  0.00  0.00    -0.190 NA
ENDROOT
BRANCH   1  11
HETATM   11  N   UNK N   1      19.306  15.833   4.097  0.00  0.00    -0.326 N 
HETATM   12  H   UNK N   1      18.355  15.579   4.084  0.00  0.00     0.169 HD
BRANCH  11  13
HETATM   13  C   UNK N   1      20.244  15.203   4.931  0.00  0.00     0.123 A 
HETATM   14  C   UNK N   1      19.936  14.222   5.785  0.00  0.00     0.082 A 
HETATM   15  C   UNK N   1      21.116  13.824   6.296  0.00  0.00     0.067 A 
HETATM   16  N   UNK N   1      22.118  14.514   5.708  0.00  0.00    -0.298 N 
HETATM   17  N   UNK N   1      21.578  15.346   4.837  0.00  0.00    -0.285 N 
HETATM   18  H   UNK N   1      23.080  14.415   5.895  0.00  0.00     0.187 HD
ATOM     19  HN  UNK N   1      22.077  15.977   4.212  1.00  0.00     0.188 HD
BRANCH  15  20
HETATM   20  C   UNK N   1      21.261  13.268   7.631  0.00  0.00     0.059 A 
HETATM   21  C   UNK N   1      20.679  13.946   8.784  0.00  0.00     0.084 A 
HETATM   22  C   UNK N   1      21.147  13.586  10.041  0.00  0.00     0.038 A 
HETATM   23  C   UNK N   1      22.122  12.618  10.215  0.00  0.00     0.005 A 
HETATM   24  C   UNK N   1      22.631  11.927   9.127  0.00  0.00     0.038 A 
HETATM   25  C   UNK N   1      22.211  12.215   7.835  0.00  0.00     0.083 A 
BRANCH  21  26
HETATM   26  O   UNK N   1      19.795  15.005   8.802  0.00  0.00    -0.350 OA
BRANCH  26  27
HETATM   27  C   UNK N   1      19.951  16.382   8.760  0.00  0.00     0.177 C 
BRANCH  27  28
HETATM   28  C   UNK N   1      18.607  17.058   8.446  0.00  0.00     0.046 C 
BRANCH  28  29
HETATM   29  C   UNK N   1      18.038  17.783   9.648  0.00  0.00     0.113 C 
BRANCH  29  30
HETATM   30  N   UNK N   1      18.906  18.883  10.023  0.00  0.00    -0.430 N 
HETATM   31  H   UNK N   1      19.809  19.065   9.585  0.00  0.00     0.149 HD
HETATM   32  H   UNK N   1      18.597  19.509  10.765  0.00  0.00     0.149 HD
ENDBRANCH  29  30
ENDBRANCH  28  29
ENDBRANCH  27  28
ENDBRANCH  26  27
ENDBRANCH  21  26
BRANCH  25  33
HETATM   33  O   UNK N   1      22.763  11.472   6.831  0.00  0.00    -0.355 OA
HETATM   34  C   UNK N   1      23.411  10.267   6.999  0.00  0.00     0.210 C 
ENDBRANCH  25  33
ENDBRANCH  15  20
ENDBRANCH  11  13
ENDBRANCH   1  11
TORSDOF 9
ENDMDL
