MODEL 1
REMARK VINA RESULT:      -8.4      0.000      0.000
REMARK  8 active torsions:
REMARK  status: ('A' for Active; 'I' for Inactive)
REMARK       I    between atoms: C_2  and  N_4 
REMARK    1  A    between atoms: N_4  and  C_5 
REMARK    2  A    between atoms: C_6  and  C_5 
REMARK    3  A    between atoms: N_8  and  C_12 
REMARK    4  A    between atoms: C_15  and  C_19 
REMARK    5  A    between atoms: C_22  and  C_25 
REMARK    6  A    between atoms: C_25  and  N_26 
REMARK    7  A    between atoms: N_26  and  C_27 
REMARK    8  A    between atoms: C_27  and  C_28 
ROOT
HETATM    1  C   UNK N   1      31.086  16.851   6.497  0.00  0.00     0.042 A 
HETATM    2  C   UNK N   1      30.841  16.823   5.124  0.00  0.00     0.031 A 
HETATM    3  C   UNK N   1      29.693  17.381   4.602  0.00  0.00     0.017 A 
HETATM    4  C   UNK N   1      28.730  17.955   5.435  0.00  0.00     0.013 A 
HETATM    5  C   UNK N   1      28.933  17.930   6.837  0.00  0.00     0.129 A 
HETATM    6  C   UNK N   1      30.122  17.403   7.357  0.00  0.00     0.073 A 
HETATM    7  F   UNK N   1      28.030  18.472   7.694  0.00  0.00    -0.205 F 
ENDROOT
BRANCH   4   8
HETATM    8  C   UNK N   1      27.556  18.586   4.794  0.00  0.00    -0.023 A 
HETATM    9  C   UNK N   1      27.510  19.987   4.666  0.00  0.00     0.013 A 
HETATM   10  C   UNK N   1      26.414  20.614   4.078  0.00  0.00     0.009 A 
HETATM   11  C   UNK N   1      25.358  19.850   3.586  0.00  0.00    -0.041 A 
HETATM   12  C   UNK N   1      25.403  18.454   3.709  0.00  0.00     0.009 A 
HETATM   13  C   UNK N   1      26.483  17.827   4.323  0.00  0.00     0.013 A 
BRANCH  11  14
HETATM   14  C   UNK N   1      24.203  20.540   2.924  0.00  0.00     0.153 C 
BRANCH  14  15
HETATM   15  N   UNK N   1      22.941  19.860   3.189  0.00  0.00    -0.412 N 
HETATM   16  H   UNK N   1      22.804  19.088   3.842  0.00  0.00     0.153 HD
BRANCH  15  17
HETATM   17  C   UNK N   1      21.911  20.470   2.362  0.00  0.00     0.174 C 
BRANCH  17  18
HETATM   18  C   UNK N   1      20.720  19.574   2.308  0.00  0.00     0.057 A 
HETATM   19  C   UNK N   1      20.560  18.467   1.510  0.00  0.00     0.132 A 
HETATM   20  N   UNK N   1      19.343  17.964   1.798  0.00  0.00    -0.293 N 
HETATM   21  N   UNK N   1      18.797  18.736   2.727  0.00  0.00    -0.023 NA
ATOM     22  HN  UNK N   1      18.920  17.138   1.378  1.00  0.00     0.183 HD
HETATM   23  N   UNK N   1      19.614  19.723   3.052  0.00  0.00    -0.285 N 
HETATM   24  H   UNK N   1      19.443  20.432   3.714  0.00  0.00     0.184 HD
ENDBRANCH  17  18
ENDBRANCH  15  17
ENDBRANCH  14  15
ENDBRANCH  11  14
ENDBRANCH   4   8
BRANCH   1  25
HETATM   25  N   UNK N   1      32.370  16.448   6.954  0.00  0.00    -0.291 N 
HETATM   26  C   UNK N   1      33.454  17.371   7.115  0.00  0.00     0.168 A 
HETATM   27  C   UNK N   1      34.473  16.553   7.932  0.00  0.00     0.170 A 
HETATM   28  O   UNK N   1      33.924  15.278   8.017  0.00  0.00    -0.295 OA
HETATM   29  C   UNK N   1      32.713  15.266   7.461  0.00  0.00     0.368 A 
HETATM   30  O   UNK N   1      31.965  14.300   7.517  0.00  0.00    -0.238 OA
BRANCH  27  31
HETATM   31  C   UNK N   1      34.511  17.186   9.315  0.00  0.00     0.156 C 
BRANCH  31  32
HETATM   32  N   UNK N   1      34.479  16.176  10.340  0.00  0.00    -0.359 N 
HETATM   33  C   UNK N   1      35.590  15.795  11.015  0.00  0.00     0.213 C 
HETATM   34  C   UNK N   1      35.485  14.740  12.058  0.00  0.00     0.117 C 
HETATM   35  O   UNK N   1      36.676  16.302  10.776  0.00  0.00    -0.274 OA
HETATM   36  H   UNK N   1      33.620  15.747  10.558  0.00  0.00     0.162 HD
ENDBRANCH  31  32
ENDBRANCH  27  31
ENDBRANCH   1  25
TORSDOF 8
ENDMDL
MODEL 2
REMARK VINA RESULT:      -8.2      4.367     11.706
REMARK  8 active torsions:
REMARK  status: ('A' for Active; 'I' for Inactive)
REMARK       I    between atoms: C_2  and  N_4 
REMARK    1  A    between atoms: N_4  and  C_5 
REMARK    2  A    between atoms: C_6  and  C_5 
REMARK    3  A    between atoms: N_8  and  C_12 
REMARK    4  A    between atoms: C_15  and  C_19 
REMARK    5  A    between atoms: C_22  and  C_25 
REMARK    6  A    between atoms: C_25  and  N_26 
REMARK    7  A    between atoms: N_26  and  C_27 
REMARK    8  A    between atoms: C_27  and  C_28 
ROOT
HETATM    1  C   UNK N   1      25.539  18.750   4.164  0.00  0.00     0.042 A 
HETATM    2  C   UNK N   1      26.267  17.620   3.790  0.00  0.00     0.031 A 
HETATM    3  C   UNK N   1      27.487  17.343   4.370  0.00  0.00     0.017 A 
HETATM    4  C   UNK N   1      28.043  18.205   5.320  0.00  0.00     0.013 A 
HETATM    5  C   UNK N   1      27.348  19.392   5.659  0.00  0.00     0.129 A 
HETATM    6  C   UNK N   1      26.088  19.643   5.099  0.00  0.00     0.073 A 
HETATM    7  F   UNK N   1      27.841  20.265   6.574  0.00  0.00    -0.205 F 
ENDROOT
BRANCH   4   8
HETATM    8  C   UNK N   1      29.325  17.807   5.939  0.00  0.00    -0.023 A 
HETATM    9  C   UNK N   1      30.427  17.512   5.115  0.00  0.00     0.013 A 
HETATM   10  C   UNK N   1      31.646  17.123   5.665  0.00  0.00     0.009 A 
HETATM   11  C   UNK N   1      31.790  17.048   7.049  0.00  0.00    -0.041 A 
HETATM   12  C   UNK N   1      30.696  17.345   7.873  0.00  0.00     0.009 A 
HETATM   13  C   UNK N   1      29.468  17.705   7.325  0.00  0.00     0.013 A 
BRANCH  11  14
HETATM   14  C   UNK N   1      33.120  16.662   7.626  0.00  0.00     0.153 C 
BRANCH  14  15
HETATM   15  N   UNK N   1      33.136  16.778   9.079  0.00  0.00    -0.412 N 
HETATM   16  H   UNK N   1      32.317  16.790   9.686  0.00  0.00     0.153 HD
BRANCH  15  17
HETATM   17  C   UNK N   1      34.522  16.876   9.513  0.00  0.00     0.174 C 
BRANCH  17  18
HETATM   18  C   UNK N   1      34.775  15.882  10.595  0.00  0.00     0.057 A 
HETATM   19  C   UNK N   1      35.919  15.760  11.348  0.00  0.00     0.132 A 
HETATM   20  N   UNK N   1      35.702  14.741  12.204  0.00  0.00    -0.293 N 
HETATM   21  N   UNK N   1      34.484  14.273  11.975  0.00  0.00    -0.023 NA
ATOM     22  HN  UNK N   1      36.358  14.395  12.902  1.00  0.00     0.183 HD
HETATM   23  N   UNK N   1      33.901  14.948  11.000  0.00  0.00    -0.285 N 
HETATM   24  H   UNK N   1      32.997  14.795  10.639  0.00  0.00     0.184 HD
ENDBRANCH  17  18
ENDBRANCH  15  17
ENDBRANCH  14  15
ENDBRANCH  11  14
ENDBRANCH   4   8
BRANCH   1  25
HETATM   25  N   UNK N   1      24.207  18.874   3.686  0.00  0.00    -0.291 N 
HETATM   26  C   UNK N   1      23.199  17.892   3.956  0.00  0.00     0.168 A 
HETATM   27  C   UNK N   1      21.903  18.620   3.548  0.00  0.00     0.170 A 
HETATM   28  O   UNK N   1      22.326  19.825   2.998  0.00  0.00    -0.295 OA
HETATM   29  C   UNK N   1      23.649  19.938   3.113  0.00  0.00     0.368 A 
HETATM   30  O   UNK N   1      24.258  20.959   2.822  0.00  0.00    -0.238 OA
BRANCH  27  31
HETATM   31  C   UNK N   1      21.146  18.888   4.841  0.00  0.00     0.156 C 
BRANCH  31  32
HETATM   32  N   UNK N   1      21.100  17.704   5.659  0.00  0.00    -0.359 N 
HETATM   33  C   UNK N   1      20.889  17.757   6.997  0.00  0.00     0.213 C 
HETATM   34  C   UNK N   1      20.859  16.494   7.782  0.00  0.00     0.117 C 
HETATM   35  O   UNK N   1      20.730  18.826   7.567  0.00  0.00    -0.274 OA
HETATM   36  H   UNK N   1      21.224  16.826   5.232  0.00  0.00     0.162 HD
ENDBRANCH  31  32
ENDBRANCH  27  31
ENDBRANCH   1  25
TORSDOF 8
ENDMDL
MODEL 3
REMARK VINA RESULT:      -8.2      7.702     15.946
REMARK  8 active torsions:
REMARK  status: ('A' for Active; 'I' for Inactive)
REMARK       I    between atoms: C_2  and  N_4 
REMARK    1  A    between atoms: N_4  and  C_5 
REMARK    2  A    between atoms: C_6  and  C_5 
REMARK    3  A    between atoms: N_8  and  C_12 
REMARK    4  A    between atoms: C_15  and  C_19 
REMARK    5  A    between atoms: C_22  and  C_25 
REMARK    6  A    between atoms: C_25  and  N_26 
REMARK    7  A    between atoms: N_26  and  C_27 
REMARK    8  A    between atoms: C_27  and  C_28 
ROOT
HETATM    1  C   UNK N   1      35.688  13.679  12.255  0.00  0.00     0.042 A 
HETATM    2  C   UNK N   1      35.011  12.537  12.685  0.00  0.00     0.031 A 
HETATM    3  C   UNK N   1      35.002  12.183  14.017  0.00  0.00     0.017 A 
HETATM    4  C   UNK N   1      35.697  12.938  14.966  0.00  0.00     0.013 A 
HETATM    5  C   UNK N   1      36.444  14.061  14.535  0.00  0.00     0.129 A 
HETATM    6  C   UNK N   1      36.413  14.440  13.187  0.00  0.00     0.073 A 
HETATM    7  F   UNK N   1      37.140  14.829  15.413  0.00  0.00    -0.205 F 
ENDROOT
BRANCH   4   8
HETATM    8  C   UNK N   1      35.587  12.528  16.382  0.00  0.00    -0.023 A 
HETATM    9  C   UNK N   1      35.907  11.205  16.745  0.00  0.00     0.013 A 
HETATM   10  C   UNK N   1      35.803  10.783  18.068  0.00  0.00     0.009 A 
HETATM   11  C   UNK N   1      35.403  11.683  19.054  0.00  0.00    -0.041 A 
HETATM   12  C   UNK N   1      35.087  13.001  18.697  0.00  0.00     0.009 A 
HETATM   13  C   UNK N   1      35.161  13.418  17.371  0.00  0.00     0.013 A 
BRANCH  11  14
HETATM   14  C   UNK N   1      35.331  11.220  20.479  0.00  0.00     0.153 C 
BRANCH  14  15
HETATM   15  N   UNK N   1      33.973  11.289  21.004  0.00  0.00    -0.412 N 
HETATM   16  H   UNK N   1      33.411  12.136  21.099  0.00  0.00     0.153 HD
BRANCH  15  17
HETATM   17  C   UNK N   1      33.557   9.944  21.372  0.00  0.00     0.174 C 
BRANCH  17  18
HETATM   18  C   UNK N   1      32.943   9.967  22.730  0.00  0.00     0.057 A 
HETATM   19  C   UNK N   1      32.248   8.947  23.335  0.00  0.00     0.132 A 
HETATM   20  N   UNK N   1      31.887   9.403  24.551  0.00  0.00    -0.293 N 
HETATM   21  N   UNK N   1      32.344  10.641  24.671  0.00  0.00    -0.023 NA
ATOM     22  HN  UNK N   1      31.358   8.887  25.253  1.00  0.00     0.183 HD
HETATM   23  N   UNK N   1      32.988  11.007  23.576  0.00  0.00    -0.285 N 
HETATM   24  H   UNK N   1      33.419  11.878  23.412  0.00  0.00     0.184 HD
ENDBRANCH  17  18
ENDBRANCH  15  17
ENDBRANCH  14  15
ENDBRANCH  11  14
ENDBRANCH   4   8
BRANCH   1  25
HETATM   25  N   UNK N   1      35.494  14.104  10.913  0.00  0.00    -0.291 N 
HETATM   26  C   UNK N   1      34.236  14.599  10.437  0.00  0.00     0.168 A 
HETATM   27  C   UNK N   1      34.616  15.233   9.084  0.00  0.00     0.170 A 
HETATM   28  O   UNK N   1      35.958  14.918   8.903  0.00  0.00    -0.295 OA
HETATM   29  C   UNK N   1      36.427  14.288   9.981  0.00  0.00     0.368 A 
HETATM   30  O   UNK N   1      37.610  14.015  10.130  0.00  0.00    -0.238 OA
BRANCH  27  31
HETATM   31  C   UNK N   1      34.464  16.736   9.265  0.00  0.00     0.156 C 
BRANCH  31  32
HETATM   32  N   UNK N   1      33.074  17.101   9.353  0.00  0.00    -0.359 N 
HETATM   33  C   UNK N   1      32.390  17.603   8.295  0.00  0.00     0.213 C 
HETATM   34  C   UNK N   1      30.957  17.964   8.458  0.00  0.00     0.117 C 
HETATM   35  O   UNK N   1      32.936  17.766   7.214  0.00  0.00    -0.274 OA
HETATM   36  H   UNK N   1      32.604  16.982  10.209  0.00  0.00     0.162 HD
ENDBRANCH  31  32
ENDBRANCH  27  31
ENDBRANCH   1  25
TORSDOF 8
ENDMDL
MODEL 4
REMARK VINA RESULT:      -8.1      2.873      5.373
REMARK  8 active torsions:
REMARK  status: ('A' for Active; 'I' for Inactive)
REMARK       I    between atoms: C_2  and  N_4 
REMARK    1  A    between atoms: N_4  and  C_5 
REMARK    2  A    between atoms: C_6  and  C_5 
REMARK    3  A    between atoms: N_8  and  C_12 
REMARK    4  A    between atoms: C_15  and  C_19 
REMARK    5  A    between atoms: C_22  and  C_25 
REMARK    6  A    between atoms: C_25  and  N_26 
REMARK    7  A    between atoms: N_26  and  C_27 
REMARK    8  A    between atoms: C_27  and  C_28 
ROOT
HETATM    1  C   UNK N   1      34.464  15.593   9.931  0.00  0.00     0.042 A 
HETATM    2  C   UNK N   1      33.365  14.791   9.621  0.00  0.00     0.031 A 
HETATM    3  C   UNK N   1      32.370  15.252   8.785  0.00  0.00     0.017 A 
HETATM    4  C   UNK N   1      32.418  16.545   8.257  0.00  0.00     0.013 A 
HETATM    5  C   UNK N   1      33.492  17.395   8.618  0.00  0.00     0.129 A 
HETATM    6  C   UNK N   1      34.522  16.904   9.431  0.00  0.00     0.073 A 
HETATM    7  F   UNK N   1      33.588  18.660   8.136  0.00  0.00    -0.205 F 
ENDROOT
BRANCH   4   8
HETATM    8  C   UNK N   1      31.345  16.943   7.321  0.00  0.00    -0.023 A 
HETATM    9  C   UNK N   1      30.146  17.476   7.833  0.00  0.00     0.013 A 
HETATM   10  C   UNK N   1      29.110  17.851   6.980  0.00  0.00     0.009 A 
HETATM   11  C   UNK N   1      29.266  17.723   5.601  0.00  0.00    -0.041 A 
HETATM   12  C   UNK N   1      30.459  17.196   5.089  0.00  0.00     0.009 A 
HETATM   13  C   UNK N   1      31.484  16.793   5.940  0.00  0.00     0.013 A 
BRANCH  11  14
HETATM   14  C   UNK N   1      28.154  18.164   4.696  0.00  0.00     0.153 C 
BRANCH  14  15
HETATM   15  N   UNK N   1      28.346  19.531   4.228  0.00  0.00    -0.412 N 
HETATM   16  H   UNK N   1      29.083  19.850   3.601  0.00  0.00     0.153 HD
BRANCH  15  17
HETATM   17  C   UNK N   1      27.304  20.363   4.812  0.00  0.00     0.174 C 
BRANCH  17  18
HETATM   18  C   UNK N   1      26.123  20.394   3.902  0.00  0.00     0.057 A 
HETATM   19  C   UNK N   1      24.869  19.896   4.166  0.00  0.00     0.132 A 
HETATM   20  N   UNK N   1      24.123  20.149   3.072  0.00  0.00    -0.293 N 
HETATM   21  N   UNK N   1      24.894  20.770   2.192  0.00  0.00    -0.023 NA
ATOM     22  HN  UNK N   1      23.142  19.906   2.946  1.00  0.00     0.183 HD
HETATM   23  N   UNK N   1      26.115  20.929   2.672  0.00  0.00    -0.285 N 
HETATM   24  H   UNK N   1      26.875  21.358   2.215  0.00  0.00     0.184 HD
ENDBRANCH  17  18
ENDBRANCH  15  17
ENDBRANCH  14  15
ENDBRANCH  11  14
ENDBRANCH   4   8
BRANCH   1  25
HETATM   25  N   UNK N   1      35.550  14.996  10.626  0.00  0.00    -0.291 N 
HETATM   26  C   UNK N   1      35.590  14.902  12.056  0.00  0.00     0.168 A 
HETATM   27  C   UNK N   1      36.742  13.906  12.294  0.00  0.00     0.170 A 
HETATM   28  O   UNK N   1      37.279  13.669  11.034  0.00  0.00    -0.295 OA
HETATM   29  C   UNK N   1      36.557  14.297  10.106  0.00  0.00     0.368 A 
HETATM   30  O   UNK N   1      36.741  14.149   8.906  0.00  0.00    -0.238 OA
BRANCH  27  31
HETATM   31  C   UNK N   1      36.096  12.633  12.822  0.00  0.00     0.156 C 
BRANCH  31  32
HETATM   32  N   UNK N   1      36.289  12.515  14.244  0.00  0.00    -0.359 N 
HETATM   33  C   UNK N   1      35.251  12.480  15.114  0.00  0.00     0.213 C 
HETATM   34  C   UNK N   1      35.524  12.362  16.571  0.00  0.00     0.117 C 
HETATM   35  O   UNK N   1      34.096  12.548  14.719  0.00  0.00    -0.274 OA
HETATM   36  H   UNK N   1      37.207  12.457  14.596  0.00  0.00     0.162 HD
ENDBRANCH  31  32
ENDBRANCH  27  31
ENDBRANCH   1  25
TORSDOF 8
ENDMDL
MODEL 5
REMARK VINA RESULT:      -8.0      7.831     15.434
REMARK  8 active torsions:
REMARK  status: ('A' for Active; 'I' for Inactive)
REMARK       I    between atoms: C_2  and  N_4 
REMARK    1  A    between atoms: N_4  and  C_5 
REMARK    2  A    between atoms: C_6  and  C_5 
REMARK    3  A    between atoms: N_8  and  C_12 
REMARK    4  A    between atoms: C_15  and  C_19 
REMARK    5  A    between atoms: C_22  and  C_25 
REMARK    6  A    between atoms: C_25  and  N_26 
REMARK    7  A    between atoms: N_26  and  C_27 
REMARK    8  A    between atoms: C_27  and  C_28 
ROOT
HETATM    1  C   UNK N   1      35.699  13.560  12.249  0.00  0.00     0.042 A 
HETATM    2  C   UNK N   1      35.002  12.418  12.644  0.00  0.00     0.031 A 
HETATM    3  C   UNK N   1      34.962  12.040  13.970  0.00  0.00     0.017 A 
HETATM    4  C   UNK N   1      35.647  12.768  14.945  0.00  0.00     0.013 A 
HETATM    5  C   UNK N   1      36.416  13.891  14.550  0.00  0.00     0.129 A 
HETATM    6  C   UNK N   1      36.415  14.295  13.209  0.00  0.00     0.073 A 
HETATM    7  F   UNK N   1      37.103  14.634  15.455  0.00  0.00    -0.205 F 
ENDROOT
BRANCH   4   8
HETATM    8  C   UNK N   1      35.506  12.334  16.351  0.00  0.00    -0.023 A 
HETATM    9  C   UNK N   1      35.702  10.979  16.678  0.00  0.00     0.013 A 
HETATM   10  C   UNK N   1      35.565  10.534  17.991  0.00  0.00     0.009 A 
HETATM   11  C   UNK N   1      35.254  11.441  19.002  0.00  0.00    -0.041 A 
HETATM   12  C   UNK N   1      35.062  12.791  18.681  0.00  0.00     0.009 A 
HETATM   13  C   UNK N   1      35.169  13.234  17.365  0.00  0.00     0.013 A 
BRANCH  11  14
HETATM   14  C   UNK N   1      35.146  10.950  20.415  0.00  0.00     0.153 C 
BRANCH  14  15
HETATM   15  N   UNK N   1      34.397   9.702  20.500  0.00  0.00    -0.412 N 
HETATM   16  H   UNK N   1      34.659   8.817  20.064  0.00  0.00     0.153 HD
BRANCH  15  17
HETATM   17  C   UNK N   1      33.213   9.935  21.312  0.00  0.00     0.174 C 
BRANCH  17  18
HETATM   18  C   UNK N   1      32.206   8.867  21.042  0.00  0.00     0.057 A 
HETATM   19  C   UNK N   1      32.140   7.631  21.639  0.00  0.00     0.132 A 
HETATM   20  N   UNK N   1      31.074   7.007  21.098  0.00  0.00    -0.293 N 
HETATM   21  N   UNK N   1      30.527   7.831  20.217  0.00  0.00    -0.023 NA
ATOM     22  HN  UNK N   1      30.748   6.069  21.328  1.00  0.00     0.183 HD
HETATM   23  N   UNK N   1      31.198   8.968  20.163  0.00  0.00    -0.285 N 
HETATM   24  H   UNK N   1      30.997   9.741  19.587  0.00  0.00     0.184 HD
ENDBRANCH  17  18
ENDBRANCH  15  17
ENDBRANCH  14  15
ENDBRANCH  11  14
ENDBRANCH   4   8
BRANCH   1  25
HETATM   25  N   UNK N   1      35.537  14.012  10.912  0.00  0.00    -0.291 N 
HETATM   26  C   UNK N   1      34.302  14.554  10.428  0.00  0.00     0.168 A 
HETATM   27  C   UNK N   1      34.718  15.196   9.090  0.00  0.00     0.170 A 
HETATM   28  O   UNK N   1      36.052  14.841   8.922  0.00  0.00    -0.295 OA
HETATM   29  C   UNK N   1      36.487  14.180   9.994  0.00  0.00     0.368 A 
HETATM   30  O   UNK N   1      37.658  13.868  10.154  0.00  0.00    -0.238 OA
BRANCH  27  31
HETATM   31  C   UNK N   1      34.612  16.701   9.294  0.00  0.00     0.156 C 
BRANCH  31  32
HETATM   32  N   UNK N   1      33.234  17.103   9.408  0.00  0.00    -0.359 N 
HETATM   33  C   UNK N   1      32.568  17.700   8.390  0.00  0.00     0.213 C 
HETATM   34  C   UNK N   1      31.147  18.094   8.580  0.00  0.00     0.117 C 
HETATM   35  O   UNK N   1      33.119  17.921   7.322  0.00  0.00    -0.274 OA
HETATM   36  H   UNK N   1      32.760  16.939  10.255  0.00  0.00     0.162 HD
ENDBRANCH  31  32
ENDBRANCH  27  31
ENDBRANCH   1  25
TORSDOF 8
ENDMDL
MODEL 6
REMARK VINA RESULT:      -7.8      8.764     16.165
REMARK  8 active torsions:
REMARK  status: ('A' for Active; 'I' for Inactive)
REMARK       I    between atoms: C_2  and  N_4 
REMARK    1  A    between atoms: N_4  and  C_5 
REMARK    2  A    between atoms: C_6  and  C_5 
REMARK    3  A    between atoms: N_8  and  C_12 
REMARK    4  A    between atoms: C_15  and  C_19 
REMARK    5  A    between atoms: C_22  and  C_25 
REMARK    6  A    between atoms: C_25  and  N_26 
REMARK    7  A    between atoms: N_26  and  C_27 
REMARK    8  A    between atoms: C_27  and  C_28 
ROOT
HETATM    1  C   UNK N   1      35.824  14.035  12.788  0.00  0.00     0.042 A 
HETATM    2  C   UNK N   1      36.511  14.557  13.884  0.00  0.00     0.031 A 
HETATM    3  C   UNK N   1      36.379  13.992  15.135  0.00  0.00     0.017 A 
HETATM    4  C   UNK N   1      35.528  12.905  15.345  0.00  0.00     0.013 A 
HETATM    5  C   UNK N   1      34.770  12.406  14.256  0.00  0.00     0.129 A 
HETATM    6  C   UNK N   1      34.944  12.956  12.980  0.00  0.00     0.073 A 
HETATM    7  F   UNK N   1      33.926  11.353  14.403  0.00  0.00    -0.205 F 
ENDROOT
BRANCH   4   8
HETATM    8  C   UNK N   1      35.488  12.317  16.701  0.00  0.00    -0.023 A 
HETATM    9  C   UNK N   1      35.721  10.937  16.862  0.00  0.00     0.013 A 
HETATM   10  C   UNK N   1      35.679  10.349  18.124  0.00  0.00     0.009 A 
HETATM   11  C   UNK N   1      35.429  11.134  19.248  0.00  0.00    -0.041 A 
HETATM   12  C   UNK N   1      35.200  12.508  19.091  0.00  0.00     0.009 A 
HETATM   13  C   UNK N   1      35.211  13.094  17.828  0.00  0.00     0.013 A 
BRANCH  11  14
HETATM   14  C   UNK N   1      35.423  10.490  20.602  0.00  0.00     0.153 C 
BRANCH  14  15
HETATM   15  N   UNK N   1      34.325  10.977  21.430  0.00  0.00    -0.412 N 
HETATM   16  H   UNK N   1      34.240  11.917  21.816  0.00  0.00     0.153 HD
BRANCH  15  17
HETATM   17  C   UNK N   1      33.373   9.892  21.609  0.00  0.00     0.174 C 
BRANCH  17  18
HETATM   18  C   UNK N   1      32.806   9.951  22.987  0.00  0.00     0.057 A 
HETATM   19  C   UNK N   1      32.109   8.957  23.632  0.00  0.00     0.132 A 
HETATM   20  N   UNK N   1      31.800   9.441  24.852  0.00  0.00    -0.293 N 
HETATM   21  N   UNK N   1      32.288  10.670  24.934  0.00  0.00    -0.023 NA
ATOM     22  HN  UNK N   1      31.284   8.949  25.580  1.00  0.00     0.183 HD
HETATM   23  N   UNK N   1      32.902  11.003  23.813  0.00  0.00    -0.285 N 
HETATM   24  H   UNK N   1      33.346  11.861  23.620  0.00  0.00     0.184 HD
ENDBRANCH  17  18
ENDBRANCH  15  17
ENDBRANCH  14  15
ENDBRANCH  11  14
ENDBRANCH   4   8
BRANCH   1  25
HETATM   25  N   UNK N   1      36.153  14.526  11.497  0.00  0.00    -0.291 N 
HETATM   26  C   UNK N   1      36.683  13.683  10.465  0.00  0.00     0.168 A 
HETATM   27  C   UNK N   1      36.546  14.564   9.209  0.00  0.00     0.170 A 
HETATM   28  O   UNK N   1      36.099  15.794   9.679  0.00  0.00    -0.295 OA
HETATM   29  C   UNK N   1      35.869  15.724  10.990  0.00  0.00     0.368 A 
HETATM   30  O   UNK N   1      35.349  16.631  11.625  0.00  0.00    -0.238 OA
BRANCH  27  31
HETATM   31  C   UNK N   1      35.462  13.918   8.357  0.00  0.00     0.156 C 
BRANCH  31  32
HETATM   32  N   UNK N   1      34.632  14.921   7.741  0.00  0.00    -0.359 N 
HETATM   33  C   UNK N   1      34.942  15.482   6.547  0.00  0.00     0.213 C 
HETATM   34  C   UNK N   1      34.042  16.516   5.972  0.00  0.00     0.117 C 
HETATM   35  O   UNK N   1      35.952  15.154   5.941  0.00  0.00    -0.274 OA
HETATM   36  H   UNK N   1      33.811  15.207   8.203  0.00  0.00     0.162 HD
ENDBRANCH  31  32
ENDBRANCH  27  31
ENDBRANCH   1  25
TORSDOF 8
ENDMDL
MODEL 7
REMARK VINA RESULT:      -7.8      4.221     12.222
REMARK  8 active torsions:
REMARK  status: ('A' for Active; 'I' for Inactive)
REMARK       I    between atoms: C_2  and  N_4 
REMARK    1  A    between atoms: N_4  and  C_5 
REMARK    2  A    between atoms: C_6  and  C_5 
REMARK    3  A    between atoms: N_8  and  C_12 
REMARK    4  A    between atoms: C_15  and  C_19 
REMARK    5  A    between atoms: C_22  and  C_25 
REMARK    6  A    between atoms: C_25  and  N_26 
REMARK    7  A    between atoms: N_26  and  C_27 
REMARK    8  A    between atoms: C_27  and  C_28 
ROOT
HETATM    1  C   UNK N   1      24.315  18.982   4.256  0.00  0.00     0.042 A 
HETATM    2  C   UNK N   1      24.737  17.652   4.286  0.00  0.00     0.031 A 
HETATM    3  C   UNK N   1      26.021  17.329   4.671  0.00  0.00     0.017 A 
HETATM    4  C   UNK N   1      26.942  18.324   5.007  0.00  0.00     0.013 A 
HETATM    5  C   UNK N   1      26.549  19.682   4.915  0.00  0.00     0.129 A 
HETATM    6  C   UNK N   1      25.230  20.001   4.567  0.00  0.00     0.073 A 
HETATM    7  F   UNK N   1      27.403  20.690   5.227  0.00  0.00    -0.205 F 
ENDROOT
BRANCH   4   8
HETATM    8  C   UNK N   1      28.279  17.893   5.468  0.00  0.00    -0.023 A 
HETATM    9  C   UNK N   1      28.502  17.687   6.843  0.00  0.00     0.013 A 
HETATM   10  C   UNK N   1      29.752  17.293   7.312  0.00  0.00     0.009 A 
HETATM   11  C   UNK N   1      30.794  17.074   6.413  0.00  0.00    -0.041 A 
HETATM   12  C   UNK N   1      30.575  17.275   5.043  0.00  0.00     0.009 A 
HETATM   13  C   UNK N   1      29.334  17.698   4.574  0.00  0.00     0.013 A 
BRANCH  11  14
HETATM   14  C   UNK N   1      32.124  16.615   6.932  0.00  0.00     0.153 C 
BRANCH  14  15
HETATM   15  N   UNK N   1      32.182  16.660   8.388  0.00  0.00    -0.412 N 
HETATM   16  H   UNK N   1      31.771  17.382   8.981  0.00  0.00     0.153 HD
BRANCH  15  17
HETATM   17  C   UNK N   1      32.929  15.501   8.851  0.00  0.00     0.174 C 
BRANCH  17  18
HETATM   18  C   UNK N   1      34.149  15.953   9.580  0.00  0.00     0.057 A 
HETATM   19  C   UNK N   1      35.137  15.153  10.104  0.00  0.00     0.132 A 
HETATM   20  N   UNK N   1      36.040  15.984  10.662  0.00  0.00    -0.293 N 
HETATM   21  N   UNK N   1      35.613  17.225  10.483  0.00  0.00    -0.023 NA
ATOM     22  HN  UNK N   1      36.898  15.706  11.137  1.00  0.00     0.183 HD
HETATM   23  N   UNK N   1      34.465  17.233   9.829  0.00  0.00    -0.285 N 
HETATM   24  H   UNK N   1      33.940  18.026   9.573  0.00  0.00     0.184 HD
ENDBRANCH  17  18
ENDBRANCH  15  17
ENDBRANCH  14  15
ENDBRANCH  11  14
ENDBRANCH   4   8
BRANCH   1  25
HETATM   25  N   UNK N   1      22.933  19.239   4.051  0.00  0.00    -0.291 N 
HETATM   26  C   UNK N   1      22.459  20.131   3.034  0.00  0.00     0.168 A 
HETATM   27  C   UNK N   1      20.952  19.811   2.983  0.00  0.00     0.170 A 
HETATM   28  O   UNK N   1      20.740  18.913   4.023  0.00  0.00    -0.295 OA
HETATM   29  C   UNK N   1      21.901  18.597   4.596  0.00  0.00     0.368 A 
HETATM   30  O   UNK N   1      22.007  17.730   5.452  0.00  0.00    -0.238 OA
BRANCH  27  31
HETATM   31  C   UNK N   1      20.713  19.117   1.650  0.00  0.00     0.156 C 
BRANCH  31  32
HETATM   32  N   UNK N   1      20.375  17.732   1.851  0.00  0.00    -0.359 N 
HETATM   33  C   UNK N   1      20.181  16.877   0.817  0.00  0.00     0.213 C 
HETATM   34  C   UNK N   1      19.828  15.461   1.097  0.00  0.00     0.117 C 
HETATM   35  O   UNK N   1      20.286  17.257  -0.341  0.00  0.00    -0.274 OA
HETATM   36  H   UNK N   1      20.283  17.393   2.771  0.00  0.00     0.162 HD
ENDBRANCH  31  32
ENDBRANCH  27  31
ENDBRANCH   1  25
TORSDOF 8
ENDMDL
MODEL 8
REMARK VINA RESULT:      -7.7      2.162      2.942
REMARK  8 active torsions:
REMARK  status: ('A' for Active; 'I' for Inactive)
REMARK       I    between atoms: C_2  and  N_4 
REMARK    1  A    between atoms: N_4  and  C_5 
REMARK    2  A    between atoms: C_6  and  C_5 
REMARK    3  A    between atoms: N_8  and  C_12 
REMARK    4  A    between atoms: C_15  and  C_19 
REMARK    5  A    between atoms: C_22  and  C_25 
REMARK    6  A    between atoms: C_25  and  N_26 
REMARK    7  A    between atoms: N_26  and  C_27 
REMARK    8  A    between atoms: C_27  and  C_28 
ROOT
HETATM    1  C   UNK N   1      32.167  17.211   7.894  0.00  0.00     0.042 A 
HETATM    2  C   UNK N   1      31.012  17.659   8.536  0.00  0.00     0.031 A 
HETATM    3  C   UNK N   1      29.804  17.692   7.871  0.00  0.00     0.017 A 
HETATM    4  C   UNK N   1      29.711  17.313   6.530  0.00  0.00     0.013 A 
HETATM    5  C   UNK N   1      30.888  16.921   5.845  0.00  0.00     0.129 A 
HETATM    6  C   UNK N   1      32.103  16.847   6.538  0.00  0.00     0.073 A 
HETATM    7  F   UNK N   1      30.857  16.544   4.541  0.00  0.00    -0.205 F 
ENDROOT
BRANCH   4   8
HETATM    8  C   UNK N   1      28.371  17.318   5.906  0.00  0.00    -0.023 A 
HETATM    9  C   UNK N   1      27.792  18.543   5.524  0.00  0.00     0.013 A 
HETATM   10  C   UNK N   1      26.526  18.585   4.945  0.00  0.00     0.009 A 
HETATM   11  C   UNK N   1      25.828  17.401   4.715  0.00  0.00    -0.041 A 
HETATM   12  C   UNK N   1      26.403  16.179   5.091  0.00  0.00     0.009 A 
HETATM   13  C   UNK N   1      27.656  16.137   5.698  0.00  0.00     0.013 A 
BRANCH  11  14
HETATM   14  C   UNK N   1      24.482  17.462   4.058  0.00  0.00     0.153 C 
BRANCH  14  15
HETATM   15  N   UNK N   1      23.528  18.233   4.847  0.00  0.00    -0.412 N 
HETATM   16  H   UNK N   1      23.736  18.741   5.707  0.00  0.00     0.153 HD
BRANCH  15  17
HETATM   17  C   UNK N   1      22.228  18.152   4.197  0.00  0.00     0.174 C 
BRANCH  17  18
HETATM   18  C   UNK N   1      21.923  19.452   3.533  0.00  0.00     0.057 A 
HETATM   19  C   UNK N   1      20.680  20.013   3.358  0.00  0.00     0.132 A 
HETATM   20  N   UNK N   1      20.880  21.184   2.722  0.00  0.00    -0.293 N 
HETATM   21  N   UNK N   1      22.182  21.319   2.522  0.00  0.00    -0.023 NA
ATOM     22  HN  UNK N   1      20.157  21.847   2.444  1.00  0.00     0.183 HD
HETATM   23  N   UNK N   1      22.838  20.278   3.004  0.00  0.00    -0.285 N 
HETATM   24  H   UNK N   1      23.812  20.135   2.981  0.00  0.00     0.184 HD
ENDBRANCH  17  18
ENDBRANCH  15  17
ENDBRANCH  14  15
ENDBRANCH  11  14
ENDBRANCH   4   8
BRANCH   1  25
HETATM   25  N   UNK N   1      33.331  17.007   8.681  0.00  0.00    -0.291 N 
HETATM   26  C   UNK N   1      33.531  15.824   9.466  0.00  0.00     0.168 A 
HETATM   27  C   UNK N   1      35.025  15.914   9.834  0.00  0.00     0.170 A 
HETATM   28  O   UNK N   1      35.441  17.148   9.346  0.00  0.00    -0.295 OA
HETATM   29  C   UNK N   1      34.447  17.733   8.678  0.00  0.00     0.368 A 
HETATM   30  O   UNK N   1      34.591  18.768   8.042  0.00  0.00    -0.238 OA
BRANCH  27  31
HETATM   31  C   UNK N   1      35.717  14.800   9.061  0.00  0.00     0.156 C 
BRANCH  31  32
HETATM   32  N   UNK N   1      36.231  13.800   9.960  0.00  0.00    -0.359 N 
HETATM   33  C   UNK N   1      37.554  13.683  10.232  0.00  0.00     0.213 C 
HETATM   34  C   UNK N   1      38.016  12.623  11.166  0.00  0.00     0.117 C 
HETATM   35  O   UNK N   1      38.370  14.433   9.716  0.00  0.00    -0.274 OA
HETATM   36  H   UNK N   1      35.601  13.180  10.393  0.00  0.00     0.162 HD
ENDBRANCH  31  32
ENDBRANCH  27  31
ENDBRANCH   1  25
TORSDOF 8
ENDMDL
MODEL 9
REMARK VINA RESULT:      -7.7      3.979     12.012
REMARK  8 active torsions:
REMARK  status: ('A' for Active; 'I' for Inactive)
REMARK       I    between atoms: C_2  and  N_4 
REMARK    1  A    between atoms: N_4  and  C_5 
REMARK    2  A    between atoms: C_6  and  C_5 
REMARK    3  A    between atoms: N_8  and  C_12 
REMARK    4  A    between atoms: C_15  and  C_19 
REMARK    5  A    between atoms: C_22  and  C_25 
REMARK    6  A    between atoms: C_25  and  N_26 
REMARK    7  A    between atoms: N_26  and  C_27 
REMARK    8  A    between atoms: C_27  and  C_28 
ROOT
HETATM    1  C   UNK N   1      25.782  16.987   5.111  0.00  0.00     0.042 A 
HETATM    2  C   UNK N   1      26.356  16.021   5.938  0.00  0.00     0.031 A 
HETATM    3  C   UNK N   1      27.639  16.176   6.419  0.00  0.00     0.017 A 
HETATM    4  C   UNK N   1      28.410  17.285   6.062  0.00  0.00     0.013 A 
HETATM    5  C   UNK N   1      27.866  18.240   5.168  0.00  0.00     0.129 A 
HETATM    6  C   UNK N   1      26.546  18.099   4.720  0.00  0.00     0.073 A 
HETATM    7  F   UNK N   1      28.571  19.336   4.786  0.00  0.00    -0.205 F 
ENDROOT
BRANCH   4   8
HETATM    8  C   UNK N   1      29.753  17.410   6.666  0.00  0.00    -0.023 A 
HETATM    9  C   UNK N   1      30.890  17.116   5.889  0.00  0.00     0.013 A 
HETATM   10  C   UNK N   1      32.170  17.212   6.431  0.00  0.00     0.009 A 
HETATM   11  C   UNK N   1      32.335  17.627   7.751  0.00  0.00    -0.041 A 
HETATM   12  C   UNK N   1      31.206  17.923   8.526  0.00  0.00     0.009 A 
HETATM   13  C   UNK N   1      29.924  17.799   7.996  0.00  0.00     0.013 A 
BRANCH  11  14
HETATM   14  C   UNK N   1      33.722  17.759   8.307  0.00  0.00     0.153 C 
BRANCH  14  15
HETATM   15  N   UNK N   1      33.836  17.154   9.628  0.00  0.00    -0.412 N 
HETATM   16  H   UNK N   1      33.709  17.636  10.518  0.00  0.00     0.153 HD
BRANCH  15  17
HETATM   17  C   UNK N   1      34.163  15.747   9.459  0.00  0.00     0.174 C 
BRANCH  17  18
HETATM   18  C   UNK N   1      34.704  15.204  10.739  0.00  0.00     0.057 A 
HETATM   19  C   UNK N   1      35.733  15.729  11.484  0.00  0.00     0.132 A 
HETATM   20  N   UNK N   1      35.874  14.924  12.556  0.00  0.00    -0.293 N 
HETATM   21  N   UNK N   1      34.971  13.959  12.458  0.00  0.00    -0.023 NA
ATOM     22  HN  UNK N   1      36.553  15.037  13.307  1.00  0.00     0.183 HD
HETATM   23  N   UNK N   1      34.249  14.107  11.361  0.00  0.00    -0.285 N 
HETATM   24  H   UNK N   1      33.516  13.522  11.058  0.00  0.00     0.184 HD
ENDBRANCH  17  18
ENDBRANCH  15  17
ENDBRANCH  14  15
ENDBRANCH  11  14
ENDBRANCH   4   8
BRANCH   1  25
HETATM   25  N   UNK N   1      24.397  16.875   4.816  0.00  0.00    -0.291 N 
HETATM   26  C   UNK N   1      23.381  17.408   5.675  0.00  0.00     0.168 A 
HETATM   27  C   UNK N   1      22.124  17.349   4.786  0.00  0.00     0.170 A 
HETATM   28  O   UNK N   1      22.533  16.696   3.629  0.00  0.00    -0.295 OA
HETATM   29  C   UNK N   1      23.844  16.459   3.679  0.00  0.00     0.368 A 
HETATM   30  O   UNK N   1      24.475  16.010   2.732  0.00  0.00    -0.238 OA
BRANCH  27  31
HETATM   31  C   UNK N   1      21.771  18.793   4.460  0.00  0.00     0.156 C 
BRANCH  31  32
HETATM   32  N   UNK N   1      21.366  18.921   3.084  0.00  0.00    -0.359 N 
HETATM   33  C   UNK N   1      21.302  20.121   2.458  0.00  0.00     0.213 C 
HETATM   34  C   UNK N   1      20.870  20.180   1.036  0.00  0.00     0.117 C 
HETATM   35  O   UNK N   1      21.587  21.154   3.046  0.00  0.00    -0.274 OA
HETATM   36  H   UNK N   1      21.130  18.109   2.581  0.00  0.00     0.162 HD
ENDBRANCH  31  32
ENDBRANCH  27  31
ENDBRANCH   1  25
TORSDOF 8
ENDMDL
