MODEL 1
REMARK VINA RESULT:      -5.8      0.000      0.000
REMARK  10 active torsions:
REMARK  status: ('A' for Active; 'I' for Inactive)
REMARK    1  A    between atoms: P_4  and  N_15 
REMARK    2  A    between atoms: C_7  and  S_8 
REMARK    3  A    between atoms: S_8  and  C_9 
REMARK    4  A    between atoms: C_9  and  C_10 
REMARK    5  A    between atoms: C_10  and  S_11 
REMARK    6  A    between atoms: S_11  and  O_14 
REMARK    7  A    between atoms: N_15  and  C_16 
REMARK    8  A    between atoms: N_15  and  C_19 
REMARK    9  A    between atoms: C_16  and  C_17 
REMARK   10  A    between atoms: C_19  and  C_20 
ROOT
HETATM    1  C   UNK N   1      25.518  25.358  -5.296  0.00  0.00     0.063 C 
HETATM    2  C   UNK N   1      25.305  26.698  -6.001  0.00  0.00     0.182 C 
HETATM    3  O   UNK N   1      25.293  27.726  -5.033  0.00  0.00    -0.307 OA
HETATM    4  P   UNK N   1      26.975  28.112  -4.697  0.00  0.00     0.366 P 
HETATM    5  O   UNK N   1      26.228  29.360  -4.144  0.00  0.00    -0.248 OA
HETATM    6  N   UNK N   1      26.451  26.789  -3.567  0.00  0.00    -0.325 N 
HETATM    7  C   UNK N   1      26.665  25.555  -4.311  0.00  0.00     0.150 C 
HETATM    8  H   UNK N   1      26.086  26.889  -2.620  0.00  0.00     0.165 HD
ENDROOT
BRANCH   4   9
HETATM    9  N   UNK N   1      27.985  28.356  -3.189  0.00  0.00    -0.221 NA
BRANCH   9  10
HETATM   10  C   UNK N   1      27.509  29.557  -2.503  0.00  0.00     0.116 C 
BRANCH  10  11
HETATM   11  C   UNK N   1      28.592  30.113  -1.595  0.00  0.00     0.129 C 
HETATM   12 Cl   UNK N   1      28.191  29.746   0.096  0.00  0.00    -0.129 Cl
ENDBRANCH  10  11
ENDBRANCH   9  10
BRANCH   9  13
HETATM   13  C   UNK N   1      29.369  28.671  -3.563  0.00  0.00     0.116 C 
BRANCH  13  14
HETATM   14  C   UNK N   1      29.960  27.506  -4.337  0.00  0.00     0.129 C 
HETATM   15 Cl   UNK N   1      31.006  26.536  -3.275  0.00  0.00    -0.129 Cl
ENDBRANCH  13  14
ENDBRANCH   9  13
ENDBRANCH   4   9
BRANCH   7  16
HETATM   16  S   UNK N   1      27.092  24.170  -3.192  0.00  0.00    -0.143 SA
BRANCH  16  17
HETATM   17  C   UNK N   1      28.767  23.816  -3.786  0.00  0.00     0.092 C 
BRANCH  17  18
HETATM   18  C   UNK N   1      29.403  22.845  -2.805  0.00  0.00     0.165 C 
BRANCH  18  19
HETATM   19  S   UNK N   1      31.191  22.727  -3.086  0.00  0.00     0.094 S 
HETATM   20  O   UNK N   1      31.949  21.751  -2.177  0.00  0.00    -0.601 OA
HETATM   21  O   UNK N   1      30.498  21.433  -3.538  0.00  0.00    -0.601 OA
BRANCH  19  22
HETATM   22  O   UNK N   1      30.592  23.105  -1.522  0.00  0.00    -0.296 OA
HETATM   23  H   UNK N   1      29.742  23.002  -1.066  0.00  0.00     0.232 HD
ENDBRANCH  19  22
ENDBRANCH  18  19
ENDBRANCH  17  18
ENDBRANCH  16  17
ENDBRANCH   7  16
TORSDOF 10
ENDMDL
MODEL 2
REMARK VINA RESULT:      -5.4     13.934     15.747
REMARK  10 active torsions:
REMARK  status: ('A' for Active; 'I' for Inactive)
REMARK    1  A    between atoms: P_4  and  N_15 
REMARK    2  A    between atoms: C_7  and  S_8 
REMARK    3  A    between atoms: S_8  and  C_9 
REMARK    4  A    between atoms: C_9  and  C_10 
REMARK    5  A    between atoms: C_10  and  S_11 
REMARK    6  A    between atoms: S_11  and  O_14 
REMARK    7  A    between atoms: N_15  and  C_16 
REMARK    8  A    between atoms: N_15  and  C_19 
REMARK    9  A    between atoms: C_16  and  C_17 
REMARK   10  A    between atoms: C_19  and  C_20 
ROOT
HETATM    1  C   UNK N   1      31.521  17.109   4.100  0.00  0.00     0.063 C 
HETATM    2  C   UNK N   1      32.993  17.503   3.978  0.00  0.00     0.182 C 
HETATM    3  O   UNK N   1      33.409  18.096   5.190  0.00  0.00    -0.307 OA
HETATM    4  P   UNK N   1      33.800  16.774   6.281  0.00  0.00     0.366 P 
HETATM    5  O   UNK N   1      34.512  17.984   6.952  0.00  0.00    -0.248 OA
HETATM    6  N   UNK N   1      32.039  17.178   6.474  0.00  0.00    -0.325 N 
HETATM    7  C   UNK N   1      31.363  16.403   5.442  0.00  0.00     0.150 C 
HETATM    8  H   UNK N   1      31.618  17.809   7.155  0.00  0.00     0.165 HD
ENDROOT
BRANCH   4   9
HETATM    9  N   UNK N   1      33.411  16.355   8.021  0.00  0.00    -0.221 NA
BRANCH   9  10
HETATM   10  C   UNK N   1      34.452  16.925   8.877  0.00  0.00     0.116 C 
BRANCH  10  11
HETATM   11  C   UNK N   1      34.537  16.160  10.187  0.00  0.00     0.129 C 
HETATM   12 Cl   UNK N   1      36.237  15.782  10.540  0.00  0.00    -0.129 Cl
ENDBRANCH  10  11
ENDBRANCH   9  10
BRANCH   9  13
HETATM   13  C   UNK N   1      33.524  14.906   8.221  0.00  0.00     0.116 C 
BRANCH  13  14
HETATM   14  C   UNK N   1      34.272  14.292   7.050  0.00  0.00     0.129 C 
HETATM   15 Cl   UNK N   1      35.888  13.762   7.568  0.00  0.00    -0.129 Cl
ENDBRANCH  13  14
ENDBRANCH   9  13
ENDBRANCH   4   9
BRANCH   7  16
HETATM   16  S   UNK N   1      29.679  15.918   5.972  0.00  0.00    -0.143 SA
BRANCH  16  17
HETATM   17  C   UNK N   1      29.072  17.529   6.538  0.00  0.00     0.092 C 
BRANCH  17  18
HETATM   18  C   UNK N   1      28.685  17.382   8.001  0.00  0.00     0.165 C 
BRANCH  18  19
HETATM   19  S   UNK N   1      29.459  18.682   9.003  0.00  0.00     0.094 S 
HETATM   20  O   UNK N   1      29.408  18.474  10.522  0.00  0.00    -0.601 OA
HETATM   21  O   UNK N   1      30.293  17.394   9.070  0.00  0.00    -0.601 OA
BRANCH  19  22
HETATM   22  O   UNK N   1      27.823  18.242   9.284  0.00  0.00    -0.296 OA
HETATM   23  H   UNK N   1      26.972  18.450   8.867  0.00  0.00     0.232 HD
ENDBRANCH  19  22
ENDBRANCH  18  19
ENDBRANCH  17  18
ENDBRANCH  16  17
ENDBRANCH   7  16
TORSDOF 10
ENDMDL
MODEL 3
REMARK VINA RESULT:      -5.4     15.538     16.843
REMARK  10 active torsions:
REMARK  status: ('A' for Active; 'I' for Inactive)
REMARK    1  A    between atoms: P_4  and  N_15 
REMARK    2  A    between atoms: C_7  and  S_8 
REMARK    3  A    between atoms: S_8  and  C_9 
REMARK    4  A    between atoms: C_9  and  C_10 
REMARK    5  A    between atoms: C_10  and  S_11 
REMARK    6  A    between atoms: S_11  and  O_14 
REMARK    7  A    between atoms: N_15  and  C_16 
REMARK    8  A    between atoms: N_15  and  C_19 
REMARK    9  A    between atoms: C_16  and  C_17 
REMARK   10  A    between atoms: C_19  and  C_20 
ROOT
HETATM    1  C   UNK N   1      20.144  15.114   8.904  0.00  0.00     0.063 C 
HETATM    2  C   UNK N   1      19.539  16.506   8.724  0.00  0.00     0.182 C 
HETATM    3  O   UNK N   1      20.553  17.393   8.304  0.00  0.00    -0.307 OA
HETATM    4  P   UNK N   1      20.712  17.180   6.565  0.00  0.00     0.366 P 
HETATM    5  O   UNK N   1      21.410  18.551   6.799  0.00  0.00    -0.248 OA
HETATM    6  N   UNK N   1      21.825  16.008   7.392  0.00  0.00    -0.325 N 
HETATM    7  C   UNK N   1      20.999  14.840   7.671  0.00  0.00     0.150 C 
HETATM    8  H   UNK N   1      22.812  16.138   7.613  0.00  0.00     0.165 HD
ENDROOT
BRANCH   4   9
HETATM    9  N   UNK N   1      22.102  16.951   5.396  0.00  0.00    -0.221 NA
BRANCH   9  10
HETATM   10  C   UNK N   1      22.641  18.268   5.055  0.00  0.00     0.116 C 
BRANCH  10  11
HETATM   11  C   UNK N   1      23.821  18.129   4.109  0.00  0.00     0.129 C 
HETATM   12 Cl   UNK N   1      24.259  19.728   3.472  0.00  0.00    -0.129 Cl
ENDBRANCH  10  11
ENDBRANCH   9  10
BRANCH   9  13
HETATM   13  C   UNK N   1      21.600  16.419   4.124  0.00  0.00     0.116 C 
BRANCH  13  14
HETATM   14  C   UNK N   1      20.167  16.876   3.916  0.00  0.00     0.129 C 
HETATM   15 Cl   UNK N   1      20.068  17.949   2.502  0.00  0.00    -0.129 Cl
ENDBRANCH  13  14
ENDBRANCH   9  13
ENDBRANCH   4   9
BRANCH   7  16
HETATM   16  S   UNK N   1      21.988  13.300   7.628  0.00  0.00    -0.143 SA
BRANCH  16  17
HETATM   17  C   UNK N   1      21.553  12.624   9.251  0.00  0.00     0.092 C 
BRANCH  17  18
HETATM   18  C   UNK N   1      22.605  13.099  10.240  0.00  0.00     0.165 C 
BRANCH  18  19
HETATM   19  S   UNK N   1      23.526  11.692  10.922  0.00  0.00     0.094 S 
HETATM   20  O   UNK N   1      24.468  12.013  12.090  0.00  0.00    -0.601 OA
HETATM   21  O   UNK N   1      22.466  12.169  11.927  0.00  0.00    -0.601 OA
BRANCH  19  22
HETATM   22  O   UNK N   1      24.369  13.084  10.375  0.00  0.00    -0.296 OA
HETATM   23  H   UNK N   1      24.398  14.018  10.634  0.00  0.00     0.232 HD
ENDBRANCH  19  22
ENDBRANCH  18  19
ENDBRANCH  17  18
ENDBRANCH  16  17
ENDBRANCH   7  16
TORSDOF 10
ENDMDL
MODEL 4
REMARK VINA RESULT:      -5.3     14.642     17.138
REMARK  10 active torsions:
REMARK  status: ('A' for Active; 'I' for Inactive)
REMARK    1  A    between atoms: P_4  and  N_15 
REMARK    2  A    between atoms: C_7  and  S_8 
REMARK    3  A    between atoms: S_8  and  C_9 
REMARK    4  A    between atoms: C_9  and  C_10 
REMARK    5  A    between atoms: C_10  and  S_11 
REMARK    6  A    between atoms: S_11  and  O_14 
REMARK    7  A    between atoms: N_15  and  C_16 
REMARK    8  A    between atoms: N_15  and  C_19 
REMARK    9  A    between atoms: C_16  and  C_17 
REMARK   10  A    between atoms: C_19  and  C_20 
ROOT
HETATM    1  C   UNK N   1      34.637  17.156   9.127  0.00  0.00     0.063 C 
HETATM    2  C   UNK N   1      34.490  18.350   8.184  0.00  0.00     0.182 C 
HETATM    3  O   UNK N   1      34.510  17.883   6.851  0.00  0.00    -0.307 OA
HETATM    4  P   UNK N   1      32.879  17.334   6.492  0.00  0.00     0.366 P 
HETATM    5  O   UNK N   1      33.497  17.497   5.074  0.00  0.00    -0.248 OA
HETATM    6  N   UNK N   1      33.815  15.941   7.188  0.00  0.00    -0.325 N 
HETATM    7  C   UNK N   1      33.675  16.081   8.632  0.00  0.00     0.150 C 
HETATM    8  H   UNK N   1      34.326  15.220   6.680  0.00  0.00     0.165 HD
ENDROOT
BRANCH   4   9
HETATM    9  N   UNK N   1      32.138  15.844   5.728  0.00  0.00    -0.221 NA
BRANCH   9  10
HETATM   10  C   UNK N   1      32.019  16.073   4.288  0.00  0.00     0.116 C 
BRANCH  10  11
HETATM   11  C   UNK N   1      30.858  15.277   3.719  0.00  0.00     0.129 C 
HETATM   12 Cl   UNK N   1      29.838  16.343   2.731  0.00  0.00    -0.129 Cl
ENDBRANCH  10  11
ENDBRANCH   9  10
BRANCH   9  13
HETATM   13  C   UNK N   1      30.755  15.683   6.190  0.00  0.00     0.116 C 
BRANCH  13  14
HETATM   14  C   UNK N   1      30.329  16.928   6.949  0.00  0.00     0.129 C 
HETATM   15 Cl   UNK N   1      29.087  17.808   6.030  0.00  0.00    -0.129 Cl
ENDBRANCH  13  14
ENDBRANCH   9  13
ENDBRANCH   4   9
BRANCH   7  16
HETATM   16  S   UNK N   1      33.698  14.449   9.463  0.00  0.00    -0.143 SA
BRANCH  16  17
HETATM   17  C   UNK N   1      34.433  14.935  11.046  0.00  0.00     0.092 C 
BRANCH  17  18
HETATM   18  C   UNK N   1      35.011  13.681  11.683  0.00  0.00     0.165 C 
BRANCH  18  19
HETATM   19  S   UNK N   1      35.836  14.080  13.250  0.00  0.00     0.094 S 
HETATM   20  O   UNK N   1      36.333  12.881  14.068  0.00  0.00    -0.601 OA
HETATM   21  O   UNK N   1      36.856  13.538  12.236  0.00  0.00    -0.601 OA
BRANCH  19  22
HETATM   22  O   UNK N   1      34.491  13.012  13.237  0.00  0.00    -0.296 OA
HETATM   23  H   UNK N   1      34.371  12.054  13.329  0.00  0.00     0.232 HD
ENDBRANCH  19  22
ENDBRANCH  18  19
ENDBRANCH  17  18
ENDBRANCH  16  17
ENDBRANCH   7  16
TORSDOF 10
ENDMDL
MODEL 5
REMARK VINA RESULT:      -5.3     15.700     17.480
REMARK  10 active torsions:
REMARK  status: ('A' for Active; 'I' for Inactive)
REMARK    1  A    between atoms: P_4  and  N_15 
REMARK    2  A    between atoms: C_7  and  S_8 
REMARK    3  A    between atoms: S_8  and  C_9 
REMARK    4  A    between atoms: C_9  and  C_10 
REMARK    5  A    between atoms: C_10  and  S_11 
REMARK    6  A    between atoms: S_11  and  O_14 
REMARK    7  A    between atoms: N_15  and  C_16 
REMARK    8  A    between atoms: N_15  and  C_19 
REMARK    9  A    between atoms: C_16  and  C_17 
REMARK   10  A    between atoms: C_19  and  C_20 
ROOT
HETATM    1  C   UNK N   1      20.260  17.548   7.488  0.00  0.00     0.063 C 
HETATM    2  C   UNK N   1      19.706  17.014   8.809  0.00  0.00     0.182 C 
HETATM    3  O   UNK N   1      19.451  15.632   8.672  0.00  0.00    -0.307 OA
HETATM    4  P   UNK N   1      20.988  14.816   8.927  0.00  0.00     0.366 P 
HETATM    5  O   UNK N   1      19.960  13.664   9.122  0.00  0.00    -0.248 OA
HETATM    6  N   UNK N   1      20.831  15.208   7.160  0.00  0.00    -0.325 N 
HETATM    7  C   UNK N   1      21.337  16.569   7.033  0.00  0.00     0.150 C 
HETATM    8  H   UNK N   1      20.469  14.607   6.420  0.00  0.00     0.165 HD
ENDROOT
BRANCH   4   9
HETATM    9  N   UNK N   1      21.929  13.499   8.070  0.00  0.00    -0.221 NA
BRANCH   9  10
HETATM   10  C   UNK N   1      21.062  12.898   7.056  0.00  0.00     0.116 C 
BRANCH  10  11
HETATM   11  C   UNK N   1      21.639  11.575   6.584  0.00  0.00     0.129 C 
HETATM   12 Cl   UNK N   1      20.424  10.712   5.617  0.00  0.00    -0.129 Cl
ENDBRANCH  10  11
ENDBRANCH   9  10
BRANCH   9  13
HETATM   13  C   UNK N   1      22.215  12.404   9.004  0.00  0.00     0.116 C 
BRANCH  13  14
HETATM   14  C   UNK N   1      23.060  12.929  10.152  0.00  0.00     0.129 C 
HETATM   15 Cl   UNK N   1      22.730  11.994  11.628  0.00  0.00    -0.129 Cl
ENDBRANCH  13  14
ENDBRANCH   9  13
ENDBRANCH   4   9
BRANCH   7  16
HETATM   16  S   UNK N   1      22.116  16.838   5.399  0.00  0.00    -0.143 SA
BRANCH  16  17
HETATM   17  C   UNK N   1      21.515  18.513   5.057  0.00  0.00     0.092 C 
BRANCH  17  18
HETATM   18  C   UNK N   1      22.024  18.908   3.680  0.00  0.00     0.165 C 
BRANCH  18  19
HETATM   19  S   UNK N   1      20.971  20.195   2.952  0.00  0.00     0.094 S 
HETATM   20  O   UNK N   1      21.411  20.721   1.580  0.00  0.00    -0.601 OA
HETATM   21  O   UNK N   1      20.827  18.883   2.165  0.00  0.00    -0.601 OA
BRANCH  19  22
HETATM   22  O   UNK N   1      22.652  20.479   3.161  0.00  0.00    -0.296 OA
HETATM   23  H   UNK N   1      23.441  20.380   2.606  0.00  0.00     0.232 HD
ENDBRANCH  19  22
ENDBRANCH  18  19
ENDBRANCH  17  18
ENDBRANCH  16  17
ENDBRANCH   7  16
TORSDOF 10
ENDMDL
MODEL 6
REMARK VINA RESULT:      -5.3     11.470     13.421
REMARK  10 active torsions:
REMARK  status: ('A' for Active; 'I' for Inactive)
REMARK    1  A    between atoms: P_4  and  N_15 
REMARK    2  A    between atoms: C_7  and  S_8 
REMARK    3  A    between atoms: S_8  and  C_9 
REMARK    4  A    between atoms: C_9  and  C_10 
REMARK    5  A    between atoms: C_10  and  S_11 
REMARK    6  A    between atoms: S_11  and  O_14 
REMARK    7  A    between atoms: N_15  and  C_16 
REMARK    8  A    between atoms: N_15  and  C_19 
REMARK    9  A    between atoms: C_16  and  C_17 
REMARK   10  A    between atoms: C_19  and  C_20 
ROOT
HETATM    1  C   UNK N   1      29.671  17.403   8.417  0.00  0.00     0.063 C 
HETATM    2  C   UNK N   1      28.481  18.322   8.695  0.00  0.00     0.182 C 
HETATM    3  O   UNK N   1      28.355  19.240   7.630  0.00  0.00    -0.307 OA
HETATM    4  P   UNK N   1      27.477  18.404   6.355  0.00  0.00     0.366 P 
HETATM    5  O   UNK N   1      27.322  19.897   5.945  0.00  0.00    -0.248 OA
HETATM    6  N   UNK N   1      29.253  18.100   6.126  0.00  0.00    -0.325 N 
HETATM    7  C   UNK N   1      29.547  16.947   6.967  0.00  0.00     0.150 C 
HETATM    8  H   UNK N   1      29.902  18.622   5.537  0.00  0.00     0.165 HD
ENDROOT
BRANCH   4   9
HETATM    9  N   UNK N   1      27.686  18.187   4.549  0.00  0.00    -0.221 NA
BRANCH   9  10
HETATM   10  C   UNK N   1      27.150  19.370   3.876  0.00  0.00     0.116 C 
BRANCH  10  11
HETATM   11  C   UNK N   1      25.793  19.064   3.267  0.00  0.00     0.129 C 
HETATM   12 Cl   UNK N   1      25.066  20.567   2.660  0.00  0.00    -0.129 Cl
ENDBRANCH  10  11
ENDBRANCH   9  10
BRANCH   9  13
HETATM   13  C   UNK N   1      26.839  17.083   4.080  0.00  0.00     0.116 C 
BRANCH  13  14
HETATM   14  C   UNK N   1      27.718  15.934   3.621  0.00  0.00     0.129 C 
HETATM   15 Cl   UNK N   1      29.230  16.561   2.926  0.00  0.00    -0.129 Cl
ENDBRANCH  13  14
ENDBRANCH   9  13
ENDBRANCH   4   9
BRANCH   7  16
HETATM   16  S   UNK N   1      30.899  15.936   6.259  0.00  0.00    -0.143 SA
BRANCH  16  17
HETATM   17  C   UNK N   1      32.157  16.187   7.539  0.00  0.00     0.092 C 
BRANCH  17  18
HETATM   18  C   UNK N   1      32.960  17.419   7.154  0.00  0.00     0.165 C 
BRANCH  18  19
HETATM   19  S   UNK N   1      34.265  17.741   8.373  0.00  0.00     0.094 S 
HETATM   20  O   UNK N   1      34.977  19.095   8.248  0.00  0.00    -0.601 OA
HETATM   21  O   UNK N   1      33.052  18.646   8.642  0.00  0.00    -0.601 OA
BRANCH  19  22
HETATM   22  O   UNK N   1      34.614  17.847   6.695  0.00  0.00    -0.296 OA
HETATM   23  H   UNK N   1      34.939  17.233   6.018  0.00  0.00     0.232 HD
ENDBRANCH  19  22
ENDBRANCH  18  19
ENDBRANCH  17  18
ENDBRANCH  16  17
ENDBRANCH   7  16
TORSDOF 10
ENDMDL
MODEL 7
REMARK VINA RESULT:      -5.2      2.231      2.577
REMARK  10 active torsions:
REMARK  status: ('A' for Active; 'I' for Inactive)
REMARK    1  A    between atoms: P_4  and  N_15 
REMARK    2  A    between atoms: C_7  and  S_8 
REMARK    3  A    between atoms: S_8  and  C_9 
REMARK    4  A    between atoms: C_9  and  C_10 
REMARK    5  A    between atoms: C_10  and  S_11 
REMARK    6  A    between atoms: S_11  and  O_14 
REMARK    7  A    between atoms: N_15  and  C_16 
REMARK    8  A    between atoms: N_15  and  C_19 
REMARK    9  A    between atoms: C_16  and  C_17 
REMARK   10  A    between atoms: C_19  and  C_20 
ROOT
HETATM    1  C   UNK N   1      27.749  24.020  -4.685  0.00  0.00     0.063 C 
HETATM    2  C   UNK N   1      26.345  24.339  -4.171  0.00  0.00     0.182 C 
HETATM    3  O   UNK N   1      26.439  25.338  -3.178  0.00  0.00    -0.307 OA
HETATM    4  P   UNK N   1      26.532  26.875  -4.027  0.00  0.00     0.366 P 
HETATM    5  O   UNK N   1      26.130  27.311  -2.589  0.00  0.00    -0.248 OA
HETATM    6  N   UNK N   1      28.218  26.237  -3.805  0.00  0.00    -0.325 N 
HETATM    7  C   UNK N   1      28.438  25.356  -4.944  0.00  0.00     0.150 C 
HETATM    8  H   UNK N   1      28.868  26.450  -3.048  0.00  0.00     0.165 HD
ENDROOT
BRANCH   4   9
HETATM    9  N   UNK N   1      27.587  28.368  -3.919  0.00  0.00    -0.221 NA
BRANCH   9  10
HETATM   10  C   UNK N   1      27.142  29.166  -2.777  0.00  0.00     0.116 C 
BRANCH  10  11
HETATM   11  C   UNK N   1      28.294  29.987  -2.223  0.00  0.00     0.129 C 
HETATM   12 Cl   UNK N   1      28.283  29.900  -0.449  0.00  0.00    -0.129 Cl
ENDBRANCH  10  11
ENDBRANCH   9  10
BRANCH   9  13
HETATM   13  C   UNK N   1      27.351  29.230  -5.083  0.00  0.00     0.116 C 
BRANCH  13  14
HETATM   14  C   UNK N   1      27.089  28.366  -6.305  0.00  0.00     0.129 C 
HETATM   15 Cl   UNK N   1      28.397  28.576  -7.491  0.00  0.00    -0.129 Cl
ENDBRANCH  13  14
ENDBRANCH   9  13
ENDBRANCH   4   9
BRANCH   7  16
HETATM   16  S   UNK N   1      30.200  25.339  -5.441  0.00  0.00    -0.143 SA
BRANCH  16  17
HETATM   17  C   UNK N   1      30.540  23.568  -5.264  0.00  0.00     0.092 C 
BRANCH  17  18
HETATM   18  C   UNK N   1      31.599  23.412  -4.185  0.00  0.00     0.165 C 
BRANCH  18  19
HETATM   19  S   UNK N   1      31.257  21.959  -3.154  0.00  0.00     0.094 S 
HETATM   20  O   UNK N   1      32.260  21.688  -2.025  0.00  0.00    -0.601 OA
HETATM   21  O   UNK N   1      31.025  23.247  -2.349  0.00  0.00    -0.601 OA
BRANCH  19  22
HETATM   22  O   UNK N   1      32.777  22.116  -3.936  0.00  0.00    -0.296 OA
HETATM   23  H   UNK N   1      33.447  22.814  -4.006  0.00  0.00     0.232 HD
ENDBRANCH  19  22
ENDBRANCH  18  19
ENDBRANCH  17  18
ENDBRANCH  16  17
ENDBRANCH   7  16
TORSDOF 10
ENDMDL
MODEL 8
REMARK VINA RESULT:      -5.2      3.510      4.375
REMARK  10 active torsions:
REMARK  status: ('A' for Active; 'I' for Inactive)
REMARK    1  A    between atoms: P_4  and  N_15 
REMARK    2  A    between atoms: C_7  and  S_8 
REMARK    3  A    between atoms: S_8  and  C_9 
REMARK    4  A    between atoms: C_9  and  C_10 
REMARK    5  A    between atoms: C_10  and  S_11 
REMARK    6  A    between atoms: S_11  and  O_14 
REMARK    7  A    between atoms: N_15  and  C_16 
REMARK    8  A    between atoms: N_15  and  C_19 
REMARK    9  A    between atoms: C_16  and  C_17 
REMARK   10  A    between atoms: C_19  and  C_20 
ROOT
HETATM    1  C   UNK N   1      26.720  21.307  -8.183  0.00  0.00     0.063 C 
HETATM    2  C   UNK N   1      25.435  22.115  -8.364  0.00  0.00     0.182 C 
HETATM    3  O   UNK N   1      25.154  22.800  -7.162  0.00  0.00    -0.307 OA
HETATM    4  P   UNK N   1      26.136  24.259  -7.180  0.00  0.00     0.366 P 
HETATM    5  O   UNK N   1      25.068  24.588  -6.098  0.00  0.00    -0.248 OA
HETATM    6  N   UNK N   1      27.101  22.926  -6.411  0.00  0.00    -0.325 N 
HETATM    7  C   UNK N   1      27.736  22.234  -7.524  0.00  0.00     0.150 C 
HETATM    8  H   UNK N   1      27.180  22.711  -5.417  0.00  0.00     0.165 HD
ENDROOT
BRANCH   4   9
HETATM    9  N   UNK N   1      27.242  25.107  -5.993  0.00  0.00    -0.221 NA
BRANCH   9  10
HETATM   10  C   UNK N   1      26.414  25.814  -5.015  0.00  0.00     0.116 C 
BRANCH  10  11
HETATM   11  C   UNK N   1      27.077  25.797  -3.649  0.00  0.00     0.129 C 
HETATM   12 Cl   UNK N   1      27.161  24.126  -3.053  0.00  0.00    -0.129 Cl
ENDBRANCH  10  11
ENDBRANCH   9  10
BRANCH   9  13
HETATM   13  C   UNK N   1      27.987  26.169  -6.678  0.00  0.00     0.116 C 
BRANCH  13  14
HETATM   14  C   UNK N   1      27.034  27.285  -7.066  0.00  0.00     0.129 C 
HETATM   15 Cl   UNK N   1      27.826  28.864  -6.861  0.00  0.00    -0.129 Cl
ENDBRANCH  13  14
ENDBRANCH   9  13
ENDBRANCH   4   9
BRANCH   7  16
HETATM   16  S   UNK N   1      29.356  21.535  -7.035  0.00  0.00    -0.143 SA
BRANCH  16  17
HETATM   17  C   UNK N   1      29.553  22.345  -5.426  0.00  0.00     0.092 C 
BRANCH  17  18
HETATM   18  C   UNK N   1      30.784  21.749  -4.763  0.00  0.00     0.165 C 
BRANCH  18  19
HETATM   19  S   UNK N   1      30.877  22.244  -3.019  0.00  0.00     0.094 S 
HETATM   20  O   UNK N   1      32.088  21.716  -2.238  0.00  0.00    -0.601 OA
HETATM   21  O   UNK N   1      31.977  22.947  -3.830  0.00  0.00    -0.601 OA
BRANCH  19  22
HETATM   22  O   UNK N   1      30.921  20.580  -3.442  0.00  0.00    -0.296 OA
HETATM   23  H   UNK N   1      30.737  19.747  -2.980  0.00  0.00     0.232 HD
ENDBRANCH  19  22
ENDBRANCH  18  19
ENDBRANCH  17  18
ENDBRANCH  16  17
ENDBRANCH   7  16
TORSDOF 10
ENDMDL
MODEL 9
REMARK VINA RESULT:      -5.1     16.234     17.961
REMARK  10 active torsions:
REMARK  status: ('A' for Active; 'I' for Inactive)
REMARK    1  A    between atoms: P_4  and  N_15 
REMARK    2  A    between atoms: C_7  and  S_8 
REMARK    3  A    between atoms: S_8  and  C_9 
REMARK    4  A    between atoms: C_9  and  C_10 
REMARK    5  A    between atoms: C_10  and  S_11 
REMARK    6  A    between atoms: S_11  and  O_14 
REMARK    7  A    between atoms: N_15  and  C_16 
REMARK    8  A    between atoms: N_15  and  C_19 
REMARK    9  A    between atoms: C_16  and  C_17 
REMARK   10  A    between atoms: C_19  and  C_20 
ROOT
HETATM    1  C   UNK N   1      20.116  15.931   7.169  0.00  0.00     0.063 C 
HETATM    2  C   UNK N   1      19.623  15.914   8.617  0.00  0.00     0.182 C 
HETATM    3  O   UNK N   1      19.578  14.577   9.067  0.00  0.00    -0.307 OA
HETATM    4  P   UNK N   1      21.214  14.164   9.564  0.00  0.00     0.366 P 
HETATM    5  O   UNK N   1      20.365  13.061  10.259  0.00  0.00    -0.248 OA
HETATM    6  N   UNK N   1      21.032  13.770   7.800  0.00  0.00    -0.325 N 
HETATM    7  C   UNK N   1      21.333  15.015   7.106  0.00  0.00     0.150 C 
HETATM    8  H   UNK N   1      20.775  12.874   7.387  0.00  0.00     0.165 HD
ENDROOT
BRANCH   4   9
HETATM    9  N   UNK N   1      22.354  12.760   9.278  0.00  0.00    -0.221 NA
BRANCH   9  10
HETATM   10  C   UNK N   1      22.223  11.824  10.395  0.00  0.00     0.116 C 
BRANCH  10  11
HETATM   11  C   UNK N   1      23.471  11.854  11.260  0.00  0.00     0.129 C 
HETATM   12 Cl   UNK N   1      23.004  11.822  12.973  0.00  0.00    -0.129 Cl
ENDBRANCH  10  11
ENDBRANCH   9  10
BRANCH   9  13
HETATM   13  C   UNK N   1      23.744  13.225   9.350  0.00  0.00     0.116 C 
BRANCH  13  14
HETATM   14  C   UNK N   1      24.436  12.952   8.026  0.00  0.00     0.129 C 
HETATM   15 Cl   UNK N   1      25.240  14.427   7.443  0.00  0.00    -0.129 Cl
ENDBRANCH  13  14
ENDBRANCH   9  13
ENDBRANCH   4   9
BRANCH   7  16
HETATM   16  S   UNK N   1      22.092  14.698   5.470  0.00  0.00    -0.143 SA
BRANCH  16  17
HETATM   17  C   UNK N   1      21.088  15.814   4.457  0.00  0.00     0.092 C 
BRANCH  17  18
HETATM   18  C   UNK N   1      21.983  16.963   4.021  0.00  0.00     0.165 C 
BRANCH  18  19
HETATM   19  S   UNK N   1      21.177  18.559   4.334  0.00  0.00     0.094 S 
HETATM   20  O   UNK N   1      21.937  19.799   3.846  0.00  0.00    -0.601 OA
HETATM   21  O   UNK N   1      21.160  18.242   2.830  0.00  0.00    -0.601 OA
BRANCH  19  22
HETATM   22  O   UNK N   1      22.777  18.282   4.893  0.00  0.00    -0.296 OA
HETATM   23  H   UNK N   1      23.183  17.718   5.569  0.00  0.00     0.232 HD
ENDBRANCH  19  22
ENDBRANCH  18  19
ENDBRANCH  17  18
ENDBRANCH  16  17
ENDBRANCH   7  16
TORSDOF 10
ENDMDL
