REMARK  10 active torsions:
REMARK  status: ('A' for Active; 'I' for Inactive)
REMARK    1  A    between atoms: C_2  and  C_3 
REMARK    2  A    between atoms: C_2  and  N_17 
REMARK    3  A    between atoms: C_6  and  C_9 
REMARK       I    between atoms: C_9  and  N_11 
REMARK    4  A    between atoms: N_11  and  C_12 
REMARK    5  A    between atoms: C_12  and  C_13 
REMARK    6  A    between atoms: C_13  and  C_14 
REMARK    7  A    between atoms: C_14  and  O_16 
REMARK    8  A    between atoms: C_18  and  C_31 
REMARK    9  A    between atoms: C_20  and  C_23 
REMARK   10  A    between atoms: C_36  and  O_41 
ROOT
HETATM    1  N   UNK N   1      -0.563  -1.413  -0.094  0.00  0.00    -0.282 N 
HETATM    2  C   UNK N   1       0.713  -1.922  -0.058  0.00  0.00     0.064 A 
HETATM    3  C   UNK N   1       0.637  -3.313   0.021  0.00  0.00     0.064 A 
HETATM    4  C   UNK N   1      -0.720  -3.579   0.027  0.00  0.00     0.060 A 
HETATM    5  N   UNK N   1      -1.405  -2.431  -0.035  0.00  0.00    -0.297 N 
ATOM      6  HN  UNK N   1      -2.423  -2.353  -0.036  1.00  0.00     0.187 HD
ENDROOT
BRANCH   1   7
HETATM    7  C   UNK N   1      -1.049  -0.006  -0.208  0.00  0.00     0.137 C 
HETATM    8  C   UNK N   1      -0.427   0.884   0.859  0.00  0.00     0.039 C 
BRANCH   7   9
HETATM    9  C   UNK N   1      -2.587   0.187  -0.158  0.00  0.00    -0.034 A 
HETATM   10  C   UNK N   1      -3.510  -0.870  -0.285  0.00  0.00     0.010 A 
HETATM   11  C   UNK N   1      -4.890  -0.649  -0.203  0.00  0.00     0.017 A 
HETATM   12  C   UNK N   1      -5.395   0.639   0.025  0.00  0.00     0.032 A 
HETATM   13  C   UNK N   1      -4.483   1.696   0.148  0.00  0.00     0.017 A 
HETATM   14  C   UNK N   1      -3.106   1.477   0.049  0.00  0.00     0.010 A 
BRANCH  12  15
HETATM   15  C   UNK N   1      -6.880   0.847   0.099  0.00  0.00     0.251 C 
HETATM   16  O   UNK N   1      -7.612  -0.110  -0.105  0.00  0.00    -0.268 OA
HETATM   17  N   UNK N   1      -7.462   2.049   0.374  0.00  0.00    -0.356 N 
HETATM   18  H   UNK N   1      -8.445   2.093   0.357  0.00  0.00     0.162 HD
BRANCH  17  19
HETATM   19  C   UNK N   1      -6.747   3.262   0.690  0.00  0.00     0.133 C 
BRANCH  19  20
HETATM   20  C   UNK N   1      -6.975   4.312  -0.384  0.00  0.00     0.129 C 
BRANCH  20  21
HETATM   21  C   UNK N   1      -8.289   4.996  -0.201  0.00  0.00     0.140 C 
HETATM   22  O   UNK N   1      -8.323   6.194   0.023  0.00  0.00    -0.650 OA
BRANCH  21  23
HETATM   23  O   UNK N   1      -9.437   4.299  -0.300  0.00  0.00    -0.776 OA
HETATM   24  H   UNK N   1     -10.256   4.749  -0.370  0.00  0.00     0.167 HD
ENDBRANCH  21  23
ENDBRANCH  20  21
ENDBRANCH  19  20
ENDBRANCH  17  19
ENDBRANCH  12  15
ENDBRANCH   7   9
ENDBRANCH   1   7
BRANCH   2  25
HETATM   25  C   UNK N   1       2.025  -1.194  -0.085  0.00  0.00    -0.007 A 
HETATM   26  C   UNK N   1       2.100   0.201  -0.163  0.00  0.00     0.014 A 
HETATM   27  C   UNK N   1       3.330   0.864  -0.148  0.00  0.00     0.013 A 
HETATM   28  C   UNK N   1       4.516   0.137  -0.071  0.00  0.00    -0.023 A 
HETATM   29  C   UNK N   1       5.745   0.803  -0.065  0.00  0.00     0.049 A 
HETATM   30  C   UNK N   1       4.472  -1.271  -0.009  0.00  0.00    -0.025 A 
HETATM   31  C   UNK N   1       6.941   0.082  -0.005  0.00  0.00     0.069 A 
HETATM   32  C   UNK N   1       6.897  -1.325   0.052  0.00  0.00     0.037 A 
HETATM   33  C   UNK N   1       5.667  -1.997   0.053  0.00  0.00     0.015 A 
HETATM   34  C   UNK N   1       3.231  -1.927  -0.011  0.00  0.00     0.026 A 
BRANCH  31  35
HETATM   35  O   UNK N   1       8.113   0.761  -0.008  0.00  0.00    -0.356 OA
HETATM   36  C   UNK N   1       9.345   0.148   0.025  0.00  0.00     0.210 C 
ENDBRANCH  31  35
ENDBRANCH   2  25
BRANCH   4  37
HETATM   37  C   UNK N   1      -1.390  -4.892   0.041  0.00  0.00    -0.005 A 
HETATM   38  C   UNK N   1      -0.665  -6.094   0.042  0.00  0.00     0.037 A 
HETATM   39  C   UNK N   1      -1.344  -7.321   0.025  0.00  0.00     0.036 A 
HETATM   40  C   UNK N   1      -2.743  -7.350   0.007  0.00  0.00     0.047 A 
HETATM   41 Cl   UNK N   1      -0.449  -8.824   0.021  0.00  0.00    -0.084 Cl
HETATM   42  C   UNK N   1      -3.466  -6.156   0.006  0.00  0.00     0.036 A 
HETATM   43  C   UNK N   1      -2.792  -4.936   0.021  0.00  0.00     0.037 A 
HETATM   44 Cl   UNK N   1      -5.216  -6.184  -0.017  0.00  0.00    -0.084 Cl
ENDBRANCH   4  37
TORSDOF 10
