MODEL 1
REMARK VINA RESULT:      -7.5      0.000      0.000
REMARK  7 active torsions:
REMARK  status: ('A' for Active; 'I' for Inactive)
REMARK    1  A    between atoms: O_2  and  C_3 
REMARK    2  A    between atoms: C_8  and  O_13 
REMARK    3  A    between atoms: O_13  and  C_14 
REMARK    4  A    between atoms: C_14  and  C_15 
REMARK    5  A    between atoms: C_15  and  C_28 
REMARK       I    between atoms: N_17  and  C_19 
REMARK    6  A    between atoms: C_19  and  C_21 
REMARK    7  A    between atoms: C_28  and  O_30 
ROOT
HETATM    1  C   UNK N   1      33.958  16.635   8.078  0.00  0.00     0.099 C 
HETATM    2  C   UNK N   1      34.927  15.587   7.427  0.00  0.00     0.150 C 
HETATM    3  N   UNK N   1      34.481  16.102   6.186  0.00  0.00    -0.345 N 
HETATM    4  C   UNK N   1      33.710  17.190   6.651  0.00  0.00     0.150 C 
HETATM    5  C   UNK N   1      34.329  15.341   5.059  0.00  0.00     0.253 C 
HETATM    6  O   UNK N   1      35.069  14.389   4.878  0.00  0.00    -0.267 OA
ENDROOT
BRANCH   1   7
HETATM    7  C   UNK N   1      32.668  16.022   8.644  0.00  0.00     0.199 C 
BRANCH   7   8
HETATM    8  O   UNK N   1      31.826  16.977   9.199  0.00  0.00    -0.350 OA
BRANCH   8   9
HETATM    9  C   UNK N   1      30.730  17.495   8.592  0.00  0.00     0.069 A 
HETATM   10  C   UNK N   1      30.464  17.299   7.221  0.00  0.00     0.049 A 
HETATM   11  C   UNK N   1      29.361  17.930   6.623  0.00  0.00    -0.023 A 
HETATM   12  C   UNK N   1      29.093  17.757   5.262  0.00  0.00     0.015 A 
HETATM   13  C   UNK N   1      28.531  18.774   7.396  0.00  0.00    -0.023 A 
HETATM   14  C   UNK N   1      28.025  18.441   4.664  0.00  0.00     0.037 A 
HETATM   15  C   UNK N   1      27.222  19.307   5.417  0.00  0.00     0.069 A 
HETATM   16  C   UNK N   1      27.474  19.459   6.792  0.00  0.00     0.049 A 
HETATM   17  C   UNK N   1      28.779  18.936   8.757  0.00  0.00     0.015 A 
HETATM   18  C   UNK N   1      29.866  18.291   9.352  0.00  0.00     0.037 A 
BRANCH  15  19
HETATM   19  O   UNK N   1      26.228  19.992   4.800  0.00  0.00    -0.356 OA
HETATM   20  C   UNK N   1      26.180  20.188   3.438  0.00  0.00     0.210 C 
ENDBRANCH  15  19
ENDBRANCH   8   9
ENDBRANCH   7   8
ENDBRANCH   1   7
BRANCH   1  21
HETATM   21  C   UNK N   1      34.623  17.547   9.064  0.00  0.00     0.154 C 
HETATM   22  O   UNK N   1      35.144  18.585   8.689  0.00  0.00    -0.649 OA
BRANCH  21  23
HETATM   23  O   UNK N   1      34.709  17.188  10.358  0.00  0.00    -0.776 OA
HETATM   24  H   UNK N   1      34.062  17.032  11.018  0.00  0.00     0.167 HD
ENDBRANCH  21  23
ENDBRANCH   1  21
BRANCH   5  25
HETATM   25  C   UNK N   1      33.185  15.551   4.122  0.00  0.00     0.032 A 
HETATM   26  C   UNK N   1      32.110  14.646   4.125  0.00  0.00     0.020 A 
HETATM   27  C   UNK N   1      30.943  14.932   3.409  0.00  0.00     0.043 A 
HETATM   28  C   UNK N   1      30.830  16.136   2.706  0.00  0.00     0.116 A 
HETATM   29  C   UNK N   1      31.895  17.035   2.687  0.00  0.00     0.043 A 
HETATM   30  F   UNK N   1      29.682  16.438   2.053  0.00  0.00    -0.206 F 
HETATM   31  C   UNK N   1      33.063  16.742   3.391  0.00  0.00     0.020 A 
ENDBRANCH   5  25
TORSDOF 7
ENDMDL
MODEL 2
REMARK VINA RESULT:      -7.4      7.740     11.079
REMARK  7 active torsions:
REMARK  status: ('A' for Active; 'I' for Inactive)
REMARK    1  A    between atoms: O_2  and  C_3 
REMARK    2  A    between atoms: C_8  and  O_13 
REMARK    3  A    between atoms: O_13  and  C_14 
REMARK    4  A    between atoms: C_14  and  C_15 
REMARK    5  A    between atoms: C_15  and  C_28 
REMARK       I    between atoms: N_17  and  C_19 
REMARK    6  A    between atoms: C_19  and  C_21 
REMARK    7  A    between atoms: C_28  and  O_30 
ROOT
HETATM    1  C   UNK N   1      20.826  17.177   4.050  0.00  0.00     0.099 C 
HETATM    2  C   UNK N   1      20.476  18.651   3.643  0.00  0.00     0.150 C 
HETATM    3  N   UNK N   1      21.800  18.716   3.144  0.00  0.00    -0.345 N 
HETATM    4  C   UNK N   1      22.175  17.364   3.308  0.00  0.00     0.150 C 
HETATM    5  C   UNK N   1      22.568  19.847   3.180  0.00  0.00     0.253 C 
HETATM    6  O   UNK N   1      22.030  20.937   3.088  0.00  0.00    -0.267 OA
ENDROOT
BRANCH   1   7
HETATM    7  C   UNK N   1      21.067  16.988   5.556  0.00  0.00     0.199 C 
BRANCH   7   8
HETATM    8  O   UNK N   1      22.322  16.463   5.831  0.00  0.00    -0.350 OA
BRANCH   8   9
HETATM    9  C   UNK N   1      22.576  15.482   6.732  0.00  0.00     0.069 A 
HETATM   10  C   UNK N   1      21.639  15.099   7.712  0.00  0.00     0.049 A 
HETATM   11  C   UNK N   1      21.985  14.137   8.676  0.00  0.00    -0.023 A 
HETATM   12  C   UNK N   1      21.072  13.757   9.663  0.00  0.00     0.015 A 
HETATM   13  C   UNK N   1      23.281  13.570   8.669  0.00  0.00    -0.023 A 
HETATM   14  C   UNK N   1      21.451  12.842  10.655  0.00  0.00     0.037 A 
HETATM   15  C   UNK N   1      22.745  12.305  10.674  0.00  0.00     0.069 A 
HETATM   16  C   UNK N   1      23.655  12.666   9.665  0.00  0.00     0.049 A 
HETATM   17  C   UNK N   1      24.191  13.929   7.676  0.00  0.00     0.015 A 
HETATM   18  C   UNK N   1      23.835  14.871   6.708  0.00  0.00     0.037 A 
BRANCH  15  19
HETATM   19  O   UNK N   1      23.096  11.461  11.675  0.00  0.00    -0.356 OA
HETATM   20  C   UNK N   1      23.209  11.855  12.990  0.00  0.00     0.210 C 
ENDBRANCH  15  19
ENDBRANCH   8   9
ENDBRANCH   7   8
ENDBRANCH   1   7
BRANCH   1  21
HETATM   21  C   UNK N   1      19.876  16.154   3.504  0.00  0.00     0.154 C 
HETATM   22  O   UNK N   1      19.910  15.852   2.322  0.00  0.00    -0.649 OA
BRANCH  21  23
HETATM   23  O   UNK N   1      18.936  15.617   4.303  0.00  0.00    -0.776 OA
HETATM   24  H   UNK N   1      18.032  15.410   4.168  0.00  0.00     0.167 HD
ENDBRANCH  21  23
ENDBRANCH   1  21
BRANCH   5  25
HETATM   25  C   UNK N   1      24.030  19.790   3.480  0.00  0.00     0.032 A 
HETATM   26  C   UNK N   1      24.936  20.476   2.653  0.00  0.00     0.020 A 
HETATM   27  C   UNK N   1      26.277  20.607   3.029  0.00  0.00     0.043 A 
HETATM   28  C   UNK N   1      26.718  20.078   4.246  0.00  0.00     0.116 A 
HETATM   29  C   UNK N   1      25.830  19.387   5.069  0.00  0.00     0.043 A 
HETATM   30  F   UNK N   1      28.004  20.248   4.635  0.00  0.00    -0.206 F 
HETATM   31  C   UNK N   1      24.497  19.247   4.686  0.00  0.00     0.020 A 
ENDBRANCH   5  25
TORSDOF 7
ENDMDL
MODEL 3
REMARK VINA RESULT:      -7.4      6.239      9.298
REMARK  7 active torsions:
REMARK  status: ('A' for Active; 'I' for Inactive)
REMARK    1  A    between atoms: O_2  and  C_3 
REMARK    2  A    between atoms: C_8  and  O_13 
REMARK    3  A    between atoms: O_13  and  C_14 
REMARK    4  A    between atoms: C_14  and  C_15 
REMARK    5  A    between atoms: C_15  and  C_28 
REMARK       I    between atoms: N_17  and  C_19 
REMARK    6  A    between atoms: C_19  and  C_21 
REMARK    7  A    between atoms: C_28  and  O_30 
ROOT
HETATM    1  C   UNK N   1      24.681  15.044   6.175  0.00  0.00     0.099 C 
HETATM    2  C   UNK N   1      24.386  13.578   5.700  0.00  0.00     0.150 C 
HETATM    3  N   UNK N   1      23.545  13.491   6.836  0.00  0.00    -0.345 N 
HETATM    4  C   UNK N   1      23.599  14.835   7.266  0.00  0.00     0.150 C 
HETATM    5  C   UNK N   1      23.370  12.347   7.564  0.00  0.00     0.253 C 
HETATM    6  O   UNK N   1      23.429  11.267   7.002  0.00  0.00    -0.267 OA
ENDROOT
BRANCH   1   7
HETATM    7  C   UNK N   1      26.064  15.222   6.821  0.00  0.00     0.199 C 
BRANCH   7   8
HETATM    8  O   UNK N   1      26.691  16.392   6.416  0.00  0.00    -0.350 OA
BRANCH   8   9
HETATM    9  C   UNK N   1      27.868  16.854   6.907  0.00  0.00     0.069 A 
HETATM   10  C   UNK N   1      29.083  16.717   6.204  0.00  0.00     0.049 A 
HETATM   11  C   UNK N   1      30.286  17.134   6.795  0.00  0.00    -0.023 A 
HETATM   12  C   UNK N   1      31.501  16.992   6.117  0.00  0.00     0.015 A 
HETATM   13  C   UNK N   1      30.277  17.675   8.102  0.00  0.00    -0.023 A 
HETATM   14  C   UNK N   1      32.701  17.356   6.742  0.00  0.00     0.037 A 
HETATM   15  C   UNK N   1      32.701  17.858   8.050  0.00  0.00     0.069 A 
HETATM   16  C   UNK N   1      31.477  18.027   8.722  0.00  0.00     0.049 A 
HETATM   17  C   UNK N   1      29.069  17.839   8.777  0.00  0.00     0.015 A 
HETATM   18  C   UNK N   1      27.873  17.440   8.178  0.00  0.00     0.037 A 
BRANCH  15  19
HETATM   19  O   UNK N   1      33.882  18.154   8.645  0.00  0.00    -0.356 OA
HETATM   20  C   UNK N   1      34.757  17.195   9.104  0.00  0.00     0.210 C 
ENDBRANCH  15  19
ENDBRANCH   8   9
ENDBRANCH   7   8
ENDBRANCH   1   7
BRANCH   1  21
HETATM   21  C   UNK N   1      24.414  16.086   5.131  0.00  0.00     0.154 C 
HETATM   22  O   UNK N   1      24.509  15.808   3.946  0.00  0.00    -0.649 OA
BRANCH  21  23
HETATM   23  O   UNK N   1      24.140  17.350   5.500  0.00  0.00    -0.776 OA
HETATM   24  H   UNK N   1      23.372  17.756   5.852  0.00  0.00     0.167 HD
ENDBRANCH  21  23
ENDBRANCH   1  21
BRANCH   5  25
HETATM   25  C   UNK N   1      23.260  12.376   9.053  0.00  0.00     0.032 A 
HETATM   26  C   UNK N   1      21.991  12.336   9.657  0.00  0.00     0.020 A 
HETATM   27  C   UNK N   1      21.870  12.156  11.039  0.00  0.00     0.043 A 
HETATM   28  C   UNK N   1      23.014  11.987  11.825  0.00  0.00     0.116 A 
HETATM   29  C   UNK N   1      24.277  12.035  11.238  0.00  0.00     0.043 A 
HETATM   30  F   UNK N   1      22.898  11.761  13.155  0.00  0.00    -0.206 F 
HETATM   31  C   UNK N   1      24.396  12.227   9.862  0.00  0.00     0.020 A 
ENDBRANCH   5  25
TORSDOF 7
ENDMDL
MODEL 4
REMARK VINA RESULT:      -7.4      8.348      9.900
REMARK  7 active torsions:
REMARK  status: ('A' for Active; 'I' for Inactive)
REMARK    1  A    between atoms: O_2  and  C_3 
REMARK    2  A    between atoms: C_8  and  O_13 
REMARK    3  A    between atoms: O_13  and  C_14 
REMARK    4  A    between atoms: C_14  and  C_15 
REMARK    5  A    between atoms: C_15  and  C_28 
REMARK       I    between atoms: N_17  and  C_19 
REMARK    6  A    between atoms: C_19  and  C_21 
REMARK    7  A    between atoms: C_28  and  O_30 
ROOT
HETATM    1  C   UNK N   1      23.226  12.485  10.131  0.00  0.00     0.099 C 
HETATM    2  C   UNK N   1      23.272  11.275   9.134  0.00  0.00     0.150 C 
HETATM    3  N   UNK N   1      24.085  12.107   8.327  0.00  0.00    -0.345 N 
HETATM    4  C   UNK N   1      24.257  13.193   9.214  0.00  0.00     0.150 C 
HETATM    5  C   UNK N   1      24.065  12.090   6.959  0.00  0.00     0.253 C 
HETATM    6  O   UNK N   1      23.826  11.044   6.379  0.00  0.00    -0.267 OA
ENDROOT
BRANCH   1   7
HETATM    7  C   UNK N   1      21.892  13.248  10.123  0.00  0.00     0.199 C 
BRANCH   7   8
HETATM    8  O   UNK N   1      21.141  12.992   8.984  0.00  0.00    -0.350 OA
BRANCH   8   9
HETATM    9  C   UNK N   1      20.881  13.893   8.004  0.00  0.00     0.069 A 
HETATM   10  C   UNK N   1      20.626  13.504   6.672  0.00  0.00     0.049 A 
HETATM   11  C   UNK N   1      20.450  14.481   5.679  0.00  0.00    -0.023 A 
HETATM   12  C   UNK N   1      20.211  14.113   4.352  0.00  0.00     0.015 A 
HETATM   13  C   UNK N   1      20.546  15.851   6.015  0.00  0.00    -0.023 A 
HETATM   14  C   UNK N   1      20.097  15.096   3.359  0.00  0.00     0.037 A 
HETATM   15  C   UNK N   1      20.228  16.453   3.681  0.00  0.00     0.069 A 
HETATM   16  C   UNK N   1      20.441  16.825   5.020  0.00  0.00     0.049 A 
HETATM   17  C   UNK N   1      20.764  16.228   7.339  0.00  0.00     0.015 A 
HETATM   18  C   UNK N   1      20.920  15.254   8.327  0.00  0.00     0.037 A 
BRANCH  15  19
HETATM   19  O   UNK N   1      20.163  17.377   2.692  0.00  0.00    -0.356 OA
HETATM   20  C   UNK N   1      19.419  18.532   2.786  0.00  0.00     0.210 C 
ENDBRANCH  15  19
ENDBRANCH   8   9
ENDBRANCH   7   8
ENDBRANCH   1   7
BRANCH   1  21
HETATM   21  C   UNK N   1      23.664  12.143  11.523  0.00  0.00     0.154 C 
HETATM   22  O   UNK N   1      22.836  11.876  12.381  0.00  0.00    -0.649 OA
BRANCH  21  23
HETATM   23  O   UNK N   1      24.967  12.200  11.849  0.00  0.00    -0.776 OA
HETATM   24  H   UNK N   1      25.752  12.121  11.343  0.00  0.00     0.167 HD
ENDBRANCH  21  23
ENDBRANCH   1  21
BRANCH   5  25
HETATM   25  C   UNK N   1      24.178  13.346   6.159  0.00  0.00     0.032 A 
HETATM   26  C   UNK N   1      23.927  13.314   4.777  0.00  0.00     0.020 A 
HETATM   27  C   UNK N   1      23.825  14.503   4.048  0.00  0.00     0.043 A 
HETATM   28  C   UNK N   1      23.945  15.735   4.699  0.00  0.00     0.116 A 
HETATM   29  C   UNK N   1      24.204  15.778   6.068  0.00  0.00     0.043 A 
HETATM   30  F   UNK N   1      23.796  16.888   4.005  0.00  0.00    -0.206 F 
HETATM   31  C   UNK N   1      24.318  14.591   6.790  0.00  0.00     0.020 A 
ENDBRANCH   5  25
TORSDOF 7
ENDMDL
MODEL 5
REMARK VINA RESULT:      -7.3      3.506      6.163
REMARK  7 active torsions:
REMARK  status: ('A' for Active; 'I' for Inactive)
REMARK    1  A    between atoms: O_2  and  C_3 
REMARK    2  A    between atoms: C_8  and  O_13 
REMARK    3  A    between atoms: O_13  and  C_14 
REMARK    4  A    between atoms: C_14  and  C_15 
REMARK    5  A    between atoms: C_15  and  C_28 
REMARK       I    between atoms: N_17  and  C_19 
REMARK    6  A    between atoms: C_19  and  C_21 
REMARK    7  A    between atoms: C_28  and  O_30 
ROOT
HETATM    1  C   UNK N   1      35.577  14.877  10.905  0.00  0.00     0.099 C 
HETATM    2  C   UNK N   1      36.039  16.369  10.756  0.00  0.00     0.150 C 
HETATM    3  N   UNK N   1      34.787  16.584  10.130  0.00  0.00    -0.345 N 
HETATM    4  C   UNK N   1      34.197  15.321  10.355  0.00  0.00     0.150 C 
HETATM    5  C   UNK N   1      34.594  17.468   9.104  0.00  0.00     0.253 C 
HETATM    6  O   UNK N   1      35.267  18.484   9.058  0.00  0.00    -0.267 OA
ENDROOT
BRANCH   1   7
HETATM    7  C   UNK N   1      36.259  13.914   9.921  0.00  0.00     0.199 C 
BRANCH   7   8
HETATM    8  O   UNK N   1      35.348  13.248   9.113  0.00  0.00    -0.350 OA
BRANCH   8   9
HETATM    9  C   UNK N   1      35.161  13.486   7.791  0.00  0.00     0.069 A 
HETATM   10  C   UNK N   1      33.905  13.331   7.168  0.00  0.00     0.049 A 
HETATM   11  C   UNK N   1      33.785  13.507   5.780  0.00  0.00    -0.023 A 
HETATM   12  C   UNK N   1      32.550  13.343   5.146  0.00  0.00     0.015 A 
HETATM   13  C   UNK N   1      34.928  13.820   5.010  0.00  0.00    -0.023 A 
HETATM   14  C   UNK N   1      32.455  13.460   3.752  0.00  0.00     0.037 A 
HETATM   15  C   UNK N   1      33.591  13.735   2.981  0.00  0.00     0.069 A 
HETATM   16  C   UNK N   1      34.828  13.927   3.621  0.00  0.00     0.049 A 
HETATM   17  C   UNK N   1      36.159  14.005   5.636  0.00  0.00     0.015 A 
HETATM   18  C   UNK N   1      36.270  13.849   7.019  0.00  0.00     0.037 A 
BRANCH  15  19
HETATM   19  O   UNK N   1      33.476  13.793   1.631  0.00  0.00    -0.356 OA
HETATM   20  C   UNK N   1      33.653  12.701   0.811  0.00  0.00     0.210 C 
ENDBRANCH  15  19
ENDBRANCH   8   9
ENDBRANCH   7   8
ENDBRANCH   1   7
BRANCH   1  21
HETATM   21  C   UNK N   1      35.625  14.364  12.312  0.00  0.00     0.154 C 
HETATM   22  O   UNK N   1      34.674  13.756  12.779  0.00  0.00    -0.649 OA
BRANCH  21  23
HETATM   23  O   UNK N   1      36.690  14.634  13.089  0.00  0.00    -0.776 OA
HETATM   24  H   UNK N   1      36.938  14.349  13.947  0.00  0.00     0.167 HD
ENDBRANCH  21  23
ENDBRANCH   1  21
BRANCH   5  25
HETATM   25  C   UNK N   1      33.690  17.152   7.958  0.00  0.00     0.032 A 
HETATM   26  C   UNK N   1      32.302  17.078   8.168  0.00  0.00     0.020 A 
HETATM   27  C   UNK N   1      31.426  16.988   7.081  0.00  0.00     0.043 A 
HETATM   28  C   UNK N   1      31.927  17.000   5.776  0.00  0.00     0.116 A 
HETATM   29  C   UNK N   1      33.302  17.063   5.557  0.00  0.00     0.043 A 
HETATM   30  F   UNK N   1      31.078  16.964   4.721  0.00  0.00    -0.206 F 
HETATM   31  C   UNK N   1      34.175  17.139   6.642  0.00  0.00     0.020 A 
ENDBRANCH   5  25
TORSDOF 7
ENDMDL
MODEL 6
REMARK VINA RESULT:      -7.2      6.779     10.167
REMARK  7 active torsions:
REMARK  status: ('A' for Active; 'I' for Inactive)
REMARK    1  A    between atoms: O_2  and  C_3 
REMARK    2  A    between atoms: C_8  and  O_13 
REMARK    3  A    between atoms: O_13  and  C_14 
REMARK    4  A    between atoms: C_14  and  C_15 
REMARK    5  A    between atoms: C_15  and  C_28 
REMARK       I    between atoms: N_17  and  C_19 
REMARK    6  A    between atoms: C_19  and  C_21 
REMARK    7  A    between atoms: C_28  and  O_30 
ROOT
HETATM    1  C   UNK N   1      36.231  13.298  10.344  0.00  0.00     0.099 C 
HETATM    2  C   UNK N   1      36.123  13.074   8.795  0.00  0.00     0.150 C 
HETATM    3  N   UNK N   1      35.704  14.425   8.735  0.00  0.00    -0.345 N 
HETATM    4  C   UNK N   1      35.923  14.795  10.080  0.00  0.00     0.150 C 
HETATM    5  C   UNK N   1      34.783  14.895   7.839  0.00  0.00     0.253 C 
HETATM    6  O   UNK N   1      34.711  14.383   6.734  0.00  0.00    -0.267 OA
ENDROOT
BRANCH   1   7
HETATM    7  C   UNK N   1      35.092  12.651  11.147  0.00  0.00     0.199 C 
BRANCH   7   8
HETATM    8  O   UNK N   1      34.973  13.186  12.423  0.00  0.00    -0.350 OA
BRANCH   8   9
HETATM    9  C   UNK N   1      34.837  12.462  13.561  0.00  0.00     0.069 A 
HETATM   10  C   UNK N   1      35.085  13.009  14.837  0.00  0.00     0.049 A 
HETATM   11  C   UNK N   1      35.014  12.192  15.976  0.00  0.00    -0.023 A 
HETATM   12  C   UNK N   1      35.271  12.717  17.246  0.00  0.00     0.015 A 
HETATM   13  C   UNK N   1      34.712  10.818  15.838  0.00  0.00    -0.023 A 
HETATM   14  C   UNK N   1      35.257  11.877  18.369  0.00  0.00     0.037 A 
HETATM   15  C   UNK N   1      34.995  10.508  18.233  0.00  0.00     0.069 A 
HETATM   16  C   UNK N   1      34.709   9.985  16.959  0.00  0.00     0.049 A 
HETATM   17  C   UNK N   1      34.435  10.290  14.578  0.00  0.00     0.015 A 
HETATM   18  C   UNK N   1      34.488  11.111  13.450  0.00  0.00     0.037 A 
BRANCH  15  19
HETATM   19  O   UNK N   1      35.038   9.714  19.331  0.00  0.00    -0.356 OA
HETATM   20  C   UNK N   1      34.664  10.141  20.585  0.00  0.00     0.210 C 
ENDBRANCH  15  19
ENDBRANCH   8   9
ENDBRANCH   7   8
ENDBRANCH   1   7
BRANCH   1  21
HETATM   21  C   UNK N   1      37.576  12.962  10.913  0.00  0.00     0.154 C 
HETATM   22  O   UNK N   1      38.453  12.508  10.195  0.00  0.00    -0.649 OA
BRANCH  21  23
HETATM   23  O   UNK N   1      37.798  13.093  12.233  0.00  0.00    -0.776 OA
HETATM   24  H   UNK N   1      37.356  12.754  12.988  0.00  0.00     0.167 HD
ENDBRANCH  21  23
ENDBRANCH   1  21
BRANCH   5  25
HETATM   25  C   UNK N   1      33.762  15.914   8.226  0.00  0.00     0.032 A 
HETATM   26  C   UNK N   1      34.065  17.281   8.104  0.00  0.00     0.020 A 
HETATM   27  C   UNK N   1      33.063  18.244   8.265  0.00  0.00     0.043 A 
HETATM   28  C   UNK N   1      31.746  17.849   8.520  0.00  0.00     0.116 A 
HETATM   29  C   UNK N   1      31.438  16.496   8.653  0.00  0.00     0.043 A 
HETATM   30  F   UNK N   1      30.766  18.777   8.624  0.00  0.00    -0.206 F 
HETATM   31  C   UNK N   1      32.440  15.538   8.506  0.00  0.00     0.020 A 
ENDBRANCH   5  25
TORSDOF 7
ENDMDL
MODEL 7
REMARK VINA RESULT:      -7.2     12.156     15.415
REMARK  7 active torsions:
REMARK  status: ('A' for Active; 'I' for Inactive)
REMARK    1  A    between atoms: O_2  and  C_3 
REMARK    2  A    between atoms: C_8  and  O_13 
REMARK    3  A    between atoms: O_13  and  C_14 
REMARK    4  A    between atoms: C_14  and  C_15 
REMARK    5  A    between atoms: C_15  and  C_28 
REMARK       I    between atoms: N_17  and  C_19 
REMARK    6  A    between atoms: C_19  and  C_21 
REMARK    7  A    between atoms: C_28  and  O_30 
ROOT
HETATM    1  C   UNK N   1      26.520  22.778  -8.181  0.00  0.00     0.099 C 
HETATM    2  C   UNK N   1      27.836  22.242  -8.845  0.00  0.00     0.150 C 
HETATM    3  N   UNK N   1      28.186  21.798  -7.547  0.00  0.00    -0.345 N 
HETATM    4  C   UNK N   1      26.978  22.084  -6.872  0.00  0.00     0.150 C 
HETATM    5  C   UNK N   1      29.469  21.779  -7.072  0.00  0.00     0.253 C 
HETATM    6  O   UNK N   1      30.388  21.579  -7.847  0.00  0.00    -0.267 OA
ENDROOT
BRANCH   1   7
HETATM    7  C   UNK N   1      26.493  24.304  -7.995  0.00  0.00     0.199 C 
BRANCH   7   8
HETATM    8  O   UNK N   1      25.690  24.695  -6.933  0.00  0.00    -0.350 OA
BRANCH   8   9
HETATM    9  C   UNK N   1      25.905  25.783  -6.153  0.00  0.00     0.069 A 
HETATM   10  C   UNK N   1      27.173  26.086  -5.615  0.00  0.00     0.049 A 
HETATM   11  C   UNK N   1      27.323  27.177  -4.743  0.00  0.00    -0.023 A 
HETATM   12  C   UNK N   1      28.570  27.481  -4.190  0.00  0.00     0.015 A 
HETATM   13  C   UNK N   1      26.196  27.957  -4.394  0.00  0.00    -0.023 A 
HETATM   14  C   UNK N   1      28.694  28.535  -3.274  0.00  0.00     0.037 A 
HETATM   15  C   UNK N   1      27.574  29.287  -2.897  0.00  0.00     0.069 A 
HETATM   16  C   UNK N   1      26.325  28.999  -3.474  0.00  0.00     0.049 A 
HETATM   17  C   UNK N   1      24.953  27.673  -4.957  0.00  0.00     0.015 A 
HETATM   18  C   UNK N   1      24.813  26.599  -5.838  0.00  0.00     0.037 A 
BRANCH  15  19
HETATM   19  O   UNK N   1      27.717  30.267  -1.971  0.00  0.00    -0.356 OA
HETATM   20  C   UNK N   1      28.466  30.119  -0.825  0.00  0.00     0.210 C 
ENDBRANCH  15  19
ENDBRANCH   8   9
ENDBRANCH   7   8
ENDBRANCH   1   7
BRANCH   1  21
HETATM   21  C   UNK N   1      25.264  22.273  -8.825  0.00  0.00     0.154 C 
HETATM   22  O   UNK N   1      25.303  21.765  -9.935  0.00  0.00    -0.649 OA
BRANCH  21  23
HETATM   23  O   UNK N   1      24.080  22.443  -8.211  0.00  0.00    -0.776 OA
HETATM   24  H   UNK N   1      23.655  23.196  -7.849  0.00  0.00     0.167 HD
ENDBRANCH  21  23
ENDBRANCH   1  21
BRANCH   5  25
HETATM   25  C   UNK N   1      29.786  22.147  -5.660  0.00  0.00     0.032 A 
HETATM   26  C   UNK N   1      29.368  23.390  -5.155  0.00  0.00     0.020 A 
HETATM   27  C   UNK N   1      29.473  23.670  -3.789  0.00  0.00     0.043 A 
HETATM   28  C   UNK N   1      29.969  22.701  -2.912  0.00  0.00     0.116 A 
HETATM   29  C   UNK N   1      30.396  21.468  -3.404  0.00  0.00     0.043 A 
HETATM   30  F   UNK N   1      30.024  22.951  -1.582  0.00  0.00    -0.206 F 
HETATM   31  C   UNK N   1      30.304  21.196  -4.768  0.00  0.00     0.020 A 
ENDBRANCH   5  25
TORSDOF 7
ENDMDL
MODEL 8
REMARK VINA RESULT:      -7.1      6.412     10.833
REMARK  7 active torsions:
REMARK  status: ('A' for Active; 'I' for Inactive)
REMARK    1  A    between atoms: O_2  and  C_3 
REMARK    2  A    between atoms: C_8  and  O_13 
REMARK    3  A    between atoms: O_13  and  C_14 
REMARK    4  A    between atoms: C_14  and  C_15 
REMARK    5  A    between atoms: C_15  and  C_28 
REMARK       I    between atoms: N_17  and  C_19 
REMARK    6  A    between atoms: C_19  and  C_21 
REMARK    7  A    between atoms: C_28  and  O_30 
ROOT
HETATM    1  C   UNK N   1      21.240  18.431   3.338  0.00  0.00     0.099 C 
HETATM    2  C   UNK N   1      20.926  18.770   1.838  0.00  0.00     0.150 C 
HETATM    3  N   UNK N   1      20.244  17.529   1.811  0.00  0.00    -0.345 N 
HETATM    4  C   UNK N   1      20.316  17.195   3.181  0.00  0.00     0.150 C 
HETATM    5  C   UNK N   1      20.199  16.714   0.713  0.00  0.00     0.253 C 
HETATM    6  O   UNK N   1      20.214  17.210  -0.400  0.00  0.00    -0.267 OA
ENDROOT
BRANCH   1   7
HETATM    7  C   UNK N   1      22.690  17.986   3.585  0.00  0.00     0.199 C 
BRANCH   7   8
HETATM    8  O   UNK N   1      23.556  19.060   3.736  0.00  0.00    -0.350 OA
BRANCH   8   9
HETATM    9  C   UNK N   1      24.892  18.960   3.944  0.00  0.00     0.069 A 
HETATM   10  C   UNK N   1      25.638  17.840   3.523  0.00  0.00     0.049 A 
HETATM   11  C   UNK N   1      27.003  17.747   3.840  0.00  0.00    -0.023 A 
HETATM   12  C   UNK N   1      27.753  16.636   3.442  0.00  0.00     0.015 A 
HETATM   13  C   UNK N   1      27.620  18.770   4.597  0.00  0.00    -0.023 A 
HETATM   14  C   UNK N   1      29.099  16.526   3.818  0.00  0.00     0.037 A 
HETATM   15  C   UNK N   1      29.705  17.519   4.598  0.00  0.00     0.069 A 
HETATM   16  C   UNK N   1      28.959  18.650   4.975  0.00  0.00     0.049 A 
HETATM   17  C   UNK N   1      26.885  19.890   4.980  0.00  0.00     0.015 A 
HETATM   18  C   UNK N   1      25.533  19.987   4.646  0.00  0.00     0.037 A 
BRANCH  15  19
HETATM   19  O   UNK N   1      30.994  17.360   4.987  0.00  0.00    -0.356 OA
HETATM   20  C   UNK N   1      32.055  17.390   4.110  0.00  0.00     0.210 C 
ENDBRANCH  15  19
ENDBRANCH   8   9
ENDBRANCH   7   8
ENDBRANCH   1   7
BRANCH   1  21
HETATM   21  C   UNK N   1      20.810  19.494   4.303  0.00  0.00     0.154 C 
HETATM   22  O   UNK N   1      20.301  20.526   3.896  0.00  0.00    -0.649 OA
BRANCH  21  23
HETATM   23  O   UNK N   1      21.050  19.342   5.618  0.00  0.00    -0.776 OA
HETATM   24  H   UNK N   1      21.834  19.380   6.129  0.00  0.00     0.167 HD
ENDBRANCH  21  23
ENDBRANCH   1  21
BRANCH   5  25
HETATM   25  C   UNK N   1      20.284  15.228   0.838  0.00  0.00     0.032 A 
HETATM   26  C   UNK N   1      19.128  14.448   0.659  0.00  0.00     0.020 A 
HETATM   27  C   UNK N   1      19.221  13.056   0.569  0.00  0.00     0.043 A 
HETATM   28  C   UNK N   1      20.471  12.432   0.628  0.00  0.00     0.116 A 
HETATM   29  C   UNK N   1      21.622  13.195   0.816  0.00  0.00     0.043 A 
HETATM   30  F   UNK N   1      20.568  11.088   0.490  0.00  0.00    -0.206 F 
HETATM   31  C   UNK N   1      21.526  14.582   0.920  0.00  0.00     0.020 A 
ENDBRANCH   5  25
TORSDOF 7
ENDMDL
MODEL 9
REMARK VINA RESULT:      -7.1     11.624     15.877
REMARK  7 active torsions:
REMARK  status: ('A' for Active; 'I' for Inactive)
REMARK    1  A    between atoms: O_2  and  C_3 
REMARK    2  A    between atoms: C_8  and  O_13 
REMARK    3  A    between atoms: O_13  and  C_14 
REMARK    4  A    between atoms: C_14  and  C_15 
REMARK    5  A    between atoms: C_15  and  C_28 
REMARK       I    between atoms: N_17  and  C_19 
REMARK    6  A    between atoms: C_19  and  C_21 
REMARK    7  A    between atoms: C_28  and  O_30 
ROOT
HETATM    1  C   UNK N   1      26.086  23.770  -7.431  0.00  0.00     0.099 C 
HETATM    2  C   UNK N   1      25.894  23.186  -5.987  0.00  0.00     0.150 C 
HETATM    3  N   UNK N   1      25.692  24.529  -5.585  0.00  0.00    -0.345 N 
HETATM    4  C   UNK N   1      25.677  25.150  -6.854  0.00  0.00     0.150 C 
HETATM    5  C   UNK N   1      26.089  25.025  -4.374  0.00  0.00     0.253 C 
HETATM    6  O   UNK N   1      26.093  24.291  -3.401  0.00  0.00    -0.267 OA
ENDROOT
BRANCH   1   7
HETATM    7  C   UNK N   1      27.549  23.800  -7.901  0.00  0.00     0.199 C 
BRANCH   7   8
HETATM    8  O   UNK N   1      28.043  22.533  -8.178  0.00  0.00    -0.350 OA
BRANCH   8   9
HETATM    9  C   UNK N   1      28.956  21.872  -7.425  0.00  0.00     0.069 A 
HETATM   10  C   UNK N   1      29.615  22.478  -6.335  0.00  0.00     0.049 A 
HETATM   11  C   UNK N   1      30.615  21.777  -5.642  0.00  0.00    -0.023 A 
HETATM   12  C   UNK N   1      31.287  22.369  -4.569  0.00  0.00     0.015 A 
HETATM   13  C   UNK N   1      30.971  20.471  -6.053  0.00  0.00    -0.023 A 
HETATM   14  C   UNK N   1      32.326  21.682  -3.925  0.00  0.00     0.037 A 
HETATM   15  C   UNK N   1      32.707  20.403  -4.351  0.00  0.00     0.069 A 
HETATM   16  C   UNK N   1      32.012  19.796  -5.413  0.00  0.00     0.049 A 
HETATM   17  C   UNK N   1      30.292  19.865  -7.109  0.00  0.00     0.015 A 
HETATM   18  C   UNK N   1      29.285  20.559  -7.782  0.00  0.00     0.037 A 
BRANCH  15  19
HETATM   19  O   UNK N   1      33.747  19.785  -3.741  0.00  0.00    -0.356 OA
HETATM   20  C   UNK N   1      34.211  18.543  -4.114  0.00  0.00     0.210 C 
ENDBRANCH  15  19
ENDBRANCH   8   9
ENDBRANCH   7   8
ENDBRANCH   1   7
BRANCH   1  21
HETATM   21  C   UNK N   1      25.182  23.158  -8.458  0.00  0.00     0.154 C 
HETATM   22  O   UNK N   1      24.190  22.536  -8.113  0.00  0.00    -0.649 OA
BRANCH  21  23
HETATM   23  O   UNK N   1      25.502  23.233  -9.763  0.00  0.00    -0.776 OA
HETATM   24  H   UNK N   1      25.766  22.589 -10.390  0.00  0.00     0.167 HD
ENDBRANCH  21  23
ENDBRANCH   1  21
BRANCH   5  25
HETATM   25  C   UNK N   1      26.661  26.399  -4.240  0.00  0.00     0.032 A 
HETATM   26  C   UNK N   1      25.807  27.485  -3.986  0.00  0.00     0.020 A 
HETATM   27  C   UNK N   1      26.334  28.738  -3.656  0.00  0.00     0.043 A 
HETATM   28  C   UNK N   1      27.718  28.908  -3.548  0.00  0.00     0.116 A 
HETATM   29  C   UNK N   1      28.574  27.839  -3.808  0.00  0.00     0.043 A 
HETATM   30  F   UNK N   1      28.229  30.107  -3.178  0.00  0.00    -0.206 F 
HETATM   31  C   UNK N   1      28.047  26.595  -4.150  0.00  0.00     0.020 A 
ENDBRANCH   5  25
TORSDOF 7
ENDMDL
