MODEL 1
REMARK VINA RESULT:      -6.1      0.000      0.000
REMARK  17 active torsions:
REMARK  status: ('A' for Active; 'I' for Inactive)
REMARK    1  A    between atoms: C_2  and  C_3 
REMARK    2  A    between atoms: C_3  and  C_4 
REMARK    3  A    between atoms: C_4  and  C_5 
REMARK    4  A    between atoms: C_5  and  C_6 
REMARK    5  A    between atoms: C_6  and  C_7 
REMARK    6  A    between atoms: C_6  and  O_27 
REMARK    7  A    between atoms: C_8  and  C_9 
REMARK    8  A    between atoms: C_14  and  C_15 
REMARK    9  A    between atoms: C_16  and  C_17 
REMARK   10  A    between atoms: C_17  and  C_18 
REMARK   11  A    between atoms: C_17  and  O_26 
REMARK   12  A    between atoms: C_18  and  C_19 
REMARK   13  A    between atoms: C_18  and  O_25 
REMARK   14  A    between atoms: C_19  and  C_20 
REMARK   15  A    between atoms: C_20  and  C_21 
REMARK   16  A    between atoms: C_21  and  C_22 
REMARK   17  A    between atoms: C_22  and  O_24 
ROOT
HETATM    1  C   UNK N   1      35.672  11.130  17.487  0.00  0.00    -0.026 A 
HETATM    2  C   UNK N   1      35.777  10.757  18.836  0.00  0.00     0.012 A 
HETATM    3  C   UNK N   1      35.544  11.667  19.865  0.00  0.00     0.001 A 
HETATM    4  C   UNK N   1      35.222  12.985  19.566  0.00  0.00     0.001 A 
HETATM    5  C   UNK N   1      35.126  13.392  18.238  0.00  0.00     0.012 A 
HETATM    6  C   UNK N   1      35.329  12.498  17.177  0.00  0.00    -0.026 A 
ENDROOT
BRANCH   6   7
HETATM    7  C   UNK N   1      35.219  13.125  15.831  0.00  0.00     0.011 C 
HETATM    8  C   UNK N   1      36.123  13.079  14.858  0.00  0.00     0.008 C 
BRANCH   8   9
HETATM    9  C   UNK N   1      35.985  13.813  13.556  0.00  0.00     0.169 C 
BRANCH   9  10
HETATM   10  C   UNK N   1      36.411  13.016  12.313  0.00  0.00     0.150 C 
BRANCH  10  11
HETATM   11  C   UNK N   1      35.395  13.127  11.186  0.00  0.00     0.035 C 
BRANCH  11  12
HETATM   12  C   UNK N   1      36.016  13.753   9.952  0.00  0.00     0.013 C 
BRANCH  12  13
HETATM   13  C   UNK N   1      35.290  15.046   9.629  0.00  0.00     0.110 C 
BRANCH  13  14
HETATM   14  C   UNK N   1      35.802  16.170  10.466  0.00  0.00     0.139 C 
HETATM   15  O   UNK N   1      35.058  17.089  10.764  0.00  0.00    -0.650 OA
BRANCH  14  16
HETATM   16  O   UNK N   1      37.074  16.166  10.905  0.00  0.00    -0.776 OA
HETATM   17  H   UNK N   1      37.718  16.744  10.544  0.00  0.00     0.167 HD
ENDBRANCH  14  16
ENDBRANCH  13  14
ENDBRANCH  12  13
ENDBRANCH  11  12
ENDBRANCH  10  11
BRANCH  10  18
HETATM   18  O   UNK N   1      37.623  13.526  11.845  0.00  0.00    -0.393 OA
HETATM   19  H   UNK N   1      38.139  14.153  12.374  0.00  0.00     0.210 HD
ENDBRANCH  10  18
ENDBRANCH   9  10
BRANCH   9  20
HETATM   20  O   UNK N   1      36.757  14.973  13.640  0.00  0.00    -0.389 OA
HETATM   21  H   UNK N   1      37.115  15.304  14.479  0.00  0.00     0.210 HD
ENDBRANCH   9  20
ENDBRANCH   8   9
ENDBRANCH   6   7
BRANCH   1  22
HETATM   22  C   UNK N   1      36.019  10.048  16.523  0.00  0.00     0.011 C 
HETATM   23  C   UNK N   1      35.821   8.752  16.729  0.00  0.00     0.005 C 
BRANCH  23  24
HETATM   24  C   UNK N   1      35.997   7.697  15.690  0.00  0.00     0.141 C 
BRANCH  24  25
HETATM   25  C   UNK N   1      36.529   8.214  14.363  0.00  0.00     0.036 C 
BRANCH  25  26
HETATM   26  C   UNK N   1      35.778   7.490  13.258  0.00  0.00     0.003 C 
BRANCH  26  27
HETATM   27  C   UNK N   1      34.852   8.414  12.507  0.00  0.00    -0.000 C 
BRANCH  27  28
HETATM   28  C   UNK N   1      35.102   9.825  12.999  0.00  0.00    -0.005 C 
HETATM   29  C   UNK N   1      33.811  10.437  13.495  0.00  0.00     0.005 C 
ENDBRANCH  27  28
ENDBRANCH  26  27
ENDBRANCH  25  26
ENDBRANCH  24  25
BRANCH  24  30
HETATM   30  O   UNK N   1      36.859   6.724  16.200  0.00  0.00    -0.392 OA
HETATM   31  H   UNK N   1      36.524   5.929  16.645  0.00  0.00     0.210 HD
ENDBRANCH  24  30
ENDBRANCH  23  24
ENDBRANCH   1  22
TORSDOF 17
ENDMDL
MODEL 2
REMARK VINA RESULT:      -6.0      5.211     10.651
REMARK  17 active torsions:
REMARK  status: ('A' for Active; 'I' for Inactive)
REMARK    1  A    between atoms: C_2  and  C_3 
REMARK    2  A    between atoms: C_3  and  C_4 
REMARK    3  A    between atoms: C_4  and  C_5 
REMARK    4  A    between atoms: C_5  and  C_6 
REMARK    5  A    between atoms: C_6  and  C_7 
REMARK    6  A    between atoms: C_6  and  O_27 
REMARK    7  A    between atoms: C_8  and  C_9 
REMARK    8  A    between atoms: C_14  and  C_15 
REMARK    9  A    between atoms: C_16  and  C_17 
REMARK   10  A    between atoms: C_17  and  C_18 
REMARK   11  A    between atoms: C_17  and  O_26 
REMARK   12  A    between atoms: C_18  and  C_19 
REMARK   13  A    between atoms: C_18  and  O_25 
REMARK   14  A    between atoms: C_19  and  C_20 
REMARK   15  A    between atoms: C_20  and  C_21 
REMARK   16  A    between atoms: C_21  and  C_22 
REMARK   17  A    between atoms: C_22  and  O_24 
ROOT
HETATM    1  C   UNK N   1      30.066  17.395   6.861  0.00  0.00    -0.026 A 
HETATM    2  C   UNK N   1      28.673  17.523   6.756  0.00  0.00     0.012 A 
HETATM    3  C   UNK N   1      27.887  17.865   7.855  0.00  0.00     0.001 A 
HETATM    4  C   UNK N   1      28.479  18.063   9.096  0.00  0.00     0.001 A 
HETATM    5  C   UNK N   1      29.857  17.926   9.239  0.00  0.00     0.012 A 
HETATM    6  C   UNK N   1      30.681  17.608   8.150  0.00  0.00    -0.026 A 
ENDROOT
BRANCH   6   7
HETATM    7  C   UNK N   1      32.121  17.471   8.504  0.00  0.00     0.011 C 
HETATM    8  C   UNK N   1      33.138  18.130   7.960  0.00  0.00     0.008 C 
BRANCH   8   9
HETATM    9  C   UNK N   1      34.577  17.875   8.302  0.00  0.00     0.169 C 
BRANCH   9  10
HETATM   10  C   UNK N   1      34.805  16.983   9.532  0.00  0.00     0.150 C 
BRANCH  10  11
HETATM   11  C   UNK N   1      35.240  15.576   9.147  0.00  0.00     0.035 C 
BRANCH  11  12
HETATM   12  C   UNK N   1      36.233  15.021  10.149  0.00  0.00     0.013 C 
BRANCH  12  13
HETATM   13  C   UNK N   1      35.647  13.780  10.797  0.00  0.00     0.110 C 
BRANCH  13  14
HETATM   14  C   UNK N   1      35.772  13.842  12.282  0.00  0.00     0.139 C 
HETATM   15  O   UNK N   1      34.774  13.753  12.977  0.00  0.00    -0.650 OA
BRANCH  14  16
HETATM   16  O   UNK N   1      36.981  13.980  12.857  0.00  0.00    -0.776 OA
HETATM   17  H   UNK N   1      37.627  13.303  12.807  0.00  0.00     0.167 HD
ENDBRANCH  14  16
ENDBRANCH  13  14
ENDBRANCH  12  13
ENDBRANCH  11  12
ENDBRANCH  10  11
BRANCH  10  18
HETATM   18  O   UNK N   1      35.817  17.543  10.313  0.00  0.00    -0.393 OA
HETATM   19  H   UNK N   1      35.969  18.500  10.322  0.00  0.00     0.210 HD
ENDBRANCH  10  18
ENDBRANCH   9  10
BRANCH   9  20
HETATM   20  O   UNK N   1      35.187  19.112   8.517  0.00  0.00    -0.389 OA
HETATM   21  H   UNK N   1      35.640  19.602   7.812  0.00  0.00     0.210 HD
ENDBRANCH   9  20
ENDBRANCH   8   9
ENDBRANCH   6   7
BRANCH   1  22
HETATM   22  C   UNK N   1      30.738  16.960   5.604  0.00  0.00     0.011 C 
HETATM   23  C   UNK N   1      31.249  17.777   4.692  0.00  0.00     0.005 C 
BRANCH  23  24
HETATM   24  C   UNK N   1      32.080  17.336   3.535  0.00  0.00     0.141 C 
BRANCH  24  25
HETATM   25  C   UNK N   1      33.211  16.391   3.907  0.00  0.00     0.036 C 
BRANCH  25  26
HETATM   26  C   UNK N   1      32.876  15.028   3.325  0.00  0.00     0.003 C 
BRANCH  26  27
HETATM   27  C   UNK N   1      32.644  13.997   4.402  0.00  0.00    -0.000 C 
BRANCH  27  28
HETATM   28  C   UNK N   1      33.420  14.426   5.631  0.00  0.00    -0.005 C 
HETATM   29  C   UNK N   1      32.628  14.108   6.880  0.00  0.00     0.005 C 
ENDBRANCH  27  28
ENDBRANCH  26  27
ENDBRANCH  25  26
ENDBRANCH  24  25
BRANCH  24  30
HETATM   30  O   UNK N   1      31.238  16.727   2.602  0.00  0.00    -0.392 OA
HETATM   31  H   UNK N   1      30.486  17.197   2.209  0.00  0.00     0.210 HD
ENDBRANCH  24  30
ENDBRANCH  23  24
ENDBRANCH   1  22
TORSDOF 17
ENDMDL
MODEL 3
REMARK VINA RESULT:      -5.9      5.182     10.785
REMARK  17 active torsions:
REMARK  status: ('A' for Active; 'I' for Inactive)
REMARK    1  A    between atoms: C_2  and  C_3 
REMARK    2  A    between atoms: C_3  and  C_4 
REMARK    3  A    between atoms: C_4  and  C_5 
REMARK    4  A    between atoms: C_5  and  C_6 
REMARK    5  A    between atoms: C_6  and  C_7 
REMARK    6  A    between atoms: C_6  and  O_27 
REMARK    7  A    between atoms: C_8  and  C_9 
REMARK    8  A    between atoms: C_14  and  C_15 
REMARK    9  A    between atoms: C_16  and  C_17 
REMARK   10  A    between atoms: C_17  and  C_18 
REMARK   11  A    between atoms: C_17  and  O_26 
REMARK   12  A    between atoms: C_18  and  C_19 
REMARK   13  A    between atoms: C_18  and  O_25 
REMARK   14  A    between atoms: C_19  and  C_20 
REMARK   15  A    between atoms: C_20  and  C_21 
REMARK   16  A    between atoms: C_21  and  C_22 
REMARK   17  A    between atoms: C_22  and  O_24 
ROOT
HETATM    1  C   UNK N   1      32.097  16.751   7.151  0.00  0.00    -0.026 A 
HETATM    2  C   UNK N   1      32.026  17.117   5.799  0.00  0.00     0.012 A 
HETATM    3  C   UNK N   1      33.074  16.860   4.916  0.00  0.00     0.001 A 
HETATM    4  C   UNK N   1      34.233  16.249   5.376  0.00  0.00     0.001 A 
HETATM    5  C   UNK N   1      34.343  15.887   6.716  0.00  0.00     0.012 A 
HETATM    6  C   UNK N   1      33.300  16.107   7.626  0.00  0.00    -0.026 A 
ENDROOT
BRANCH   6   7
HETATM    7  C   UNK N   1      33.616  15.687   9.019  0.00  0.00     0.011 C 
HETATM    8  C   UNK N   1      34.457  16.284   9.857  0.00  0.00     0.008 C 
BRANCH   8   9
HETATM    9  C   UNK N   1      34.798  15.752  11.218  0.00  0.00     0.169 C 
BRANCH   9  10
HETATM   10  C   UNK N   1      36.211  15.166  11.351  0.00  0.00     0.150 C 
BRANCH  10  11
HETATM   11  C   UNK N   1      36.322  13.786  10.718  0.00  0.00     0.035 C 
BRANCH  11  12
HETATM   12  C   UNK N   1      37.141  12.852  11.588  0.00  0.00     0.013 C 
BRANCH  12  13
HETATM   13  C   UNK N   1      36.714  13.016  13.035  0.00  0.00     0.110 C 
BRANCH  13  14
HETATM   14  C   UNK N   1      35.482  12.225  13.322  0.00  0.00     0.139 C 
HETATM   15  O   UNK N   1      34.465  12.797  13.672  0.00  0.00    -0.650 OA
BRANCH  14  16
HETATM   16  O   UNK N   1      35.486  10.886  13.180  0.00  0.00    -0.776 OA
HETATM   17  H   UNK N   1      36.224  10.435  12.820  0.00  0.00     0.167 HD
ENDBRANCH  14  16
ENDBRANCH  13  14
ENDBRANCH  12  13
ENDBRANCH  11  12
ENDBRANCH  10  11
BRANCH  10  18
HETATM   18  O   UNK N   1      37.112  16.008  10.696  0.00  0.00    -0.393 OA
HETATM   19  H   UNK N   1      37.421  15.807   9.799  0.00  0.00     0.210 HD
ENDBRANCH  10  18
ENDBRANCH   9  10
BRANCH   9  20
HETATM   20  O   UNK N   1      33.862  14.764  11.532  0.00  0.00    -0.389 OA
HETATM   21  H   UNK N   1      33.494  14.656  12.423  0.00  0.00     0.210 HD
ENDBRANCH   9  20
ENDBRANCH   8   9
ENDBRANCH   6   7
BRANCH   1  22
HETATM   22  C   UNK N   1      30.915  17.161   7.961  0.00  0.00     0.011 C 
HETATM   23  C   UNK N   1      30.852  18.248   8.718  0.00  0.00     0.005 C 
BRANCH  23  24
HETATM   24  C   UNK N   1      29.609  18.747   9.374  0.00  0.00     0.141 C 
BRANCH  24  25
HETATM   25  C   UNK N   1      28.327  18.338   8.668  0.00  0.00     0.036 C 
BRANCH  25  26
HETATM   26  C   UNK N   1      28.033  19.388   7.610  0.00  0.00     0.003 C 
BRANCH  26  27
HETATM   27  C   UNK N   1      28.081  18.812   6.216  0.00  0.00    -0.000 C 
BRANCH  27  28
HETATM   28  C   UNK N   1      27.775  19.931   5.240  0.00  0.00    -0.005 C 
HETATM   29  C   UNK N   1      27.422  21.193   5.995  0.00  0.00     0.005 C 
ENDBRANCH  27  28
ENDBRANCH  26  27
ENDBRANCH  25  26
ENDBRANCH  24  25
BRANCH  24  30
HETATM   30  O   UNK N   1      29.595  18.283  10.691  0.00  0.00    -0.392 OA
HETATM   31  H   UNK N   1      30.316  17.739  11.048  0.00  0.00     0.210 HD
ENDBRANCH  24  30
ENDBRANCH  23  24
ENDBRANCH   1  22
TORSDOF 17
ENDMDL
MODEL 4
REMARK VINA RESULT:      -5.8     21.276     24.928
REMARK  17 active torsions:
REMARK  status: ('A' for Active; 'I' for Inactive)
REMARK    1  A    between atoms: C_2  and  C_3 
REMARK    2  A    between atoms: C_3  and  C_4 
REMARK    3  A    between atoms: C_4  and  C_5 
REMARK    4  A    between atoms: C_5  and  C_6 
REMARK    5  A    between atoms: C_6  and  C_7 
REMARK    6  A    between atoms: C_6  and  O_27 
REMARK    7  A    between atoms: C_8  and  C_9 
REMARK    8  A    between atoms: C_14  and  C_15 
REMARK    9  A    between atoms: C_16  and  C_17 
REMARK   10  A    between atoms: C_17  and  C_18 
REMARK   11  A    between atoms: C_17  and  O_26 
REMARK   12  A    between atoms: C_18  and  C_19 
REMARK   13  A    between atoms: C_18  and  O_25 
REMARK   14  A    between atoms: C_19  and  C_20 
REMARK   15  A    between atoms: C_20  and  C_21 
REMARK   16  A    between atoms: C_21  and  C_22 
REMARK   17  A    between atoms: C_22  and  O_24 
ROOT
HETATM    1  C   UNK N   1      26.608  24.968  -3.913  0.00  0.00    -0.026 A 
HETATM    2  C   UNK N   1      26.598  26.248  -3.338  0.00  0.00     0.012 A 
HETATM    3  C   UNK N   1      25.951  27.319  -3.952  0.00  0.00     0.001 A 
HETATM    4  C   UNK N   1      25.318  27.138  -5.175  0.00  0.00     0.001 A 
HETATM    5  C   UNK N   1      25.323  25.884  -5.781  0.00  0.00     0.012 A 
HETATM    6  C   UNK N   1      25.942  24.779  -5.181  0.00  0.00    -0.026 A 
ENDROOT
BRANCH   6   7
HETATM    7  C   UNK N   1      25.874  23.534  -5.995  0.00  0.00     0.011 C 
HETATM    8  C   UNK N   1      25.419  23.423  -7.238  0.00  0.00     0.008 C 
BRANCH   8   9
HETATM    9  C   UNK N   1      25.294  22.117  -7.968  0.00  0.00     0.169 C 
BRANCH   9  10
HETATM   10  C   UNK N   1      25.954  22.082  -9.355  0.00  0.00     0.150 C 
BRANCH  10  11
HETATM   11  C   UNK N   1      27.394  21.596  -9.293  0.00  0.00     0.035 C 
BRANCH  11  12
HETATM   12  C   UNK N   1      27.595  20.633  -8.139  0.00  0.00     0.013 C 
BRANCH  12  13
HETATM   13  C   UNK N   1      28.936  20.910  -7.485  0.00  0.00     0.110 C 
BRANCH  13  14
HETATM   14  C   UNK N   1      29.741  19.660  -7.367  0.00  0.00     0.139 C 
HETATM   15  O   UNK N   1      30.896  19.719  -6.982  0.00  0.00    -0.650 OA
BRANCH  14  16
HETATM   16  O   UNK N   1      29.194  18.468  -7.667  0.00  0.00    -0.776 OA
HETATM   17  H   UNK N   1      28.485  18.115  -7.165  0.00  0.00     0.167 HD
ENDBRANCH  14  16
ENDBRANCH  13  14
ENDBRANCH  12  13
ENDBRANCH  11  12
ENDBRANCH  10  11
BRANCH  10  18
HETATM   18  O   UNK N   1      25.242  21.199 -10.170  0.00  0.00    -0.393 OA
HETATM   19  H   UNK N   1      25.178  21.344 -11.126  0.00  0.00     0.210 HD
ENDBRANCH  10  18
ENDBRANCH   9  10
BRANCH   9  20
HETATM   20  O   UNK N   1      23.933  21.836  -8.102  0.00  0.00    -0.389 OA
HETATM   21  H   UNK N   1      23.529  21.026  -7.754  0.00  0.00     0.210 HD
ENDBRANCH   9  20
ENDBRANCH   8   9
ENDBRANCH   6   7
BRANCH   1  22
HETATM   22  C   UNK N   1      27.400  23.961  -3.153  0.00  0.00     0.011 C 
HETATM   23  C   UNK N   1      28.637  23.584  -3.450  0.00  0.00     0.005 C 
BRANCH  23  24
HETATM   24  C   UNK N   1      29.487  22.719  -2.581  0.00  0.00     0.141 C 
BRANCH  24  25
HETATM   25  C   UNK N   1      30.360  21.738  -3.347  0.00  0.00     0.036 C 
BRANCH  25  26
HETATM   26  C   UNK N   1      30.797  22.423  -4.631  0.00  0.00     0.003 C 
BRANCH  26  27
HETATM   27  C   UNK N   1      32.258  22.800  -4.600  0.00  0.00    -0.000 C 
BRANCH  27  28
HETATM   28  C   UNK N   1      32.415  24.114  -5.339  0.00  0.00    -0.005 C 
HETATM   29  C   UNK N   1      31.785  25.234  -4.542  0.00  0.00     0.005 C 
ENDBRANCH  27  28
ENDBRANCH  26  27
ENDBRANCH  25  26
ENDBRANCH  24  25
BRANCH  24  30
HETATM   30  O   UNK N   1      30.283  23.546  -1.788  0.00  0.00    -0.392 OA
HETATM   31  H   UNK N   1      31.087  23.965  -2.135  0.00  0.00     0.210 HD
ENDBRANCH  24  30
ENDBRANCH  23  24
ENDBRANCH   1  22
TORSDOF 17
ENDMDL
MODEL 5
REMARK VINA RESULT:      -5.8     20.418     24.500
REMARK  17 active torsions:
REMARK  status: ('A' for Active; 'I' for Inactive)
REMARK    1  A    between atoms: C_2  and  C_3 
REMARK    2  A    between atoms: C_3  and  C_4 
REMARK    3  A    between atoms: C_4  and  C_5 
REMARK    4  A    between atoms: C_5  and  C_6 
REMARK    5  A    between atoms: C_6  and  C_7 
REMARK    6  A    between atoms: C_6  and  O_27 
REMARK    7  A    between atoms: C_8  and  C_9 
REMARK    8  A    between atoms: C_14  and  C_15 
REMARK    9  A    between atoms: C_16  and  C_17 
REMARK   10  A    between atoms: C_17  and  C_18 
REMARK   11  A    between atoms: C_17  and  O_26 
REMARK   12  A    between atoms: C_18  and  C_19 
REMARK   13  A    between atoms: C_18  and  O_25 
REMARK   14  A    between atoms: C_19  and  C_20 
REMARK   15  A    between atoms: C_20  and  C_21 
REMARK   16  A    between atoms: C_21  and  C_22 
REMARK   17  A    between atoms: C_22  and  O_24 
ROOT
HETATM    1  C   UNK N   1      26.718  24.953  -3.827  0.00  0.00    -0.026 A 
HETATM    2  C   UNK N   1      26.855  26.260  -3.336  0.00  0.00     0.012 A 
HETATM    3  C   UNK N   1      26.207  27.337  -3.937  0.00  0.00     0.001 A 
HETATM    4  C   UNK N   1      25.421  27.133  -5.064  0.00  0.00     0.001 A 
HETATM    5  C   UNK N   1      25.278  25.851  -5.588  0.00  0.00     0.012 A 
HETATM    6  C   UNK N   1      25.894  24.741  -4.995  0.00  0.00    -0.026 A 
ENDROOT
BRANCH   6   7
HETATM    7  C   UNK N   1      25.653  23.461  -5.716  0.00  0.00     0.011 C 
HETATM    8  C   UNK N   1      25.506  23.305  -7.028  0.00  0.00     0.008 C 
BRANCH   8   9
HETATM    9  C   UNK N   1      25.173  21.995  -7.681  0.00  0.00     0.169 C 
BRANCH   9  10
HETATM   10  C   UNK N   1      26.039  21.636  -8.898  0.00  0.00     0.150 C 
BRANCH  10  11
HETATM   11  C   UNK N   1      27.244  20.791  -8.514  0.00  0.00     0.035 C 
BRANCH  11  12
HETATM   12  C   UNK N   1      28.506  21.631  -8.469  0.00  0.00     0.013 C 
BRANCH  12  13
HETATM   13  C   UNK N   1      28.912  21.842  -7.022  0.00  0.00     0.110 C 
BRANCH  13  14
HETATM   14  C   UNK N   1      29.567  23.170  -6.840  0.00  0.00     0.139 C 
HETATM   15  O   UNK N   1      28.919  24.190  -6.996  0.00  0.00    -0.650 OA
BRANCH  14  16
HETATM   16  O   UNK N   1      30.865  23.246  -6.489  0.00  0.00    -0.776 OA
HETATM   17  H   UNK N   1      31.226  24.027  -6.117  0.00  0.00     0.167 HD
ENDBRANCH  14  16
ENDBRANCH  13  14
ENDBRANCH  12  13
ENDBRANCH  11  12
ENDBRANCH  10  11
BRANCH  10  18
HETATM   18  O   UNK N   1      25.268  20.895  -9.796  0.00  0.00    -0.393 OA
HETATM   19  H   UNK N   1      25.394  19.939  -9.891  0.00  0.00     0.210 HD
ENDBRANCH  10  18
ENDBRANCH   9  10
BRANCH   9  20
HETATM   20  O   UNK N   1      23.834  22.045  -8.072  0.00  0.00    -0.389 OA
HETATM   21  H   UNK N   1      23.349  22.879  -8.173  0.00  0.00     0.210 HD
ENDBRANCH   9  20
ENDBRANCH   8   9
ENDBRANCH   6   7
BRANCH   1  22
HETATM   22  C   UNK N   1      27.532  23.937  -3.103  0.00  0.00     0.011 C 
HETATM   23  C   UNK N   1      28.780  23.605  -3.406  0.00  0.00     0.005 C 
BRANCH  23  24
HETATM   24  C   UNK N   1      29.647  22.727  -2.567  0.00  0.00     0.141 C 
BRANCH  24  25
HETATM   25  C   UNK N   1      30.422  21.684  -3.356  0.00  0.00     0.036 C 
BRANCH  25  26
HETATM   26  C   UNK N   1      31.867  21.741  -2.890  0.00  0.00     0.003 C 
BRANCH  26  27
HETATM   27  C   UNK N   1      32.834  21.491  -4.022  0.00  0.00    -0.000 C 
BRANCH  27  28
HETATM   28  C   UNK N   1      33.980  20.662  -3.479  0.00  0.00    -0.005 C 
HETATM   29  C   UNK N   1      33.918  19.260  -4.044  0.00  0.00     0.005 C 
ENDBRANCH  27  28
ENDBRANCH  26  27
ENDBRANCH  25  26
ENDBRANCH  24  25
BRANCH  24  30
HETATM   30  O   UNK N   1      30.532  23.540  -1.857  0.00  0.00    -0.392 OA
HETATM   31  H   UNK N   1      31.448  23.269  -1.685  0.00  0.00     0.210 HD
ENDBRANCH  24  30
ENDBRANCH  23  24
ENDBRANCH   1  22
TORSDOF 17
ENDMDL
MODEL 6
REMARK VINA RESULT:      -5.7     21.066     25.048
REMARK  17 active torsions:
REMARK  status: ('A' for Active; 'I' for Inactive)
REMARK    1  A    between atoms: C_2  and  C_3 
REMARK    2  A    between atoms: C_3  and  C_4 
REMARK    3  A    between atoms: C_4  and  C_5 
REMARK    4  A    between atoms: C_5  and  C_6 
REMARK    5  A    between atoms: C_6  and  C_7 
REMARK    6  A    between atoms: C_6  and  O_27 
REMARK    7  A    between atoms: C_8  and  C_9 
REMARK    8  A    between atoms: C_14  and  C_15 
REMARK    9  A    between atoms: C_16  and  C_17 
REMARK   10  A    between atoms: C_17  and  C_18 
REMARK   11  A    between atoms: C_17  and  O_26 
REMARK   12  A    between atoms: C_18  and  C_19 
REMARK   13  A    between atoms: C_18  and  O_25 
REMARK   14  A    between atoms: C_19  and  C_20 
REMARK   15  A    between atoms: C_20  and  C_21 
REMARK   16  A    between atoms: C_21  and  C_22 
REMARK   17  A    between atoms: C_22  and  O_24 
ROOT
HETATM    1  C   UNK N   1      29.821  20.917  -6.529  0.00  0.00    -0.026 A 
HETATM    2  C   UNK N   1      30.836  20.008  -6.864  0.00  0.00     0.012 A 
HETATM    3  C   UNK N   1      30.784  19.254  -8.035  0.00  0.00     0.001 A 
HETATM    4  C   UNK N   1      29.697  19.377  -8.891  0.00  0.00     0.001 A 
HETATM    5  C   UNK N   1      28.664  20.258  -8.580  0.00  0.00     0.012 A 
HETATM    6  C   UNK N   1      28.695  21.049  -7.424  0.00  0.00    -0.026 A 
ENDROOT
BRANCH   6   7
HETATM    7  C   UNK N   1      27.488  21.902  -7.245  0.00  0.00     0.011 C 
HETATM    8  C   UNK N   1      27.112  22.918  -8.015  0.00  0.00     0.008 C 
BRANCH   8   9
HETATM    9  C   UNK N   1      25.929  23.794  -7.723  0.00  0.00     0.169 C 
BRANCH   9  10
HETATM   10  C   UNK N   1      26.105  24.745  -6.529  0.00  0.00     0.150 C 
BRANCH  10  11
HETATM   11  C   UNK N   1      25.848  26.196  -6.909  0.00  0.00     0.035 C 
BRANCH  11  12
HETATM   12  C   UNK N   1      25.249  26.965  -5.748  0.00  0.00     0.013 C 
BRANCH  12  13
HETATM   13  C   UNK N   1      26.263  27.974  -5.242  0.00  0.00     0.110 C 
BRANCH  13  14
HETATM   14  C   UNK N   1      25.857  28.520  -3.914  0.00  0.00     0.139 C 
HETATM   15  O   UNK N   1      25.467  27.763  -3.043  0.00  0.00    -0.650 OA
BRANCH  14  16
HETATM   16  O   UNK N   1      25.934  29.842  -3.671  0.00  0.00    -0.776 OA
HETATM   17  H   UNK N   1      25.174  30.343  -3.447  0.00  0.00     0.167 HD
ENDBRANCH  14  16
ENDBRANCH  13  14
ENDBRANCH  12  13
ENDBRANCH  11  12
ENDBRANCH  10  11
BRANCH  10  18
HETATM   18  O   UNK N   1      25.186  24.397  -5.537  0.00  0.00    -0.393 OA
HETATM   19  H   UNK N   1      25.479  24.191  -4.636  0.00  0.00     0.210 HD
ENDBRANCH  10  18
ENDBRANCH   9  10
BRANCH   9  20
HETATM   20  O   UNK N   1      24.834  22.962  -7.486  0.00  0.00    -0.389 OA
HETATM   21  H   UNK N   1      24.887  21.996  -7.552  0.00  0.00     0.210 HD
ENDBRANCH   9  20
ENDBRANCH   8   9
ENDBRANCH   6   7
BRANCH   1  22
HETATM   22  C   UNK N   1      30.008  21.587  -5.212  0.00  0.00     0.011 C 
HETATM   23  C   UNK N   1      31.085  21.473  -4.446  0.00  0.00     0.005 C 
BRANCH  23  24
HETATM   24  C   UNK N   1      31.341  22.289  -3.224  0.00  0.00     0.141 C 
BRANCH  24  25
HETATM   25  C   UNK N   1      30.092  22.910  -2.620  0.00  0.00     0.036 C 
BRANCH  25  26
HETATM   26  C   UNK N   1      30.051  24.366  -3.053  0.00  0.00     0.003 C 
BRANCH  26  27
HETATM   27  C   UNK N   1      28.817  24.678  -3.864  0.00  0.00    -0.000 C 
BRANCH  27  28
HETATM   28  C   UNK N   1      29.244  25.491  -5.069  0.00  0.00    -0.005 C 
HETATM   29  C   UNK N   1      29.797  26.826  -4.622  0.00  0.00     0.005 C 
ENDBRANCH  27  28
ENDBRANCH  26  27
ENDBRANCH  25  26
ENDBRANCH  24  25
BRANCH  24  30
HETATM   30  O   UNK N   1      31.971  21.475  -2.281  0.00  0.00    -0.392 OA
HETATM   31  H   UNK N   1      32.433  21.847  -1.513  0.00  0.00     0.210 HD
ENDBRANCH  24  30
ENDBRANCH  23  24
ENDBRANCH   1  22
TORSDOF 17
ENDMDL
MODEL 7
REMARK VINA RESULT:      -5.7     20.932     24.855
REMARK  17 active torsions:
REMARK  status: ('A' for Active; 'I' for Inactive)
REMARK    1  A    between atoms: C_2  and  C_3 
REMARK    2  A    between atoms: C_3  and  C_4 
REMARK    3  A    between atoms: C_4  and  C_5 
REMARK    4  A    between atoms: C_5  and  C_6 
REMARK    5  A    between atoms: C_6  and  C_7 
REMARK    6  A    between atoms: C_6  and  O_27 
REMARK    7  A    between atoms: C_8  and  C_9 
REMARK    8  A    between atoms: C_14  and  C_15 
REMARK    9  A    between atoms: C_16  and  C_17 
REMARK   10  A    between atoms: C_17  and  C_18 
REMARK   11  A    between atoms: C_17  and  O_26 
REMARK   12  A    between atoms: C_18  and  C_19 
REMARK   13  A    between atoms: C_18  and  O_25 
REMARK   14  A    between atoms: C_19  and  C_20 
REMARK   15  A    between atoms: C_20  and  C_21 
REMARK   16  A    between atoms: C_21  and  C_22 
REMARK   17  A    between atoms: C_22  and  O_24 
ROOT
HETATM    1  C   UNK N   1      27.009  22.641  -6.885  0.00  0.00    -0.026 A 
HETATM    2  C   UNK N   1      25.656  22.795  -7.224  0.00  0.00     0.012 A 
HETATM    3  C   UNK N   1      25.050  21.996  -8.191  0.00  0.00     0.001 A 
HETATM    4  C   UNK N   1      25.795  21.035  -8.864  0.00  0.00     0.001 A 
HETATM    5  C   UNK N   1      27.145  20.868  -8.564  0.00  0.00     0.012 A 
HETATM    6  C   UNK N   1      27.781  21.637  -7.580  0.00  0.00    -0.026 A 
ENDROOT
BRANCH   6   7
HETATM    7  C   UNK N   1      29.232  21.339  -7.427  0.00  0.00     0.011 C 
HETATM    8  C   UNK N   1      29.791  20.578  -6.492  0.00  0.00     0.008 C 
BRANCH   8   9
HETATM    9  C   UNK N   1      31.273  20.394  -6.341  0.00  0.00     0.169 C 
BRANCH   9  10
HETATM   10  C   UNK N   1      32.028  21.619  -5.803  0.00  0.00     0.150 C 
BRANCH  10  11
HETATM   11  C   UNK N   1      32.307  21.509  -4.311  0.00  0.00     0.035 C 
BRANCH  11  12
HETATM   12  C   UNK N   1      31.071  21.057  -3.557  0.00  0.00     0.013 C 
BRANCH  12  13
HETATM   13  C   UNK N   1      30.069  22.196  -3.514  0.00  0.00     0.110 C 
BRANCH  13  14
HETATM   14  C   UNK N   1      30.483  23.235  -2.526  0.00  0.00     0.139 C 
HETATM   15  O   UNK N   1      30.511  22.961  -1.338  0.00  0.00    -0.650 OA
BRANCH  14  16
HETATM   16  O   UNK N   1      30.839  24.465  -2.941  0.00  0.00    -0.776 OA
HETATM   17  H   UNK N   1      31.723  24.769  -2.866  0.00  0.00     0.167 HD
ENDBRANCH  14  16
ENDBRANCH  13  14
ENDBRANCH  12  13
ENDBRANCH  11  12
ENDBRANCH  10  11
BRANCH  10  18
HETATM   18  O   UNK N   1      33.257  21.715  -6.459  0.00  0.00    -0.393 OA
HETATM   19  H   UNK N   1      33.348  22.232  -7.274  0.00  0.00     0.210 HD
ENDBRANCH  10  18
ENDBRANCH   9  10
BRANCH   9  20
HETATM   20  O   UNK N   1      31.787  20.056  -7.594  0.00  0.00    -0.389 OA
HETATM   21  H   UNK N   1      31.819  19.142  -7.918  0.00  0.00     0.210 HD
ENDBRANCH   9  20
ENDBRANCH   8   9
ENDBRANCH   6   7
BRANCH   1  22
HETATM   22  C   UNK N   1      27.505  23.622  -5.879  0.00  0.00     0.011 C 
HETATM   23  C   UNK N   1      26.859  23.973  -4.776  0.00  0.00     0.005 C 
BRANCH  23  24
HETATM   24  C   UNK N   1      27.441  24.810  -3.687  0.00  0.00     0.141 C 
BRANCH  24  25
HETATM   25  C   UNK N   1      27.462  26.299  -3.993  0.00  0.00     0.036 C 
BRANCH  25  26
HETATM   26  C   UNK N   1      26.073  26.843  -3.706  0.00  0.00     0.003 C 
BRANCH  26  27
HETATM   27  C   UNK N   1      25.592  27.766  -4.800  0.00  0.00    -0.000 C 
BRANCH  27  28
HETATM   28  C   UNK N   1      24.796  26.940  -5.789  0.00  0.00    -0.005 C 
HETATM   29  C   UNK N   1      25.624  26.677  -7.027  0.00  0.00     0.005 C 
ENDBRANCH  27  28
ENDBRANCH  26  27
ENDBRANCH  25  26
ENDBRANCH  24  25
BRANCH  24  30
HETATM   30  O   UNK N   1      26.713  24.575  -2.520  0.00  0.00    -0.392 OA
HETATM   31  H   UNK N   1      26.935  25.014  -1.683  0.00  0.00     0.210 HD
ENDBRANCH  24  30
ENDBRANCH  23  24
ENDBRANCH   1  22
TORSDOF 17
ENDMDL
MODEL 8
REMARK VINA RESULT:      -5.7      9.459     12.792
REMARK  17 active torsions:
REMARK  status: ('A' for Active; 'I' for Inactive)
REMARK    1  A    between atoms: C_2  and  C_3 
REMARK    2  A    between atoms: C_3  and  C_4 
REMARK    3  A    between atoms: C_4  and  C_5 
REMARK    4  A    between atoms: C_5  and  C_6 
REMARK    5  A    between atoms: C_6  and  C_7 
REMARK    6  A    between atoms: C_6  and  O_27 
REMARK    7  A    between atoms: C_8  and  C_9 
REMARK    8  A    between atoms: C_14  and  C_15 
REMARK    9  A    between atoms: C_16  and  C_17 
REMARK   10  A    between atoms: C_17  and  C_18 
REMARK   11  A    between atoms: C_17  and  O_26 
REMARK   12  A    between atoms: C_18  and  C_19 
REMARK   13  A    between atoms: C_18  and  O_25 
REMARK   14  A    between atoms: C_19  and  C_20 
REMARK   15  A    between atoms: C_20  and  C_21 
REMARK   16  A    between atoms: C_21  and  C_22 
REMARK   17  A    between atoms: C_22  and  O_24 
ROOT
HETATM    1  C   UNK N   1      27.806  18.660   4.777  0.00  0.00    -0.026 A 
HETATM    2  C   UNK N   1      27.158  18.996   3.579  0.00  0.00     0.012 A 
HETATM    3  C   UNK N   1      26.273  20.070   3.504  0.00  0.00     0.001 A 
HETATM    4  C   UNK N   1      25.997  20.822   4.639  0.00  0.00     0.001 A 
HETATM    5  C   UNK N   1      26.610  20.504   5.849  0.00  0.00     0.012 A 
HETATM    6  C   UNK N   1      27.523  19.446   5.955  0.00  0.00    -0.026 A 
ENDROOT
BRANCH   6   7
HETATM    7  C   UNK N   1      28.046  19.239   7.334  0.00  0.00     0.011 C 
HETATM    8  C   UNK N   1      28.027  18.105   8.027  0.00  0.00     0.008 C 
BRANCH   8   9
HETATM    9  C   UNK N   1      28.490  17.989   9.450  0.00  0.00     0.169 C 
BRANCH   9  10
HETATM   10  C   UNK N   1      30.014  18.010   9.642  0.00  0.00     0.150 C 
BRANCH  10  11
HETATM   11  C   UNK N   1      30.729  17.109   8.646  0.00  0.00     0.035 C 
BRANCH  11  12
HETATM   12  C   UNK N   1      31.837  17.858   7.932  0.00  0.00     0.013 C 
BRANCH  12  13
HETATM   13  C   UNK N   1      33.168  17.505   8.569  0.00  0.00     0.110 C 
BRANCH  13  14
HETATM   14  C   UNK N   1      34.297  18.162   7.848  0.00  0.00     0.139 C 
HETATM   15  O   UNK N   1      34.495  17.905   6.673  0.00  0.00    -0.650 OA
BRANCH  14  16
HETATM   16  O   UNK N   1      35.086  19.048   8.484  0.00  0.00    -0.776 OA
HETATM   17  H   UNK N   1      34.931  19.289   9.377  0.00  0.00     0.167 HD
ENDBRANCH  14  16
ENDBRANCH  13  14
ENDBRANCH  12  13
ENDBRANCH  11  12
ENDBRANCH  10  11
BRANCH  10  18
HETATM   18  O   UNK N   1      30.475  19.313   9.444  0.00  0.00    -0.393 OA
HETATM   19  H   UNK N   1      31.361  19.579   9.735  0.00  0.00     0.210 HD
ENDBRANCH  10  18
ENDBRANCH   9  10
BRANCH   9  20
HETATM   20  O   UNK N   1      27.981  16.794   9.965  0.00  0.00    -0.389 OA
HETATM   21  H   UNK N   1      27.105  16.732  10.375  0.00  0.00     0.210 HD
ENDBRANCH   9  20
ENDBRANCH   8   9
ENDBRANCH   6   7
BRANCH   1  22
HETATM   22  C   UNK N   1      28.664  17.445   4.690  0.00  0.00     0.011 C 
HETATM   23  C   UNK N   1      28.292  16.222   5.046  0.00  0.00     0.005 C 
BRANCH  23  24
HETATM   24  C   UNK N   1      29.088  14.989   4.784  0.00  0.00     0.141 C 
BRANCH  24  25
HETATM   25  C   UNK N   1      30.327  14.852   5.654  0.00  0.00     0.036 C 
BRANCH  25  26
HETATM   26  C   UNK N   1      31.498  14.548   4.735  0.00  0.00     0.003 C 
BRANCH  26  27
HETATM   27  C   UNK N   1      32.639  15.516   4.936  0.00  0.00    -0.000 C 
BRANCH  27  28
HETATM   28  C   UNK N   1      32.202  16.865   4.401  0.00  0.00    -0.005 C 
HETATM   29  C   UNK N   1      32.540  16.973   2.931  0.00  0.00     0.005 C 
ENDBRANCH  27  28
ENDBRANCH  26  27
ENDBRANCH  25  26
ENDBRANCH  24  25
BRANCH  24  30
HETATM   30  O   UNK N   1      28.254  13.885   4.969  0.00  0.00    -0.392 OA
HETATM   31  H   UNK N   1      28.584  12.976   4.884  0.00  0.00     0.210 HD
ENDBRANCH  24  30
ENDBRANCH  23  24
ENDBRANCH   1  22
TORSDOF 17
ENDMDL
MODEL 9
REMARK VINA RESULT:      -5.6     12.759     16.864
REMARK  17 active torsions:
REMARK  status: ('A' for Active; 'I' for Inactive)
REMARK    1  A    between atoms: C_2  and  C_3 
REMARK    2  A    between atoms: C_3  and  C_4 
REMARK    3  A    between atoms: C_4  and  C_5 
REMARK    4  A    between atoms: C_5  and  C_6 
REMARK    5  A    between atoms: C_6  and  C_7 
REMARK    6  A    between atoms: C_6  and  O_27 
REMARK    7  A    between atoms: C_8  and  C_9 
REMARK    8  A    between atoms: C_14  and  C_15 
REMARK    9  A    between atoms: C_16  and  C_17 
REMARK   10  A    between atoms: C_17  and  C_18 
REMARK   11  A    between atoms: C_17  and  O_26 
REMARK   12  A    between atoms: C_18  and  C_19 
REMARK   13  A    between atoms: C_18  and  O_25 
REMARK   14  A    between atoms: C_19  and  C_20 
REMARK   15  A    between atoms: C_20  and  C_21 
REMARK   16  A    between atoms: C_21  and  C_22 
REMARK   17  A    between atoms: C_22  and  O_24 
ROOT
HETATM    1  C   UNK N   1      26.455  18.858   5.067  0.00  0.00    -0.026 A 
HETATM    2  C   UNK N   1      27.459  19.679   4.530  0.00  0.00     0.012 A 
HETATM    3  C   UNK N   1      27.209  20.532   3.457  0.00  0.00     0.001 A 
HETATM    4  C   UNK N   1      25.947  20.565   2.877  0.00  0.00     0.001 A 
HETATM    5  C   UNK N   1      24.932  19.751   3.375  0.00  0.00     0.012 A 
HETATM    6  C   UNK N   1      25.141  18.900   4.468  0.00  0.00    -0.026 A 
ENDROOT
BRANCH   6   7
HETATM    7  C   UNK N   1      23.951  18.083   4.833  0.00  0.00     0.011 C 
HETATM    8  C   UNK N   1      22.704  18.268   4.412  0.00  0.00     0.008 C 
BRANCH   8   9
HETATM    9  C   UNK N   1      21.533  17.461   4.893  0.00  0.00     0.169 C 
BRANCH   9  10
HETATM   10  C   UNK N   1      20.267  17.575   4.031  0.00  0.00     0.150 C 
BRANCH  10  11
HETATM   11  C   UNK N   1      20.492  17.073   2.613  0.00  0.00     0.035 C 
BRANCH  11  12
HETATM   12  C   UNK N   1      20.319  18.193   1.605  0.00  0.00     0.013 C 
BRANCH  12  13
HETATM   13  C   UNK N   1      20.121  19.503   2.345  0.00  0.00     0.110 C 
BRANCH  13  14
HETATM   14  C   UNK N   1      21.036  20.557   1.818  0.00  0.00     0.139 C 
HETATM   15  O   UNK N   1      21.276  20.608   0.624  0.00  0.00    -0.650 OA
BRANCH  14  16
HETATM   16  O   UNK N   1      21.583  21.461   2.652  0.00  0.00    -0.776 OA
HETATM   17  H   UNK N   1      21.962  21.204   3.470  0.00  0.00     0.167 HD
ENDBRANCH  14  16
ENDBRANCH  13  14
ENDBRANCH  12  13
ENDBRANCH  11  12
ENDBRANCH  10  11
BRANCH  10  18
HETATM   18  O   UNK N   1      19.260  16.795   4.604  0.00  0.00    -0.393 OA
HETATM   19  H   UNK N   1      18.710  17.140   5.324  0.00  0.00     0.210 HD
ENDBRANCH  10  18
ENDBRANCH   9  10
BRANCH   9  20
HETATM   20  O   UNK N   1      21.239  17.876   6.194  0.00  0.00    -0.389 OA
HETATM   21  H   UNK N   1      21.753  18.557   6.655  0.00  0.00     0.210 HD
ENDBRANCH   9  20
ENDBRANCH   8   9
ENDBRANCH   6   7
BRANCH   1  22
HETATM   22  C   UNK N   1      26.916  17.965   6.166  0.00  0.00     0.011 C 
HETATM   23  C   UNK N   1      27.860  18.268   7.048  0.00  0.00     0.005 C 
BRANCH  23  24
HETATM   24  C   UNK N   1      28.183  17.448   8.252  0.00  0.00     0.141 C 
BRANCH  24  25
HETATM   25  C   UNK N   1      29.670  17.347   8.552  0.00  0.00     0.036 C 
BRANCH  25  26
HETATM   26  C   UNK N   1      30.408  17.404   7.225  0.00  0.00     0.003 C 
BRANCH  26  27
HETATM   27  C   UNK N   1      30.687  16.026   6.677  0.00  0.00    -0.000 C 
BRANCH  27  28
HETATM   28  C   UNK N   1      30.191  15.986   5.245  0.00  0.00    -0.005 C 
HETATM   29  C   UNK N   1      30.418  17.326   4.582  0.00  0.00     0.005 C 
ENDBRANCH  27  28
ENDBRANCH  26  27
ENDBRANCH  25  26
ENDBRANCH  24  25
BRANCH  24  30
HETATM   30  O   UNK N   1      27.513  17.998   9.346  0.00  0.00    -0.392 OA
HETATM   31  H   UNK N   1      26.544  18.030   9.387  0.00  0.00     0.210 HD
ENDBRANCH  24  30
ENDBRANCH  23  24
ENDBRANCH   1  22
TORSDOF 17
ENDMDL
