REMARK  9 active torsions:
REMARK  status: ('A' for Active; 'I' for Inactive)
REMARK    1  A    between atoms: C_7  and  C_5 
REMARK    2  A    between atoms: C_8  and  C_5 
REMARK    3  A    between atoms: C_15  and  C_7 
REMARK    4  A    between atoms: C_16  and  C_8 
REMARK    5  A    between atoms: C_15  and  C_13 
REMARK    6  A    between atoms: C_18  and  C_13 
REMARK    7  A    between atoms: C_16  and  C_14 
REMARK    8  A    between atoms: C_20  and  C_14 
REMARK    9  A    between atoms: O_22  and  C_20 
ROOT
HETATM    1  C   UNK N   1       6.740  -1.075  -0.015  0.00  0.00     0.048 C 
HETATM    2  C   UNK N   1       5.401  -1.732   0.121  0.00  0.00    -0.061 C 
ENDROOT
BRANCH   2   3
HETATM    3  C   UNK N   1       5.358  -3.096   0.061  0.00  0.00     0.007 C 
BRANCH   3   4
HETATM    4  C   UNK N   1       4.125  -3.954   0.118  0.00  0.00     0.001 C 
BRANCH   4   5
HETATM    5  C   UNK N   1       2.912  -3.546  -0.314  0.00  0.00     0.007 C 
BRANCH   5   6
HETATM    6  C   UNK N   1       1.659  -4.317  -0.128  0.00  0.00    -0.056 C 
HETATM    7  C   UNK N   1       1.705  -5.735   0.361  0.00  0.00     0.048 C 
BRANCH   6   8
HETATM    8  C   UNK N   1       0.488  -3.665  -0.328  0.00  0.00     0.087 C 
BRANCH   8   9
HETATM    9  C   UNK N   1      -0.865  -4.225  -0.104  0.00  0.00     0.165 C 
HETATM   10  O   UNK N   1      -1.026  -5.383   0.253  0.00  0.00    -0.647 OA
BRANCH   9  11
HETATM   11  O   UNK N   1      -1.939  -3.430  -0.266  0.00  0.00    -0.773 OA
HETATM   12  H   UNK N   1      -1.833  -2.506  -0.379  0.00  0.00     0.167 HD
ENDBRANCH   9  11
ENDBRANCH   8   9
ENDBRANCH   6   8
ENDBRANCH   5   6
ENDBRANCH   4   5
ENDBRANCH   3   4
ENDBRANCH   2   3
BRANCH   2  13
HETATM   13  C   UNK N   1       4.173  -0.906   0.377  0.00  0.00     0.014 C 
BRANCH  13  14
HETATM   14  C   UNK N   1       3.991   0.410   0.115  0.00  0.00    -0.047 C 
HETATM   15  C   UNK N   1       5.101   1.261  -0.464  0.00  0.00     0.040 C 
HETATM   16  C   UNK N   1       4.591   2.551  -1.113  0.00  0.00     0.009 C 
HETATM   17  C   UNK N   1       3.629   3.277  -0.185  0.00  0.00     0.040 C 
HETATM   18  C   UNK N   1       2.452   2.404   0.107  0.00  0.00    -0.047 A 
HETATM   19  C   UNK N   1       1.173   2.967   0.188  0.00  0.00     0.008 A 
HETATM   20  C   UNK N   1       2.630   1.022   0.305  0.00  0.00    -0.024 A 
HETATM   21  C   UNK N   1       0.064   2.163   0.468  0.00  0.00     0.001 A 
HETATM   22  C   UNK N   1       0.231   0.794   0.677  0.00  0.00     0.001 A 
HETATM   23  C   UNK N   1       1.503   0.227   0.594  0.00  0.00     0.012 A 
ENDBRANCH  13  14
ENDBRANCH   2  13
TORSDOF 9
