REMARK  8 active torsions:
REMARK  status: ('A' for Active; 'I' for Inactive)
REMARK    1  A    between atoms: C_12  and  N_13 
REMARK    2  A    between atoms: N_13  and  C_14 
REMARK    3  A    between atoms: C_15  and  C_14 
REMARK    4  A    between atoms: C_15  and  C_16 
REMARK    5  A    between atoms: C_15  and  C_30 
REMARK    6  A    between atoms: C_15  and  O_34 
REMARK    7  A    between atoms: C_16  and  C_17 
REMARK    8  A    between atoms: C_17  and  C_20 
ROOT
HETATM    1  C   UNK N   1       4.478  -1.247  -0.560  0.00  0.00     0.172 C 
ENDROOT
BRANCH   1   2
HETATM    2  C   UNK N   1       4.792   0.258  -0.473  0.00  0.00     0.167 C 
BRANCH   2   3
HETATM    3  N   UNK N   1       4.016   0.905   0.559  0.00  0.00    -0.386 N 
HETATM    4  H   UNK N   1       3.985   0.521   1.465  0.00  0.00     0.159 HD
BRANCH   3   5
HETATM    5  C   UNK N   1       3.302   2.091   0.265  0.00  0.00     0.040 A 
HETATM    6  C   UNK N   1       3.981   3.235  -0.174  0.00  0.00     0.030 A 
HETATM    7  C   UNK N   1       3.270   4.393  -0.507  0.00  0.00     0.005 A 
HETATM    8  C   UNK N   1       1.873   4.405  -0.443  0.00  0.00     0.030 A 
HETATM    9  C   UNK N   1       1.184   3.265  -0.026  0.00  0.00     0.044 A 
HETATM   10  C   UNK N   1       1.898   2.108   0.349  0.00  0.00     0.017 A 
HETATM   11  N   UNK N   1      -0.180   3.253  -0.011  0.00  0.00    -0.359 N 
HETATM   12  C   UNK N   1       1.186   0.982   0.754  0.00  0.00     0.018 A 
HETATM   13  C   UNK N   1      -0.205   0.992   0.760  0.00  0.00     0.025 A 
HETATM   14  C   UNK N   1      -0.877   2.145   0.362  0.00  0.00     0.005 A 
HETATM   15  C   UNK N   1      -2.362   2.152   0.330  0.00  0.00     0.068 C 
ATOM     16  HN  UNK N   1      -0.689   4.094  -0.284  1.00  0.00     0.166 HD
ENDBRANCH   3   5
ENDBRANCH   2   3
ENDBRANCH   1   2
BRANCH   1  17
HETATM   17  C   UNK N   1       5.159  -1.921   0.656  0.00  0.00     0.062 C 
BRANCH  17  18
HETATM   18  C   UNK N   1       6.542  -2.583   0.486  0.00  0.00    -0.015 C 
HETATM   19  C   UNK N   1       7.253  -2.486   1.822  0.00  0.00     0.020 C 
HETATM   20  C   UNK N   1       7.406  -1.815  -0.513  0.00  0.00     0.020 C 
BRANCH  18  21
HETATM   21  C   UNK N   1       6.450  -4.063   0.122  0.00  0.00    -0.013 A 
HETATM   22  C   UNK N   1       7.614  -4.753  -0.281  0.00  0.00     0.053 A 
HETATM   23  C   UNK N   1       7.567  -6.123  -0.598  0.00  0.00     0.117 A 
HETATM   24  C   UNK N   1       6.360  -6.828  -0.502  0.00  0.00     0.052 A 
HETATM   25  F   UNK N   1       8.692  -6.765  -0.990  0.00  0.00    -0.206 F 
HETATM   26  C   UNK N   1       5.226  -6.142  -0.082  0.00  0.00    -0.019 A 
HETATM   27  C   UNK N   1       5.259  -4.823   0.223  0.00  0.00     0.082 A 
HETATM   28  C   UNK N   1       3.867  -6.683   0.127  0.00  0.00     0.068 A 
HETATM   29  O   UNK N   1       4.070  -4.397   0.641  0.00  0.00    -0.350 OA
HETATM   30  C   UNK N   1       3.128  -5.415   0.634  0.00  0.00     0.180 A 
ENDBRANCH  18  21
ENDBRANCH  17  18
ENDBRANCH   1  17
BRANCH   1  31
HETATM   31  C   UNK N   1       2.963  -1.546  -0.547  0.00  0.00     0.419 C 
HETATM   32  F   UNK N   1       2.724  -2.853  -0.920  0.00  0.00    -0.168 F 
HETATM   33  F   UNK N   1       2.441  -1.369   0.721  0.00  0.00    -0.168 F 
HETATM   34  F   UNK N   1       2.303  -0.729  -1.449  0.00  0.00    -0.168 F 
ENDBRANCH   1  31
BRANCH   1  35
HETATM   35  O   UNK N   1       4.985  -1.729  -1.771  0.00  0.00    -0.379 OA
HETATM   36  H   UNK N   1       4.871  -2.201  -2.611  0.00  0.00     0.211 HD
ENDBRANCH   1  35
TORSDOF 8
