MODEL 1
REMARK VINA RESULT:      -7.7      0.000      0.000
REMARK  6 active torsions:
REMARK  status: ('A' for Active; 'I' for Inactive)
REMARK    1  A    between atoms: C_14  and  C_10 
REMARK    2  A    between atoms: C_12  and  N_22 
REMARK    3  A    between atoms: N_23  and  C_13 
REMARK    4  A    between atoms: C_16  and  C_15 
REMARK       I    between atoms: N_22  and  C_16 
REMARK    5  A    between atoms: N_23  and  C_17 
REMARK    6  A    between atoms: O_25  and  C_17 
ROOT
HETATM    1  C   UNK N   1      20.788  15.648   8.972  0.00  0.00     0.051 A 
HETATM    2  C   UNK N   1      19.824  16.232   8.092  0.00  0.00     0.059 A 
HETATM    3  C   UNK N   1      21.390  14.506   8.431  0.00  0.00     0.018 A 
HETATM    4  C   UNK N   1      19.667  15.539   6.877  0.00  0.00     0.100 A 
HETATM    5  S   UNK N   1      20.725  14.261   6.932  0.00  0.00    -0.082 SA
ENDROOT
BRANCH   4   6
HETATM    6  C   UNK N   1      18.756  15.948   5.764  0.00  0.00     0.261 C 
HETATM    7  N   UNK N   1      19.175  16.318   4.519  0.00  0.00    -0.350 N 
HETATM    8  H   UNK N   1      18.488  16.715   3.937  0.00  0.00     0.163 HD
HETATM    9  O   UNK N   1      17.556  15.939   5.978  0.00  0.00    -0.267 OA
BRANCH   7  10
HETATM   10  C   UNK N   1      20.501  16.202   3.941  0.00  0.00     0.102 C 
HETATM   11  C   UNK N   1      20.925  17.528   3.307  0.00  0.00     0.028 C 
HETATM   12  C   UNK N   1      20.052  17.862   2.099  0.00  0.00     0.021 C 
HETATM   13  C   UNK N   1      20.046  16.683   1.127  0.00  0.00     0.114 C 
HETATM   14  N   UNK N   1      19.539  15.484   1.793  0.00  0.00    -0.419 N 
HETATM   15  C   UNK N   1      20.471  15.120   2.859  0.00  0.00     0.139 C 
HETATM   16  H   UNK N   1      18.682  14.986   1.554  0.00  0.00     0.153 HD
ENDBRANCH   7  10
ENDBRANCH   4   6
BRANCH   2  17
HETATM   17  N   UNK N   1      19.036  17.368   8.418  0.00  0.00    -0.321 N 
HETATM   18  H   UNK N   1      19.335  18.241   8.074  0.00  0.00     0.169 HD
BRANCH  17  19
HETATM   19  C   UNK N   1      17.850  17.346   9.202  0.00  0.00     0.215 C 
HETATM   20  N   UNK N   1      17.647  18.272  10.062  0.00  0.00    -0.365 N 
HETATM   21  H   UNK N   1      16.845  18.259  10.633  0.00  0.00     0.159 HD
ATOM     22  HN  UNK N   1      18.322  19.030  10.156  1.00  0.00     0.159 HD
BRANCH  19  23
HETATM   23  O   UNK N   1      16.938  16.365   9.056  0.00  0.00    -0.333 OA
HETATM   24  H   UNK N   1      16.155  16.522   8.566  0.00  0.00     0.220 HD
ENDBRANCH  19  23
ENDBRANCH  17  19
ENDBRANCH   2  17
BRANCH   3  25
HETATM   25  C   UNK N   1      22.422  13.670   9.063  0.00  0.00    -0.016 A 
HETATM   26  C   UNK N   1      23.649  13.444   8.421  0.00  0.00     0.013 A 
HETATM   27  C   UNK N   1      24.622  12.644   9.027  0.00  0.00     0.004 A 
HETATM   28  C   UNK N   1      24.378  12.071  10.279  0.00  0.00     0.042 A 
HETATM   29  C   UNK N   1      23.160  12.296  10.925  0.00  0.00     0.117 A 
HETATM   30  C   UNK N   1      22.185  13.091  10.318  0.00  0.00     0.055 A 
HETATM   31  F   UNK N   1      22.925  11.748  12.141  0.00  0.00    -0.206 F 
ENDBRANCH   3  25
TORSDOF 6
ENDMDL
MODEL 2
REMARK VINA RESULT:      -7.2      5.865      7.053
REMARK  6 active torsions:
REMARK  status: ('A' for Active; 'I' for Inactive)
REMARK    1  A    between atoms: C_14  and  C_10 
REMARK    2  A    between atoms: C_12  and  N_22 
REMARK    3  A    between atoms: N_23  and  C_13 
REMARK    4  A    between atoms: C_16  and  C_15 
REMARK       I    between atoms: N_22  and  C_16 
REMARK    5  A    between atoms: N_23  and  C_17 
REMARK    6  A    between atoms: O_25  and  C_17 
ROOT
HETATM    1  C   UNK N   1      22.961  19.874   3.159  0.00  0.00     0.051 A 
HETATM    2  C   UNK N   1      21.642  19.340   3.024  0.00  0.00     0.059 A 
HETATM    3  C   UNK N   1      23.839  18.986   3.792  0.00  0.00     0.018 A 
HETATM    4  C   UNK N   1      21.490  18.048   3.561  0.00  0.00     0.100 A 
HETATM    5  S   UNK N   1      22.979  17.617   4.158  0.00  0.00    -0.082 SA
ENDROOT
BRANCH   4   6
HETATM    6  C   UNK N   1      20.231  17.243   3.525  0.00  0.00     0.261 C 
HETATM    7  N   UNK N   1      19.755  16.602   2.418  0.00  0.00    -0.350 N 
HETATM    8  H   UNK N   1      18.841  16.246   2.490  0.00  0.00     0.163 HD
HETATM    9  O   UNK N   1      19.591  17.140   4.557  0.00  0.00    -0.267 OA
BRANCH   7  10
HETATM   10  C   UNK N   1      20.422  16.377   1.149  0.00  0.00     0.102 C 
HETATM   11  C   UNK N   1      19.398  16.067   0.056  0.00  0.00     0.028 C 
HETATM   12  C   UNK N   1      18.702  14.732   0.319  0.00  0.00     0.021 C 
HETATM   13  C   UNK N   1      19.749  13.637   0.520  0.00  0.00     0.114 C 
HETATM   14  N   UNK N   1      20.623  13.975   1.641  0.00  0.00    -0.419 N 
HETATM   15  C   UNK N   1      21.369  15.185   1.297  0.00  0.00     0.139 C 
HETATM   16  H   UNK N   1      20.700  13.455   2.515  0.00  0.00     0.153 HD
ENDBRANCH   7  10
ENDBRANCH   4   6
BRANCH   2  17
HETATM   17  N   UNK N   1      20.550  20.055   2.461  0.00  0.00    -0.321 N 
HETATM   18  H   UNK N   1      19.751  20.178   3.023  0.00  0.00     0.169 HD
BRANCH  17  19
HETATM   19  C   UNK N   1      20.520  20.609   1.151  0.00  0.00     0.215 C 
HETATM   20  N   UNK N   1      20.344  21.868   1.005  0.00  0.00    -0.365 N 
HETATM   21  H   UNK N   1      20.294  22.265   0.106  0.00  0.00     0.159 HD
ATOM     22  HN  UNK N   1      20.257  22.465   1.827  1.00  0.00     0.159 HD
BRANCH  19  23
HETATM   23  O   UNK N   1      20.671  19.829   0.064  0.00  0.00    -0.333 OA
HETATM   24  H   UNK N   1      21.476  19.843  -0.417  0.00  0.00     0.220 HD
ENDBRANCH  19  23
ENDBRANCH  17  19
ENDBRANCH   2  17
BRANCH   3  25
HETATM   25  C   UNK N   1      25.263  19.212   4.085  0.00  0.00    -0.016 A 
HETATM   26  C   UNK N   1      25.683  20.394   4.714  0.00  0.00     0.013 A 
HETATM   27  C   UNK N   1      27.039  20.602   4.985  0.00  0.00     0.004 A 
HETATM   28  C   UNK N   1      27.981  19.630   4.634  0.00  0.00     0.042 A 
HETATM   29  C   UNK N   1      27.568  18.450   4.010  0.00  0.00     0.117 A 
HETATM   30  C   UNK N   1      26.215  18.243   3.735  0.00  0.00     0.055 A 
HETATM   31  F   UNK N   1      28.478  17.504   3.676  0.00  0.00    -0.206 F 
ENDBRANCH   3  25
TORSDOF 6
ENDMDL
MODEL 3
REMARK VINA RESULT:      -6.9     15.381     17.178
REMARK  6 active torsions:
REMARK  status: ('A' for Active; 'I' for Inactive)
REMARK    1  A    between atoms: C_14  and  C_10 
REMARK    2  A    between atoms: C_12  and  N_22 
REMARK    3  A    between atoms: N_23  and  C_13 
REMARK    4  A    between atoms: C_16  and  C_15 
REMARK       I    between atoms: N_22  and  C_16 
REMARK    5  A    between atoms: N_23  and  C_17 
REMARK    6  A    between atoms: O_25  and  C_17 
ROOT
HETATM    1  C   UNK N   1      35.735  13.779  14.135  0.00  0.00     0.051 A 
HETATM    2  C   UNK N   1      35.714  13.726  12.707  0.00  0.00     0.059 A 
HETATM    3  C   UNK N   1      35.535  12.525  14.724  0.00  0.00     0.018 A 
HETATM    4  C   UNK N   1      35.484  12.439  12.186  0.00  0.00     0.100 A 
HETATM    5  S   UNK N   1      35.337  11.429  13.496  0.00  0.00    -0.082 SA
ENDROOT
BRANCH   4   6
HETATM    6  C   UNK N   1      35.447  12.092  10.732  0.00  0.00     0.261 C 
HETATM    7  N   UNK N   1      36.552  11.864   9.964  0.00  0.00    -0.350 N 
HETATM    8  H   UNK N   1      36.393  11.806   8.994  0.00  0.00     0.163 HD
HETATM    9  O   UNK N   1      34.356  11.993  10.198  0.00  0.00    -0.267 OA
BRANCH   7  10
HETATM   10  C   UNK N   1      37.929  11.698  10.390  0.00  0.00     0.102 C 
HETATM   11  C   UNK N   1      38.643  13.050  10.429  0.00  0.00     0.028 C 
HETATM   12  C   UNK N   1      38.786  13.635   9.025  0.00  0.00     0.021 C 
HETATM   13  C   UNK N   1      39.447  12.610   8.105  0.00  0.00     0.114 C 
HETATM   14  N   UNK N   1      38.648  11.387   8.057  0.00  0.00    -0.419 N 
HETATM   15  C   UNK N   1      38.644  10.786   9.390  0.00  0.00     0.139 C 
HETATM   16  H   UNK N   1      38.175  11.015   7.234  0.00  0.00     0.153 HD
ENDBRANCH   7  10
ENDBRANCH   4   6
BRANCH   2  17
HETATM   17  N   UNK N   1      35.844  14.866  11.868  0.00  0.00    -0.321 N 
HETATM   18  H   UNK N   1      36.755  15.186  11.677  0.00  0.00     0.169 HD
BRANCH  17  19
HETATM   19  C   UNK N   1      34.763  15.581  11.282  0.00  0.00     0.215 C 
HETATM   20  N   UNK N   1      34.946  16.784  10.885  0.00  0.00    -0.365 N 
HETATM   21  H   UNK N   1      34.204  17.303  10.502  0.00  0.00     0.159 HD
ATOM     22  HN  UNK N   1      35.870  17.207  10.966  1.00  0.00     0.159 HD
BRANCH  19  23
HETATM   23  O   UNK N   1      33.549  15.013  11.141  0.00  0.00    -0.333 OA
HETATM   24  H   UNK N   1      33.444  14.092  11.277  0.00  0.00     0.220 HD
ENDBRANCH  19  23
ENDBRANCH  17  19
ENDBRANCH   2  17
BRANCH   3  25
HETATM   25  C   UNK N   1      35.503  12.221  16.163  0.00  0.00    -0.016 A 
HETATM   26  C   UNK N   1      35.832  10.939  16.629  0.00  0.00     0.013 A 
HETATM   27  C   UNK N   1      35.795  10.657  17.998  0.00  0.00     0.004 A 
HETATM   28  C   UNK N   1      35.436  11.656  18.909  0.00  0.00     0.042 A 
HETATM   29  C   UNK N   1      35.112  12.935  18.451  0.00  0.00     0.117 A 
HETATM   30  C   UNK N   1      35.143  13.216  17.084  0.00  0.00     0.055 A 
HETATM   31  F   UNK N   1      34.770  13.905  19.333  0.00  0.00    -0.206 F 
ENDBRANCH   3  25
TORSDOF 6
ENDMDL
MODEL 4
REMARK VINA RESULT:      -6.8      2.698      3.281
REMARK  6 active torsions:
REMARK  status: ('A' for Active; 'I' for Inactive)
REMARK    1  A    between atoms: C_14  and  C_10 
REMARK    2  A    between atoms: C_12  and  N_22 
REMARK    3  A    between atoms: N_23  and  C_13 
REMARK    4  A    between atoms: C_16  and  C_15 
REMARK       I    between atoms: N_22  and  C_16 
REMARK    5  A    between atoms: N_23  and  C_17 
REMARK    6  A    between atoms: O_25  and  C_17 
ROOT
HETATM    1  C   UNK N   1      21.567  15.159   7.889  0.00  0.00     0.051 A 
HETATM    2  C   UNK N   1      21.539  15.643   6.544  0.00  0.00     0.059 A 
HETATM    3  C   UNK N   1      22.369  14.022   8.036  0.00  0.00     0.018 A 
HETATM    4  C   UNK N   1      22.307  14.879   5.646  0.00  0.00     0.100 A 
HETATM    5  S   UNK N   1      22.993  13.661   6.543  0.00  0.00    -0.082 SA
ENDROOT
BRANCH   4   6
HETATM    6  C   UNK N   1      22.483  15.179   4.192  0.00  0.00     0.261 C 
HETATM    7  N   UNK N   1      21.894  14.478   3.181  0.00  0.00    -0.350 N 
HETATM    8  H   UNK N   1      22.221  14.677   2.275  0.00  0.00     0.163 HD
HETATM    9  O   UNK N   1      23.194  16.122   3.888  0.00  0.00    -0.267 OA
BRANCH   7  10
HETATM   10  C   UNK N   1      20.847  13.476   3.268  0.00  0.00     0.102 C 
HETATM   11  C   UNK N   1      20.877  12.564   2.040  0.00  0.00     0.028 C 
HETATM   12  C   UNK N   1      20.509  13.337   0.774  0.00  0.00     0.021 C 
HETATM   13  C   UNK N   1      19.178  14.058   0.980  0.00  0.00     0.114 C 
HETATM   14  N   UNK N   1      19.272  14.974   2.115  0.00  0.00    -0.419 N 
HETATM   15  C   UNK N   1      19.493  14.187   3.327  0.00  0.00     0.139 C 
HETATM   16  H   UNK N   1      19.195  15.990   2.070  0.00  0.00     0.153 HD
ENDBRANCH   7  10
ENDBRANCH   4   6
BRANCH   2  17
HETATM   17  N   UNK N   1      20.764  16.754   6.116  0.00  0.00    -0.321 N 
HETATM   18  H   UNK N   1      19.866  16.569   5.757  0.00  0.00     0.169 HD
BRANCH  17  19
HETATM   19  C   UNK N   1      21.180  18.113   6.166  0.00  0.00     0.215 C 
HETATM   20  N   UNK N   1      21.805  18.616   5.169  0.00  0.00    -0.365 N 
HETATM   21  H   UNK N   1      22.125  19.547   5.196  0.00  0.00     0.159 HD
ATOM     22  HN  UNK N   1      21.971  18.048   4.339  1.00  0.00     0.159 HD
BRANCH  19  23
HETATM   23  O   UNK N   1      20.931  18.878   7.247  0.00  0.00    -0.333 OA
HETATM   24  H   UNK N   1      21.275  19.748   7.296  0.00  0.00     0.220 HD
ENDBRANCH  19  23
ENDBRANCH  17  19
ENDBRANCH   2  17
BRANCH   3  25
HETATM   25  C   UNK N   1      22.622  13.275   9.279  0.00  0.00    -0.016 A 
HETATM   26  C   UNK N   1      23.925  12.887   9.625  0.00  0.00     0.013 A 
HETATM   27  C   UNK N   1      24.156  12.174  10.805  0.00  0.00     0.004 A 
HETATM   28  C   UNK N   1      23.089  11.850  11.648  0.00  0.00     0.042 A 
HETATM   29  C   UNK N   1      21.789  12.237  11.310  0.00  0.00     0.117 A 
HETATM   30  C   UNK N   1      21.558  12.945  10.129  0.00  0.00     0.055 A 
HETATM   31  F   UNK N   1      20.755  11.930  12.129  0.00  0.00    -0.206 F 
ENDBRANCH   3  25
TORSDOF 6
ENDMDL
MODEL 5
REMARK VINA RESULT:      -6.7     14.360     16.343
REMARK  6 active torsions:
REMARK  status: ('A' for Active; 'I' for Inactive)
REMARK    1  A    between atoms: C_14  and  C_10 
REMARK    2  A    between atoms: C_12  and  N_22 
REMARK    3  A    between atoms: N_23  and  C_13 
REMARK    4  A    between atoms: C_16  and  C_15 
REMARK       I    between atoms: N_22  and  C_16 
REMARK    5  A    between atoms: N_23  and  C_17 
REMARK    6  A    between atoms: O_25  and  C_17 
ROOT
HETATM    1  C   UNK N   1      36.154  14.182  13.815  0.00  0.00     0.051 A 
HETATM    2  C   UNK N   1      36.366  14.245  12.402  0.00  0.00     0.059 A 
HETATM    3  C   UNK N   1      36.021  12.870  14.282  0.00  0.00     0.018 A 
HETATM    4  C   UNK N   1      36.386  12.987  11.771  0.00  0.00     0.100 A 
HETATM    5  S   UNK N   1      36.160  11.863  12.973  0.00  0.00    -0.082 SA
ENDROOT
BRANCH   4   6
HETATM    6  C   UNK N   1      36.625  12.758  10.313  0.00  0.00     0.261 C 
HETATM    7  N   UNK N   1      35.668  12.357   9.427  0.00  0.00    -0.350 N 
HETATM    8  H   UNK N   1      35.994  12.090   8.538  0.00  0.00     0.163 HD
HETATM    9  O   UNK N   1      37.749  12.954   9.883  0.00  0.00    -0.267 OA
BRANCH   7  10
HETATM   10  C   UNK N   1      34.232  12.273   9.625  0.00  0.00     0.102 C 
HETATM   11  C   UNK N   1      33.805  10.819   9.825  0.00  0.00     0.028 C 
HETATM   12  C   UNK N   1      34.024  10.002   8.552  0.00  0.00     0.021 C 
HETATM   13  C   UNK N   1      33.341  10.694   7.373  0.00  0.00     0.114 C 
HETATM   14  N   UNK N   1      33.878  12.043   7.201  0.00  0.00    -0.419 N 
HETATM   15  C   UNK N   1      33.534  12.831   8.383  0.00  0.00     0.139 C 
HETATM   16  H   UNK N   1      34.403  12.377   6.393  0.00  0.00     0.153 HD
ENDBRANCH   7  10
ENDBRANCH   4   6
BRANCH   2  17
HETATM   17  N   UNK N   1      36.485  15.457  11.670  0.00  0.00    -0.321 N 
HETATM   18  H   UNK N   1      37.383  15.851  11.589  0.00  0.00     0.169 HD
BRANCH  17  19
HETATM   19  C   UNK N   1      35.409  16.145  11.044  0.00  0.00     0.215 C 
HETATM   20  N   UNK N   1      34.243  15.617  11.038  0.00  0.00    -0.365 N 
HETATM   21  H   UNK N   1      33.492  16.065  10.587  0.00  0.00     0.159 HD
ATOM     22  HN  UNK N   1      34.091  14.724  11.507  1.00  0.00     0.159 HD
BRANCH  19  23
HETATM   23  O   UNK N   1      35.598  17.341  10.455  0.00  0.00    -0.333 OA
HETATM   24  H   UNK N   1      34.967  18.025  10.568  0.00  0.00     0.220 HD
ENDBRANCH  19  23
ENDBRANCH  17  19
ENDBRANCH   2  17
BRANCH   3  25
HETATM   25  C   UNK N   1      35.799  12.447  15.674  0.00  0.00    -0.016 A 
HETATM   26  C   UNK N   1      35.973  11.107  16.049  0.00  0.00     0.013 A 
HETATM   27  C   UNK N   1      35.756  10.713  17.373  0.00  0.00     0.004 A 
HETATM   28  C   UNK N   1      35.370  11.656  18.330  0.00  0.00     0.042 A 
HETATM   29  C   UNK N   1      35.200  12.994  17.964  0.00  0.00     0.117 A 
HETATM   30  C   UNK N   1      35.412  13.387  16.640  0.00  0.00     0.055 A 
HETATM   31  F   UNK N   1      34.833  13.911  18.891  0.00  0.00    -0.206 F 
ENDBRANCH   3  25
TORSDOF 6
ENDMDL
MODEL 6
REMARK VINA RESULT:      -6.7      1.701      2.318
REMARK  6 active torsions:
REMARK  status: ('A' for Active; 'I' for Inactive)
REMARK    1  A    between atoms: C_14  and  C_10 
REMARK    2  A    between atoms: C_12  and  N_22 
REMARK    3  A    between atoms: N_23  and  C_13 
REMARK    4  A    between atoms: C_16  and  C_15 
REMARK       I    between atoms: N_22  and  C_16 
REMARK    5  A    between atoms: N_23  and  C_17 
REMARK    6  A    between atoms: O_25  and  C_17 
ROOT
HETATM    1  C   UNK N   1      21.688  15.567   7.878  0.00  0.00     0.051 A 
HETATM    2  C   UNK N   1      20.815  16.248   6.972  0.00  0.00     0.059 A 
HETATM    3  C   UNK N   1      21.500  14.180   7.869  0.00  0.00     0.018 A 
HETATM    4  C   UNK N   1      19.943  15.395   6.271  0.00  0.00     0.100 A 
HETATM    5  S   UNK N   1      20.293  13.853   6.780  0.00  0.00    -0.082 SA
ENDROOT
BRANCH   4   6
HETATM    6  C   UNK N   1      18.954  15.834   5.239  0.00  0.00     0.261 C 
HETATM    7  N   UNK N   1      19.263  16.107   3.939  0.00  0.00    -0.350 N 
HETATM    8  H   UNK N   1      18.553  16.538   3.412  0.00  0.00     0.163 HD
HETATM    9  O   UNK N   1      17.788  15.944   5.579  0.00  0.00    -0.267 OA
BRANCH   7  10
HETATM   10  C   UNK N   1      20.503  15.843   3.231  0.00  0.00     0.102 C 
HETATM   11  C   UNK N   1      21.004  17.113   2.542  0.00  0.00     0.028 C 
HETATM   12  C   UNK N   1      20.055  17.541   1.423  0.00  0.00     0.021 C 
HETATM   13  C   UNK N   1      19.819  16.368   0.472  0.00  0.00     0.114 C 
HETATM   14  N   UNK N   1      19.254  15.234   1.201  0.00  0.00    -0.419 N 
HETATM   15  C   UNK N   1      20.244  14.770   2.172  0.00  0.00     0.139 C 
HETATM   16  H   UNK N   1      18.328  14.834   1.056  0.00  0.00     0.153 HD
ENDBRANCH   7  10
ENDBRANCH   4   6
BRANCH   2  17
HETATM   17  N   UNK N   1      20.769  17.660   6.824  0.00  0.00    -0.321 N 
HETATM   18  H   UNK N   1      20.143  18.155   7.399  0.00  0.00     0.169 HD
BRANCH  17  19
HETATM   19  C   UNK N   1      21.557  18.415   5.911  0.00  0.00     0.215 C 
HETATM   20  N   UNK N   1      22.788  18.110   5.741  0.00  0.00    -0.365 N 
HETATM   21  H   UNK N   1      23.355  18.637   5.134  0.00  0.00     0.159 HD
ATOM     22  HN  UNK N   1      23.184  17.312   6.238  1.00  0.00     0.159 HD
BRANCH  19  23
HETATM   23  O   UNK N   1      21.028  19.447   5.226  0.00  0.00    -0.333 OA
HETATM   24  H   UNK N   1      21.548  20.206   5.045  0.00  0.00     0.220 HD
ENDBRANCH  19  23
ENDBRANCH  17  19
ENDBRANCH   2  17
BRANCH   3  25
HETATM   25  C   UNK N   1      22.230  13.186   8.671  0.00  0.00    -0.016 A 
HETATM   26  C   UNK N   1      23.042  12.226   8.049  0.00  0.00     0.013 A 
HETATM   27  C   UNK N   1      23.729  11.282   8.818  0.00  0.00     0.004 A 
HETATM   28  C   UNK N   1      23.612  11.295  10.211  0.00  0.00     0.042 A 
HETATM   29  C   UNK N   1      22.808  12.251  10.836  0.00  0.00     0.117 A 
HETATM   30  C   UNK N   1      22.118  13.191  10.068  0.00  0.00     0.055 A 
HETATM   31  F   UNK N   1      22.699  12.269  12.186  0.00  0.00    -0.206 F 
ENDBRANCH   3  25
TORSDOF 6
ENDMDL
MODEL 7
REMARK VINA RESULT:      -6.6      2.744      3.631
REMARK  6 active torsions:
REMARK  status: ('A' for Active; 'I' for Inactive)
REMARK    1  A    between atoms: C_14  and  C_10 
REMARK    2  A    between atoms: C_12  and  N_22 
REMARK    3  A    between atoms: N_23  and  C_13 
REMARK    4  A    between atoms: C_16  and  C_15 
REMARK       I    between atoms: N_22  and  C_16 
REMARK    5  A    between atoms: N_23  and  C_17 
REMARK    6  A    between atoms: O_25  and  C_17 
ROOT
HETATM    1  C   UNK N   1      20.755  13.790   7.242  0.00  0.00     0.051 A 
HETATM    2  C   UNK N   1      20.874  14.493   6.003  0.00  0.00     0.059 A 
HETATM    3  C   UNK N   1      21.950  13.774   7.970  0.00  0.00     0.018 A 
HETATM    4  C   UNK N   1      22.161  15.011   5.762  0.00  0.00     0.100 A 
HETATM    5  S   UNK N   1      23.081  14.598   7.082  0.00  0.00    -0.082 SA
ENDROOT
BRANCH   4   6
HETATM    6  C   UNK N   1      22.555  15.817   4.566  0.00  0.00     0.261 C 
HETATM    7  N   UNK N   1      23.327  15.352   3.541  0.00  0.00    -0.350 N 
HETATM    8  H   UNK N   1      23.643  16.030   2.902  0.00  0.00     0.163 HD
HETATM    9  O   UNK N   1      22.150  16.965   4.494  0.00  0.00    -0.267 OA
BRANCH   7  10
HETATM   10  C   UNK N   1      23.743  13.988   3.271  0.00  0.00     0.102 C 
HETATM   11  C   UNK N   1      25.035  13.976   2.453  0.00  0.00     0.028 C 
HETATM   12  C   UNK N   1      24.804  14.547   1.055  0.00  0.00     0.021 C 
HETATM   13  C   UNK N   1      23.638  13.818   0.388  0.00  0.00     0.114 C 
HETATM   14  N   UNK N   1      22.427  13.962   1.193  0.00  0.00    -0.419 N 
HETATM   15  C   UNK N   1      22.641  13.289   2.473  0.00  0.00     0.139 C 
HETATM   16  H   UNK N   1      21.577  14.449   0.910  0.00  0.00     0.153 HD
ENDBRANCH   7  10
ENDBRANCH   4   6
BRANCH   2  17
HETATM   17  N   UNK N   1      19.823  14.616   5.055  0.00  0.00    -0.321 N 
HETATM   18  H   UNK N   1      19.702  13.878   4.415  0.00  0.00     0.169 HD
BRANCH  17  19
HETATM   19  C   UNK N   1      18.932  15.720   4.956  0.00  0.00     0.215 C 
HETATM   20  N   UNK N   1      19.120  16.601   4.048  0.00  0.00    -0.365 N 
HETATM   21  H   UNK N   1      18.530  17.386   3.981  0.00  0.00     0.159 HD
ATOM     22  HN  UNK N   1      19.888  16.488   3.386  1.00  0.00     0.159 HD
BRANCH  19  23
HETATM   23  O   UNK N   1      17.895  15.854   5.806  0.00  0.00    -0.333 OA
HETATM   24  H   UNK N   1      17.422  16.662   5.846  0.00  0.00     0.220 HD
ENDBRANCH  19  23
ENDBRANCH  17  19
ENDBRANCH   2  17
BRANCH   3  25
HETATM   25  C   UNK N   1      22.175  13.146   9.282  0.00  0.00    -0.016 A 
HETATM   26  C   UNK N   1      23.476  12.853   9.718  0.00  0.00     0.013 A 
HETATM   27  C   UNK N   1      23.681  12.253  10.964  0.00  0.00     0.004 A 
HETATM   28  C   UNK N   1      22.589  11.947  11.783  0.00  0.00     0.042 A 
HETATM   29  C   UNK N   1      21.292  12.240  11.355  0.00  0.00     0.117 A 
HETATM   30  C   UNK N   1      21.086  12.835  10.109  0.00  0.00     0.055 A 
HETATM   31  F   UNK N   1      20.234  11.952  12.150  0.00  0.00    -0.206 F 
ENDBRANCH   3  25
TORSDOF 6
ENDMDL
MODEL 8
REMARK VINA RESULT:      -6.6      3.249      4.069
REMARK  6 active torsions:
REMARK  status: ('A' for Active; 'I' for Inactive)
REMARK    1  A    between atoms: C_14  and  C_10 
REMARK    2  A    between atoms: C_12  and  N_22 
REMARK    3  A    between atoms: N_23  and  C_13 
REMARK    4  A    between atoms: C_16  and  C_15 
REMARK       I    between atoms: N_22  and  C_16 
REMARK    5  A    between atoms: N_23  and  C_17 
REMARK    6  A    between atoms: O_25  and  C_17 
ROOT
HETATM    1  C   UNK N   1      20.966  15.029   7.830  0.00  0.00     0.051 A 
HETATM    2  C   UNK N   1      21.111  15.619   6.536  0.00  0.00     0.059 A 
HETATM    3  C   UNK N   1      22.005  14.145   8.139  0.00  0.00     0.018 A 
HETATM    4  C   UNK N   1      22.252  15.185   5.835  0.00  0.00     0.100 A 
HETATM    5  S   UNK N   1      23.033  14.118   6.839  0.00  0.00    -0.082 SA
ENDROOT
BRANCH   4   6
HETATM    6  C   UNK N   1      22.666  15.665   4.481  0.00  0.00     0.261 C 
HETATM    7  N   UNK N   1      23.642  16.591   4.254  0.00  0.00    -0.350 N 
HETATM    8  H   UNK N   1      23.701  16.933   3.334  0.00  0.00     0.163 HD
HETATM    9  O   UNK N   1      22.101  15.188   3.511  0.00  0.00    -0.267 OA
BRANCH   7  10
HETATM   10  C   UNK N   1      24.604  17.137   5.194  0.00  0.00     0.102 C 
HETATM   11  C   UNK N   1      25.057  18.528   4.747  0.00  0.00     0.028 C 
HETATM   12  C   UNK N   1      25.853  18.453   3.444  0.00  0.00     0.021 C 
HETATM   13  C   UNK N   1      26.993  17.447   3.596  0.00  0.00     0.114 C 
HETATM   14  N   UNK N   1      26.460  16.128   3.932  0.00  0.00    -0.419 N 
HETATM   15  C   UNK N   1      25.820  16.210   5.244  0.00  0.00     0.139 C 
HETATM   16  H   UNK N   1      26.523  15.293   3.351  0.00  0.00     0.153 HD
ENDBRANCH   7  10
ENDBRANCH   4   6
BRANCH   2  17
HETATM   17  N   UNK N   1      20.169  16.513   5.960  0.00  0.00    -0.321 N 
HETATM   18  H   UNK N   1      20.307  17.476   6.111  0.00  0.00     0.169 HD
BRANCH  17  19
HETATM   19  C   UNK N   1      19.041  16.128   5.184  0.00  0.00     0.215 C 
HETATM   20  N   UNK N   1      19.145  16.070   3.910  0.00  0.00    -0.365 N 
HETATM   21  H   UNK N   1      18.369  15.832   3.354  0.00  0.00     0.159 HD
ATOM     22  HN  UNK N   1      20.041  16.272   3.467  1.00  0.00     0.159 HD
BRANCH  19  23
HETATM   23  O   UNK N   1      17.865  15.827   5.767  0.00  0.00    -0.333 OA
HETATM   24  H   UNK N   1      17.788  15.838   6.702  0.00  0.00     0.220 HD
ENDBRANCH  19  23
ENDBRANCH  17  19
ENDBRANCH   2  17
BRANCH   3  25
HETATM   25  C   UNK N   1      22.169  13.375   9.383  0.00  0.00    -0.016 A 
HETATM   26  C   UNK N   1      23.447  13.030   9.845  0.00  0.00     0.013 A 
HETATM   27  C   UNK N   1      23.593  12.295  11.025  0.00  0.00     0.004 A 
HETATM   28  C   UNK N   1      22.464  11.907  11.753  0.00  0.00     0.042 A 
HETATM   29  C   UNK N   1      21.188  12.251  11.300  0.00  0.00     0.117 A 
HETATM   30  C   UNK N   1      21.042  12.981  10.118  0.00  0.00     0.055 A 
HETATM   31  F   UNK N   1      20.094  11.882  12.007  0.00  0.00    -0.206 F 
ENDBRANCH   3  25
TORSDOF 6
ENDMDL
MODEL 9
REMARK VINA RESULT:      -6.6      2.410      3.700
REMARK  6 active torsions:
REMARK  status: ('A' for Active; 'I' for Inactive)
REMARK    1  A    between atoms: C_14  and  C_10 
REMARK    2  A    between atoms: C_12  and  N_22 
REMARK    3  A    between atoms: N_23  and  C_13 
REMARK    4  A    between atoms: C_16  and  C_15 
REMARK       I    between atoms: N_22  and  C_16 
REMARK    5  A    between atoms: N_23  and  C_17 
REMARK    6  A    between atoms: O_25  and  C_17 
ROOT
HETATM    1  C   UNK N   1      20.732  12.775   6.452  0.00  0.00     0.051 A 
HETATM    2  C   UNK N   1      19.885  13.486   5.547  0.00  0.00     0.059 A 
HETATM    3  C   UNK N   1      21.203  13.579   7.496  0.00  0.00     0.018 A 
HETATM    4  C   UNK N   1      19.707  14.843   5.878  0.00  0.00     0.100 A 
HETATM    5  S   UNK N   1      20.580  15.099   7.268  0.00  0.00    -0.082 SA
ENDROOT
BRANCH   4   6
HETATM    6  C   UNK N   1      18.846  15.807   5.127  0.00  0.00     0.261 C 
HETATM    7  N   UNK N   1      19.305  16.685   4.189  0.00  0.00    -0.350 N 
HETATM    8  H   UNK N   1      18.662  17.368   3.892  0.00  0.00     0.163 HD
HETATM    9  O   UNK N   1      17.649  15.802   5.360  0.00  0.00    -0.267 OA
BRANCH   7  10
HETATM   10  C   UNK N   1      20.617  16.742   3.572  0.00  0.00     0.102 C 
HETATM   11  C   UNK N   1      21.428  17.903   4.149  0.00  0.00     0.028 C 
HETATM   12  C   UNK N   1      20.810  19.247   3.766  0.00  0.00     0.021 C 
HETATM   13  C   UNK N   1      20.620  19.313   2.251  0.00  0.00     0.114 C 
HETATM   14  N   UNK N   1      19.758  18.221   1.803  0.00  0.00    -0.419 N 
HETATM   15  C   UNK N   1      20.442  16.956   2.067  0.00  0.00     0.139 C 
HETATM   16  H   UNK N   1      18.837  18.324   1.379  0.00  0.00     0.153 HD
ENDBRANCH   7  10
ENDBRANCH   4   6
BRANCH   2  17
HETATM   17  N   UNK N   1      19.315  12.915   4.378  0.00  0.00    -0.321 N 
HETATM   18  H   UNK N   1      18.684  12.170   4.499  0.00  0.00     0.169 HD
BRANCH  17  19
HETATM   19  C   UNK N   1      19.584  13.335   3.046  0.00  0.00     0.215 C 
HETATM   20  N   UNK N   1      20.736  13.112   2.536  0.00  0.00    -0.365 N 
HETATM   21  H   UNK N   1      20.949  13.419   1.626  0.00  0.00     0.159 HD
ATOM     22  HN  UNK N   1      21.439  12.611   3.078  1.00  0.00     0.159 HD
BRANCH  19  23
HETATM   23  O   UNK N   1      18.646  13.967   2.314  0.00  0.00    -0.333 OA
HETATM   24  H   UNK N   1      17.925  14.390   2.738  0.00  0.00     0.220 HD
ENDBRANCH  19  23
ENDBRANCH  17  19
ENDBRANCH   2  17
BRANCH   3  25
HETATM   25  C   UNK N   1      22.087  13.168   8.599  0.00  0.00    -0.016 A 
HETATM   26  C   UNK N   1      21.574  12.465   9.699  0.00  0.00     0.013 A 
HETATM   27  C   UNK N   1      22.420  12.081  10.744  0.00  0.00     0.004 A 
HETATM   28  C   UNK N   1      23.782  12.392  10.692  0.00  0.00     0.042 A 
HETATM   29  C   UNK N   1      24.299  13.089   9.597  0.00  0.00     0.117 A 
HETATM   30  C   UNK N   1      23.454  13.477   8.555  0.00  0.00     0.055 A 
HETATM   31  F   UNK N   1      25.620  13.385   9.542  0.00  0.00    -0.206 F 
ENDBRANCH   3  25
TORSDOF 6
ENDMDL
