REMARK  8 active torsions:
REMARK  status: ('A' for Active; 'I' for Inactive)
REMARK    1  A    between atoms: C_10  and  O_11 
REMARK       I    between atoms: N_12  and  C_17 
REMARK    2  A    between atoms: C_14  and  C_15 
REMARK    3  A    between atoms: C_17  and  C_19 
REMARK    4  A    between atoms: C_23  and  N_28 
REMARK       I    between atoms: N_28  and  C_29 
REMARK       I    between atoms: C_29  and  N_31 
REMARK    5  A    between atoms: N_31  and  C_32 
REMARK    6  A    between atoms: C_39  and  C_41 
REMARK       I    between atoms: C_41  and  N_43 
REMARK    7  A    between atoms: C_45  and  C_57 
REMARK    8  A    between atoms: C_49  and  O_56 
ROOT
HETATM    1  N   UNK N   1      10.049   4.464   0.322  0.00  0.00    -0.309 N 
HETATM    2  C   UNK N   1       9.008   3.635  -0.007  0.00  0.00     0.325 C 
HETATM    3  O   UNK N   1       7.863   3.932   0.290  0.00  0.00    -0.247 OA
HETATM    4  N   UNK N   1       9.301   2.434  -0.568  0.00  0.00    -0.309 N 
HETATM    5  H   UNK N   1       9.897   5.419   0.505  0.00  0.00     0.170 HD
HETATM    6  H   UNK N   1      10.140   2.441  -1.082  0.00  0.00     0.170 HD
ENDROOT
BRANCH   1   7
HETATM    7  C   UNK N   1      11.363   3.902   0.390  0.00  0.00     0.037 C 
HETATM    8  C   UNK N   1      11.741   2.932  -0.577  0.00  0.00     0.043 C 
HETATM    9  C   UNK N   1      12.495   1.855  -0.171  0.00  0.00    -0.005 A 
HETATM   10  C   UNK N   1      12.855   0.718  -0.859  0.00  0.00     0.049 A 
HETATM   11  C   UNK N   1      12.977   1.764   1.096  0.00  0.00     0.043 A 
HETATM   12  C   UNK N   1      13.553  -0.036   0.081  0.00  0.00     0.102 A 
HETATM   13  N   UNK N   1      13.660   0.628   1.261  0.00  0.00    -0.351 N 
HETATM   14  H   UNK N   1      14.141   0.334   2.068  0.00  0.00     0.166 HD
HETATM   15  C   UNK N   1      12.782   2.769   2.036  0.00  0.00     0.033 C 
HETATM   16  C   UNK N   1      11.928   3.827   1.684  0.00  0.00     0.032 C 
BRANCH  12  17
HETATM   17  C   UNK N   1      14.506  -1.087  -0.274  0.00  0.00     0.275 C 
HETATM   18  N   UNK N   1      15.831  -0.769  -0.390  0.00  0.00    -0.311 N 
HETATM   19  C   UNK N   1      16.357   0.534  -0.362  0.00  0.00     0.048 A 
HETATM   20  C   UNK N   1      16.899  -1.742  -0.504  0.00  0.00     0.143 A 
HETATM   21  C   UNK N   1      17.713   0.515  -0.340  0.00  0.00    -0.011 A 
HETATM   22  C   UNK N   1      15.643   1.753  -0.377  0.00  0.00     0.069 A 
HETATM   23  C   UNK N   1      18.403   1.734  -0.269  0.00  0.00     0.010 A 
HETATM   24  C   UNK N   1      18.218  -0.896  -0.403  0.00  0.00     0.054 A 
HETATM   25  C   UNK N   1      17.715   2.925  -0.257  0.00  0.00     0.077 A 
HETATM   26  C   UNK N   1      19.732   2.058  -0.203  0.00  0.00    -0.033 A 
HETATM   27  N   UNK N   1      18.554   3.972  -0.186  0.00  0.00    -0.362 N 
HETATM   28  C   UNK N   1      16.325   2.969  -0.323  0.00  0.00     0.095 A 
HETATM   29  C   UNK N   1      19.804   3.446  -0.149  0.00  0.00     0.096 A 
HETATM   30  H   UNK N   1      18.312   4.925  -0.165  0.00  0.00     0.165 HD
HETATM   31  C   UNK N   1      20.889   1.127  -0.180  0.00  0.00     0.050 C 
HETATM   32  O   UNK N   1      14.126  -2.243  -0.388  0.00  0.00    -0.265 OA
BRANCH  28  33
HETATM   33  O   UNK N   1      15.653   4.133  -0.328  0.00  0.00    -0.358 OA
HETATM   34  H   UNK N   1      16.121   4.944  -0.331  0.00  0.00     0.217 HD
ENDBRANCH  28  33
BRANCH  24  35
HETATM   35  C   UNK N   1      18.970  -1.243   0.866  0.00  0.00     0.125 C 
HETATM   36 Cl   UNK N   1      20.265  -2.397   0.476  0.00  0.00    -0.130 Cl
ENDBRANCH  24  35
ENDBRANCH  12  17
ENDBRANCH   1   7
BRANCH   4  37
HETATM   37  C   UNK N   1       8.666   1.195  -0.570  0.00  0.00     0.037 A 
HETATM   38  C   UNK N   1       9.001   0.281  -1.599  0.00  0.00     0.032 A 
HETATM   39  C   UNK N   1       8.460  -1.011  -1.610  0.00  0.00     0.032 A 
HETATM   40  C   UNK N   1       7.642  -1.356  -0.548  0.00  0.00     0.039 A 
HETATM   41  C   UNK N   1       7.412  -0.505   0.490  0.00  0.00    -0.009 A 
HETATM   42  N   UNK N   1       6.838  -2.421  -0.476  0.00  0.00    -0.373 N 
HETATM   43  C   UNK N   1       7.901   0.785   0.524  0.00  0.00     0.043 A 
HETATM   44  C   UNK N   1       6.473  -1.058   1.289  0.00  0.00     0.021 A 
HETATM   45  C   UNK N   1       6.085  -2.228   0.634  0.00  0.00     0.199 A 
HETATM   46  H   UNK N   1       6.801  -3.184  -1.098  0.00  0.00     0.161 HD
BRANCH  45  47
HETATM   47  C   UNK N   1       4.634  -2.414   0.504  0.00  0.00     0.251 C 
HETATM   48  O   UNK N   1       4.130  -3.511   0.689  0.00  0.00    -0.270 OA
HETATM   49  N   UNK N   1       3.872  -1.322   0.143  0.00  0.00    -0.315 N 
HETATM   50  C   UNK N   1       4.442  -0.020  -0.197  0.00  0.00     0.142 A 
HETATM   51  C   UNK N   1       2.487  -1.246   0.077  0.00  0.00     0.047 A 
HETATM   52  C   UNK N   1       3.260   0.954  -0.361  0.00  0.00     0.054 A 
HETATM   53  C   UNK N   1       2.095   0.047  -0.166  0.00  0.00    -0.011 A 
HETATM   54  C   UNK N   1       0.746   0.358  -0.193  0.00  0.00     0.010 A 
HETATM   55  C   UNK N   1      -0.187  -0.623  -0.007  0.00  0.00     0.077 A 
HETATM   56  C   UNK N   1       0.062   1.534  -0.374  0.00  0.00    -0.033 A 
HETATM   57  C   UNK N   1       0.181  -1.962   0.217  0.00  0.00     0.095 A 
HETATM   58  N   UNK N   1      -1.432  -0.114  -0.067  0.00  0.00    -0.362 N 
HETATM   59  C   UNK N   1       1.554  -2.282   0.274  0.00  0.00     0.069 A 
HETATM   60  C   UNK N   1      -1.287   1.219  -0.289  0.00  0.00     0.096 A 
HETATM   61  H   UNK N   1      -2.278  -0.609   0.030  0.00  0.00     0.165 HD
HETATM   62  C   UNK N   1       0.629   2.893  -0.600  0.00  0.00     0.050 C 
BRANCH  52  63
HETATM   63  C   UNK N   1       3.329   2.022   0.718  0.00  0.00     0.125 C 
HETATM   64 Cl   UNK N   1       4.377   3.358   0.177  0.00  0.00    -0.130 Cl
ENDBRANCH  52  63
BRANCH  57  65
HETATM   65  O   UNK N   1      -0.748  -2.916   0.384  0.00  0.00    -0.358 OA
HETATM   66  H   UNK N   1      -1.649  -2.687   0.501  0.00  0.00     0.217 HD
ENDBRANCH  57  65
ENDBRANCH  45  47
ENDBRANCH   4  37
TORSDOF 8
