MODEL 1
REMARK VINA RESULT:      -7.8      0.000      0.000
REMARK  8 active torsions:
REMARK  status: ('A' for Active; 'I' for Inactive)
REMARK    1  A    between atoms: C_20  and  C_17 
REMARK    2  A    between atoms: N_25  and  C_17 
REMARK    3  A    between atoms: C_20  and  C_18 
REMARK    4  A    between atoms: O_29  and  C_18 
REMARK    5  A    between atoms: O_27  and  C_20 
REMARK    6  A    between atoms: N_26  and  C_22 
REMARK    7  A    between atoms: O_29  and  C_23 
REMARK    8  A    between atoms: O_28  and  C_24 
ROOT
HETATM    1  C   UNK N   1      36.243  13.535  11.089  0.00  0.00     0.306 C 
ENDROOT
BRANCH   1   2
HETATM    2  C   UNK N   1      35.072  13.401  12.067  0.00  0.00     0.170 C 
BRANCH   2   3
HETATM    3  C   UNK N   1      35.579  13.420  13.503  0.00  0.00     0.209 C 
BRANCH   3   4
HETATM    4  O   UNK N   1      34.616  13.001  14.397  0.00  0.00    -0.348 OA
BRANCH   4   5
HETATM    5  C   UNK N   1      34.814  11.943  15.223  0.00  0.00     0.080 A 
HETATM    6  C   UNK N   1      34.857  10.632  14.711  0.00  0.00     0.037 A 
HETATM    7  C   UNK N   1      35.060   9.542  15.557  0.00  0.00     0.004 A 
HETATM    8  C   UNK N   1      35.231   9.740  16.926  0.00  0.00     0.012 A 
HETATM    9  C   UNK N   1      35.199  11.031  17.457  0.00  0.00    -0.023 A 
HETATM   10  C   UNK N   1      35.383  11.223  18.828  0.00  0.00     0.012 A 
HETATM   11  C   UNK N   1      34.985  12.145  16.606  0.00  0.00     0.007 A 
HETATM   12  C   UNK N   1      35.359  12.513  19.365  0.00  0.00     0.001 A 
HETATM   13  C   UNK N   1      35.149  13.616  18.531  0.00  0.00     0.001 A 
HETATM   14  C   UNK N   1      34.963  13.435  17.156  0.00  0.00     0.015 A 
ENDBRANCH   4   5
ENDBRANCH   3   4
ENDBRANCH   2   3
BRANCH   2  15
HETATM   15  O   UNK N   1      34.134  14.409  11.837  0.00  0.00    -0.392 OA
HETATM   16  H   UNK N   1      33.482  14.334  11.123  0.00  0.00     0.210 HD
ENDBRANCH   2  15
ENDBRANCH   1   2
BRANCH   1  17
HETATM   17  N   UNK N   1      36.300  12.455  10.090  0.00  0.00     0.094 N 
HETATM   18  C   UNK N   1      37.209  12.744   8.966  0.00  0.00     0.292 C 
HETATM   19  C   UNK N   1      36.790  14.012   8.215  0.00  0.00     0.153 C 
HETATM   20  N   UNK N   1      35.347  14.153   8.197  0.00  0.00    -0.375 N 
HETATM   21  C   UNK N   1      34.548  12.952   8.343  0.00  0.00     0.153 C 
HETATM   22  C   UNK N   1      34.932  12.187   9.622  0.00  0.00     0.292 C 
BRANCH  20  23
HETATM   23  C   UNK N   1      34.763  15.419   7.852  0.00  0.00     0.064 A 
HETATM   24  C   UNK N   1      34.476  16.329   8.891  0.00  0.00     0.032 A 
HETATM   25  C   UNK N   1      33.972  17.600   8.625  0.00  0.00     0.002 A 
HETATM   26  C   UNK N   1      33.752  18.000   7.312  0.00  0.00     0.003 A 
HETATM   27  C   UNK N   1      34.005  17.118   6.263  0.00  0.00     0.039 A 
HETATM   28  C   UNK N   1      34.491  15.828   6.508  0.00  0.00     0.094 A 
BRANCH  28  29
HETATM   29  O   UNK N   1      34.655  15.017   5.437  0.00  0.00    -0.354 OA
HETATM   30  C   UNK N   1      33.926  15.187   4.282  0.00  0.00     0.210 C 
ENDBRANCH  28  29
ENDBRANCH  20  23
ENDBRANCH   1  17
TORSDOF 8
ENDMDL
MODEL 2
REMARK VINA RESULT:      -7.7      2.906      4.245
REMARK  8 active torsions:
REMARK  status: ('A' for Active; 'I' for Inactive)
REMARK    1  A    between atoms: C_20  and  C_17 
REMARK    2  A    between atoms: N_25  and  C_17 
REMARK    3  A    between atoms: C_20  and  C_18 
REMARK    4  A    between atoms: O_29  and  C_18 
REMARK    5  A    between atoms: O_27  and  C_20 
REMARK    6  A    between atoms: N_26  and  C_22 
REMARK    7  A    between atoms: O_29  and  C_23 
REMARK    8  A    between atoms: O_28  and  C_24 
ROOT
HETATM    1  C   UNK N   1      34.324  16.040   9.462  0.00  0.00     0.306 C 
ENDROOT
BRANCH   1   2
HETATM    2  C   UNK N   1      34.315  14.998  10.585  0.00  0.00     0.170 C 
BRANCH   2   3
HETATM    3  C   UNK N   1      35.430  15.287  11.581  0.00  0.00     0.209 C 
BRANCH   3   4
HETATM    4  O   UNK N   1      35.999  14.131  12.070  0.00  0.00    -0.348 OA
BRANCH   4   5
HETATM    5  C   UNK N   1      35.993  13.830  13.393  0.00  0.00     0.080 A 
HETATM    6  C   UNK N   1      36.655  14.659  14.319  0.00  0.00     0.037 A 
HETATM    7  C   UNK N   1      36.650  14.354  15.680  0.00  0.00     0.004 A 
HETATM    8  C   UNK N   1      35.980  13.222  16.143  0.00  0.00     0.012 A 
HETATM    9  C   UNK N   1      35.312  12.388  15.244  0.00  0.00    -0.023 A 
HETATM   10  C   UNK N   1      34.633  11.263  15.716  0.00  0.00     0.012 A 
HETATM   11  C   UNK N   1      35.317  12.686  13.858  0.00  0.00     0.007 A 
HETATM   12  C   UNK N   1      33.956  10.428  14.823  0.00  0.00     0.001 A 
HETATM   13  C   UNK N   1      33.956  10.716  13.455  0.00  0.00     0.001 A 
HETATM   14  C   UNK N   1      34.634  11.840  12.972  0.00  0.00     0.015 A 
ENDBRANCH   4   5
ENDBRANCH   3   4
ENDBRANCH   2   3
BRANCH   2  15
HETATM   15  O   UNK N   1      33.064  14.966  11.204  0.00  0.00    -0.392 OA
HETATM   16  H   UNK N   1      32.257  15.187  10.715  0.00  0.00     0.210 HD
ENDBRANCH   2  15
ENDBRANCH   1   2
BRANCH   1  17
HETATM   17  N   UNK N   1      34.429  15.452   8.117  0.00  0.00     0.094 N 
HETATM   18  C   UNK N   1      34.418  16.454   7.037  0.00  0.00     0.292 C 
HETATM   19  C   UNK N   1      33.130  17.283   7.050  0.00  0.00     0.153 C 
HETATM   20  N   UNK N   1      31.999  16.479   7.473  0.00  0.00    -0.375 N 
HETATM   21  C   UNK N   1      32.083  15.044   7.285  0.00  0.00     0.153 C 
HETATM   22  C   UNK N   1      33.345  14.472   7.954  0.00  0.00     0.292 C 
BRANCH  20  23
HETATM   23  C   UNK N   1      30.783  17.125   7.879  0.00  0.00     0.064 A 
HETATM   24  C   UNK N   1      30.768  17.809   9.112  0.00  0.00     0.032 A 
HETATM   25  C   UNK N   1      29.645  18.515   9.538  0.00  0.00     0.002 A 
HETATM   26  C   UNK N   1      28.510  18.564   8.738  0.00  0.00     0.003 A 
HETATM   27  C   UNK N   1      28.484  17.881   7.523  0.00  0.00     0.039 A 
HETATM   28  C   UNK N   1      29.592  17.148   7.084  0.00  0.00     0.094 A 
BRANCH  28  29
HETATM   29  O   UNK N   1      29.463  16.469   5.921  0.00  0.00    -0.354 OA
HETATM   30  C   UNK N   1      28.372  15.669   5.669  0.00  0.00     0.210 C 
ENDBRANCH  28  29
ENDBRANCH  20  23
ENDBRANCH   1  17
TORSDOF 8
ENDMDL
MODEL 3
REMARK VINA RESULT:      -7.5     18.179     22.785
REMARK  8 active torsions:
REMARK  status: ('A' for Active; 'I' for Inactive)
REMARK    1  A    between atoms: C_20  and  C_17 
REMARK    2  A    between atoms: N_25  and  C_17 
REMARK    3  A    between atoms: C_20  and  C_18 
REMARK    4  A    between atoms: O_29  and  C_18 
REMARK    5  A    between atoms: O_27  and  C_20 
REMARK    6  A    between atoms: N_26  and  C_22 
REMARK    7  A    between atoms: O_29  and  C_23 
REMARK    8  A    between atoms: O_28  and  C_24 
ROOT
HETATM    1  C   UNK N   1      27.326  23.723  -5.396  0.00  0.00     0.306 C 
ENDROOT
BRANCH   1   2
HETATM    2  C   UNK N   1      25.978  23.933  -6.091  0.00  0.00     0.170 C 
BRANCH   2   3
HETATM    3  C   UNK N   1      26.183  24.576  -7.457  0.00  0.00     0.209 C 
BRANCH   3   4
HETATM    4  O   UNK N   1      25.783  25.895  -7.472  0.00  0.00    -0.348 OA
BRANCH   4   5
HETATM    5  C   UNK N   1      26.663  26.915  -7.315  0.00  0.00     0.080 A 
HETATM    6  C   UNK N   1      27.645  27.172  -8.290  0.00  0.00     0.037 A 
HETATM    7  C   UNK N   1      28.551  28.221  -8.131  0.00  0.00     0.004 A 
HETATM    8  C   UNK N   1      28.488  29.037  -7.002  0.00  0.00     0.012 A 
HETATM    9  C   UNK N   1      27.518  28.806  -6.024  0.00  0.00    -0.023 A 
HETATM   10  C   UNK N   1      27.454  29.634  -4.901  0.00  0.00     0.012 A 
HETATM   11  C   UNK N   1      26.599  27.737  -6.173  0.00  0.00     0.007 A 
HETATM   12  C   UNK N   1      26.482  29.413  -3.923  0.00  0.00     0.001 A 
HETATM   13  C   UNK N   1      25.571  28.362  -4.063  0.00  0.00     0.001 A 
HETATM   14  C   UNK N   1      25.627  27.525  -5.183  0.00  0.00     0.015 A 
ENDBRANCH   4   5
ENDBRANCH   3   4
ENDBRANCH   2   3
BRANCH   2  15
HETATM   15  O   UNK N   1      25.292  22.721  -6.189  0.00  0.00    -0.392 OA
HETATM   16  H   UNK N   1      24.765  22.505  -6.974  0.00  0.00     0.210 HD
ENDBRANCH   2  15
ENDBRANCH   1   2
BRANCH   1  17
HETATM   17  N   UNK N   1      27.539  24.618  -4.247  0.00  0.00     0.094 N 
HETATM   18  C   UNK N   1      28.744  25.458  -4.373  0.00  0.00     0.292 C 
HETATM   19  C   UNK N   1      30.011  24.608  -4.504  0.00  0.00     0.153 C 
HETATM   20  N   UNK N   1      29.904  23.391  -3.723  0.00  0.00    -0.375 N 
HETATM   21  C   UNK N   1      28.996  23.391  -2.593  0.00  0.00     0.153 C 
HETATM   22  C   UNK N   1      27.577  23.801  -3.025  0.00  0.00     0.292 C 
BRANCH  20  23
HETATM   23  C   UNK N   1      30.817  22.309  -3.968  0.00  0.00     0.064 A 
HETATM   24  C   UNK N   1      31.958  22.198  -3.147  0.00  0.00     0.032 A 
HETATM   25  C   UNK N   1      32.851  21.137  -3.283  0.00  0.00     0.002 A 
HETATM   26  C   UNK N   1      32.621  20.153  -4.238  0.00  0.00     0.003 A 
HETATM   27  C   UNK N   1      31.514  20.245  -5.081  0.00  0.00     0.039 A 
HETATM   28  C   UNK N   1      30.615  21.314  -4.977  0.00  0.00     0.094 A 
BRANCH  28  29
HETATM   29  O   UNK N   1      29.600  21.357  -5.870  0.00  0.00    -0.354 OA
HETATM   30  C   UNK N   1      29.592  20.562  -6.993  0.00  0.00     0.210 C 
ENDBRANCH  28  29
ENDBRANCH  20  23
ENDBRANCH   1  17
TORSDOF 8
ENDMDL
MODEL 4
REMARK VINA RESULT:      -7.4      2.707      8.903
REMARK  8 active torsions:
REMARK  status: ('A' for Active; 'I' for Inactive)
REMARK    1  A    between atoms: C_20  and  C_17 
REMARK    2  A    between atoms: N_25  and  C_17 
REMARK    3  A    between atoms: C_20  and  C_18 
REMARK    4  A    between atoms: O_29  and  C_18 
REMARK    5  A    between atoms: O_27  and  C_20 
REMARK    6  A    between atoms: N_26  and  C_22 
REMARK    7  A    between atoms: O_29  and  C_23 
REMARK    8  A    between atoms: O_28  and  C_24 
ROOT
HETATM    1  C   UNK N   1      34.665  15.078   9.854  0.00  0.00     0.306 C 
ENDROOT
BRANCH   1   2
HETATM    2  C   UNK N   1      34.984  16.568   9.695  0.00  0.00     0.170 C 
BRANCH   2   3
HETATM    3  C   UNK N   1      33.914  17.249   8.852  0.00  0.00     0.209 C 
BRANCH   3   4
HETATM    4  O   UNK N   1      32.769  16.486   8.755  0.00  0.00    -0.348 OA
BRANCH   4   5
HETATM    5  C   UNK N   1      31.875  16.656   7.749  0.00  0.00     0.080 A 
HETATM    6  C   UNK N   1      32.140  16.153   6.462  0.00  0.00     0.037 A 
HETATM    7  C   UNK N   1      31.223  16.325   5.425  0.00  0.00     0.004 A 
HETATM    8  C   UNK N   1      30.022  16.995   5.656  0.00  0.00     0.012 A 
HETATM    9  C   UNK N   1      29.734  17.498   6.927  0.00  0.00    -0.023 A 
HETATM   10  C   UNK N   1      28.524  18.158   7.153  0.00  0.00     0.012 A 
HETATM   11  C   UNK N   1      30.664  17.334   7.984  0.00  0.00     0.007 A 
HETATM   12  C   UNK N   1      28.226  18.658   8.424  0.00  0.00     0.001 A 
HETATM   13  C   UNK N   1      29.138  18.499   9.472  0.00  0.00     0.001 A 
HETATM   14  C   UNK N   1      30.353  17.840   9.255  0.00  0.00     0.015 A 
ENDBRANCH   4   5
ENDBRANCH   3   4
ENDBRANCH   2   3
BRANCH   2  15
HETATM   15  O   UNK N   1      35.114  17.169  10.949  0.00  0.00    -0.392 OA
HETATM   16  H   UNK N   1      34.769  16.741  11.748  0.00  0.00     0.210 HD
ENDBRANCH   2  15
ENDBRANCH   1   2
BRANCH   1  17
HETATM   17  N   UNK N   1      35.528  14.204   9.043  0.00  0.00     0.094 N 
HETATM   18  C   UNK N   1      34.855  12.975   8.586  0.00  0.00     0.292 C 
HETATM   19  C   UNK N   1      34.363  12.130   9.765  0.00  0.00     0.153 C 
HETATM   20  N   UNK N   1      35.272  12.230  10.891  0.00  0.00    -0.375 N 
HETATM   21  C   UNK N   1      36.651  12.583  10.617  0.00  0.00     0.153 C 
HETATM   22  C   UNK N   1      36.738  13.898   9.822  0.00  0.00     0.292 C 
BRANCH  20  23
HETATM   23  C   UNK N   1      34.838  11.803  12.192  0.00  0.00     0.064 A 
HETATM   24  C   UNK N   1      34.395  10.473  12.345  0.00  0.00     0.032 A 
HETATM   25  C   UNK N   1      34.023   9.970  13.590  0.00  0.00     0.002 A 
HETATM   26  C   UNK N   1      34.095  10.781  14.717  0.00  0.00     0.003 A 
HETATM   27  C   UNK N   1      34.508  12.107  14.596  0.00  0.00     0.039 A 
HETATM   28  C   UNK N   1      34.865  12.640  13.352  0.00  0.00     0.094 A 
BRANCH  28  29
HETATM   29  O   UNK N   1      35.200  13.950  13.315  0.00  0.00    -0.354 OA
HETATM   30  C   UNK N   1      36.386  14.408  13.842  0.00  0.00     0.210 C 
ENDBRANCH  28  29
ENDBRANCH  20  23
ENDBRANCH   1  17
TORSDOF 8
ENDMDL
MODEL 5
REMARK VINA RESULT:      -7.4     12.298     14.499
REMARK  8 active torsions:
REMARK  status: ('A' for Active; 'I' for Inactive)
REMARK    1  A    between atoms: C_20  and  C_17 
REMARK    2  A    between atoms: N_25  and  C_17 
REMARK    3  A    between atoms: C_20  and  C_18 
REMARK    4  A    between atoms: O_29  and  C_18 
REMARK    5  A    between atoms: O_27  and  C_20 
REMARK    6  A    between atoms: N_26  and  C_22 
REMARK    7  A    between atoms: O_29  and  C_23 
REMARK    8  A    between atoms: O_28  and  C_24 
ROOT
HETATM    1  C   UNK N   1      20.712  16.762   7.767  0.00  0.00     0.306 C 
ENDROOT
BRANCH   1   2
HETATM    2  C   UNK N   1      19.463  16.141   8.401  0.00  0.00     0.170 C 
BRANCH   2   3
HETATM    3  C   UNK N   1      19.848  14.940   9.256  0.00  0.00     0.209 C 
BRANCH   3   4
HETATM    4  O   UNK N   1      20.310  13.889   8.492  0.00  0.00    -0.348 OA
BRANCH   4   5
HETATM    5  C   UNK N   1      21.393  13.157   8.855  0.00  0.00     0.080 A 
HETATM    6  C   UNK N   1      22.011  13.363  10.103  0.00  0.00     0.037 A 
HETATM    7  C   UNK N   1      23.125  12.612  10.480  0.00  0.00     0.004 A 
HETATM    8  C   UNK N   1      23.636  11.638   9.623  0.00  0.00     0.012 A 
HETATM    9  C   UNK N   1      23.036  11.411   8.383  0.00  0.00    -0.023 A 
HETATM   10  C   UNK N   1      23.546  10.426   7.535  0.00  0.00     0.012 A 
HETATM   11  C   UNK N   1      21.909  12.175   7.988  0.00  0.00     0.007 A 
HETATM   12  C   UNK N   1      22.947  10.188   6.296  0.00  0.00     0.001 A 
HETATM   13  C   UNK N   1      21.833  10.938   5.900  0.00  0.00     0.001 A 
HETATM   14  C   UNK N   1      21.315  11.928   6.741  0.00  0.00     0.015 A 
ENDBRANCH   4   5
ENDBRANCH   3   4
ENDBRANCH   2   3
BRANCH   2  15
HETATM   15  O   UNK N   1      18.770  17.100   9.141  0.00  0.00    -0.392 OA
HETATM   16  H   UNK N   1      18.935  18.047   9.013  0.00  0.00     0.210 HD
ENDBRANCH   2  15
ENDBRANCH   1   2
BRANCH   1  17
HETATM   17  N   UNK N   1      20.474  17.315   6.424  0.00  0.00     0.094 N 
HETATM   18  C   UNK N   1      20.054  16.302   5.439  0.00  0.00     0.292 C 
HETATM   19  C   UNK N   1      21.108  15.203   5.277  0.00  0.00     0.153 C 
HETATM   20  N   UNK N   1      22.448  15.741   5.423  0.00  0.00    -0.375 N 
HETATM   21  C   UNK N   1      22.643  17.150   5.145  0.00  0.00     0.153 C 
HETATM   22  C   UNK N   1      21.693  18.016   5.991  0.00  0.00     0.292 C 
BRANCH  20  23
HETATM   23  C   UNK N   1      23.550  14.847   5.646  0.00  0.00     0.064 A 
HETATM   24  C   UNK N   1      24.194  14.879   6.899  0.00  0.00     0.032 A 
HETATM   25  C   UNK N   1      25.226  13.996   7.209  0.00  0.00     0.002 A 
HETATM   26  C   UNK N   1      25.633  13.048   6.277  0.00  0.00     0.003 A 
HETATM   27  C   UNK N   1      25.032  13.004   5.020  0.00  0.00     0.039 A 
HETATM   28  C   UNK N   1      24.008  13.896   4.679  0.00  0.00     0.094 A 
BRANCH  28  29
HETATM   29  O   UNK N   1      23.518  13.822   3.420  0.00  0.00    -0.354 OA
HETATM   30  C   UNK N   1      23.981  12.891   2.518  0.00  0.00     0.210 C 
ENDBRANCH  28  29
ENDBRANCH  20  23
ENDBRANCH   1  17
TORSDOF 8
ENDMDL
MODEL 6
REMARK VINA RESULT:      -7.4      1.810      3.465
REMARK  8 active torsions:
REMARK  status: ('A' for Active; 'I' for Inactive)
REMARK    1  A    between atoms: C_20  and  C_17 
REMARK    2  A    between atoms: N_25  and  C_17 
REMARK    3  A    between atoms: C_20  and  C_18 
REMARK    4  A    between atoms: O_29  and  C_18 
REMARK    5  A    between atoms: O_27  and  C_20 
REMARK    6  A    between atoms: N_26  and  C_22 
REMARK    7  A    between atoms: O_29  and  C_23 
REMARK    8  A    between atoms: O_28  and  C_24 
ROOT
HETATM    1  C   UNK N   1      34.725  15.480   9.152  0.00  0.00     0.306 C 
ENDROOT
BRANCH   1   2
HETATM    2  C   UNK N   1      34.773  15.717  10.665  0.00  0.00     0.170 C 
BRANCH   2   3
HETATM    3  C   UNK N   1      35.798  14.794  11.310  0.00  0.00     0.209 C 
BRANCH   3   4
HETATM    4  O   UNK N   1      35.207  13.870  12.146  0.00  0.00    -0.348 OA
BRANCH   4   5
HETATM    5  C   UNK N   1      35.616  13.695  13.428  0.00  0.00     0.080 A 
HETATM    6  C   UNK N   1      36.474  14.628  14.040  0.00  0.00     0.037 A 
HETATM    7  C   UNK N   1      36.896  14.452  15.358  0.00  0.00     0.004 A 
HETATM    8  C   UNK N   1      36.463  13.347  16.091  0.00  0.00     0.012 A 
HETATM    9  C   UNK N   1      35.607  12.411  15.507  0.00  0.00    -0.023 A 
HETATM   10  C   UNK N   1      35.168  11.313  16.250  0.00  0.00     0.012 A 
HETATM   11  C   UNK N   1      35.179  12.578  14.165  0.00  0.00     0.007 A 
HETATM   12  C   UNK N   1      34.306  10.377  15.675  0.00  0.00     0.001 A 
HETATM   13  C   UNK N   1      33.879  10.536  14.352  0.00  0.00     0.001 A 
HETATM   14  C   UNK N   1      34.313  11.631  13.599  0.00  0.00     0.015 A 
ENDBRANCH   4   5
ENDBRANCH   3   4
ENDBRANCH   2   3
BRANCH   2  15
HETATM   15  O   UNK N   1      35.046  17.059  10.934  0.00  0.00    -0.392 OA
HETATM   16  H   UNK N   1      35.069  17.393  11.844  0.00  0.00     0.210 HD
ENDBRANCH   2  15
ENDBRANCH   1   2
BRANCH   1  17
HETATM   17  N   UNK N   1      34.936  14.074   8.772  0.00  0.00     0.094 N 
HETATM   18  C   UNK N   1      35.978  13.894   7.745  0.00  0.00     0.292 C 
HETATM   19  C   UNK N   1      35.634  14.647   6.456  0.00  0.00     0.153 C 
HETATM   20  N   UNK N   1      34.203  14.649   6.221  0.00  0.00    -0.375 N 
HETATM   21  C   UNK N   1      33.419  13.585   6.816  0.00  0.00     0.153 C 
HETATM   22  C   UNK N   1      33.647  13.514   8.336  0.00  0.00     0.292 C 
BRANCH  20  23
HETATM   23  C   UNK N   1      33.642  15.572   5.274  0.00  0.00     0.064 A 
HETATM   24  C   UNK N   1      33.787  15.290   3.899  0.00  0.00     0.032 A 
HETATM   25  C   UNK N   1      33.212  16.105   2.927  0.00  0.00     0.002 A 
HETATM   26  C   UNK N   1      32.467  17.217   3.302  0.00  0.00     0.003 A 
HETATM   27  C   UNK N   1      32.323  17.536   4.651  0.00  0.00     0.039 A 
HETATM   28  C   UNK N   1      32.910  16.744   5.646  0.00  0.00     0.094 A 
BRANCH  28  29
HETATM   29  O   UNK N   1      32.769  17.156   6.927  0.00  0.00    -0.354 OA
HETATM   30  C   UNK N   1      31.592  16.977   7.618  0.00  0.00     0.210 C 
ENDBRANCH  28  29
ENDBRANCH  20  23
ENDBRANCH   1  17
TORSDOF 8
ENDMDL
MODEL 7
REMARK VINA RESULT:      -7.4      2.699      3.443
REMARK  8 active torsions:
REMARK  status: ('A' for Active; 'I' for Inactive)
REMARK    1  A    between atoms: C_20  and  C_17 
REMARK    2  A    between atoms: N_25  and  C_17 
REMARK    3  A    between atoms: C_20  and  C_18 
REMARK    4  A    between atoms: O_29  and  C_18 
REMARK    5  A    between atoms: O_27  and  C_20 
REMARK    6  A    between atoms: N_26  and  C_22 
REMARK    7  A    between atoms: O_29  and  C_23 
REMARK    8  A    between atoms: O_28  and  C_24 
ROOT
HETATM    1  C   UNK N   1      34.523  16.227  10.140  0.00  0.00     0.306 C 
ENDROOT
BRANCH   1   2
HETATM    2  C   UNK N   1      35.503  15.993  11.294  0.00  0.00     0.170 C 
BRANCH   2   3
HETATM    3  C   UNK N   1      35.234  14.645  11.949  0.00  0.00     0.209 C 
BRANCH   3   4
HETATM    4  O   UNK N   1      35.984  14.467  13.092  0.00  0.00    -0.348 OA
BRANCH   4   5
HETATM    5  C   UNK N   1      36.432  13.245  13.475  0.00  0.00     0.080 A 
HETATM    6  C   UNK N   1      37.231  12.471  12.611  0.00  0.00     0.037 A 
HETATM    7  C   UNK N   1      37.694  11.215  13.002  0.00  0.00     0.004 A 
HETATM    8  C   UNK N   1      37.376  10.712  14.263  0.00  0.00     0.012 A 
HETATM    9  C   UNK N   1      36.591  11.463  15.139  0.00  0.00    -0.023 A 
HETATM   10  C   UNK N   1      36.287  10.957  16.405  0.00  0.00     0.012 A 
HETATM   11  C   UNK N   1      36.109  12.737  14.748  0.00  0.00     0.007 A 
HETATM   12  C   UNK N   1      35.508  11.706  17.290  0.00  0.00     0.001 A 
HETATM   13  C   UNK N   1      35.030  12.965  16.911  0.00  0.00     0.001 A 
HETATM   14  C   UNK N   1      35.328  13.480  15.646  0.00  0.00     0.015 A 
ENDBRANCH   4   5
ENDBRANCH   3   4
ENDBRANCH   2   3
BRANCH   2  15
HETATM   15  O   UNK N   1      36.818  16.093  10.838  0.00  0.00    -0.392 OA
HETATM   16  H   UNK N   1      37.449  15.367  10.964  0.00  0.00     0.210 HD
ENDBRANCH   2  15
ENDBRANCH   1   2
BRANCH   1  17
HETATM   17  N   UNK N   1      34.741  15.329   8.995  0.00  0.00     0.094 N 
HETATM   18  C   UNK N   1      34.899  16.040   7.714  0.00  0.00     0.292 C 
HETATM   19  C   UNK N   1      33.663  16.880   7.380  0.00  0.00     0.153 C 
HETATM   20  N   UNK N   1      32.452  16.233   7.846  0.00  0.00    -0.375 N 
HETATM   21  C   UNK N   1      32.478  14.793   8.015  0.00  0.00     0.153 C 
HETATM   22  C   UNK N   1      33.629  14.367   8.944  0.00  0.00     0.292 C 
BRANCH  20  23
HETATM   23  C   UNK N   1      31.236  16.990   7.942  0.00  0.00     0.064 A 
HETATM   24  C   UNK N   1      31.051  17.819   9.068  0.00  0.00     0.032 A 
HETATM   25  C   UNK N   1      29.927  18.632   9.195  0.00  0.00     0.002 A 
HETATM   26  C   UNK N   1      28.962  18.647   8.194  0.00  0.00     0.003 A 
HETATM   27  C   UNK N   1      29.104  17.823   7.078  0.00  0.00     0.039 A 
HETATM   28  C   UNK N   1      30.214  16.981   6.939  0.00  0.00     0.094 A 
BRANCH  28  29
HETATM   29  O   UNK N   1      30.246  16.174   5.854  0.00  0.00    -0.354 OA
HETATM   30  C   UNK N   1      30.747  16.606   4.647  0.00  0.00     0.210 C 
ENDBRANCH  28  29
ENDBRANCH  20  23
ENDBRANCH   1  17
TORSDOF 8
ENDMDL
MODEL 8
REMARK VINA RESULT:      -7.4     18.356     22.783
REMARK  8 active torsions:
REMARK  status: ('A' for Active; 'I' for Inactive)
REMARK    1  A    between atoms: C_20  and  C_17 
REMARK    2  A    between atoms: N_25  and  C_17 
REMARK    3  A    between atoms: C_20  and  C_18 
REMARK    4  A    between atoms: O_29  and  C_18 
REMARK    5  A    between atoms: O_27  and  C_20 
REMARK    6  A    between atoms: N_26  and  C_22 
REMARK    7  A    between atoms: O_29  and  C_23 
REMARK    8  A    between atoms: O_28  and  C_24 
ROOT
HETATM    1  C   UNK N   1      27.388  23.938  -5.172  0.00  0.00     0.306 C 
ENDROOT
BRANCH   1   2
HETATM    2  C   UNK N   1      25.895  23.932  -5.518  0.00  0.00     0.170 C 
BRANCH   2   3
HETATM    3  C   UNK N   1      25.196  25.112  -4.855  0.00  0.00     0.209 C 
BRANCH   3   4
HETATM    4  O   UNK N   1      25.157  26.218  -5.678  0.00  0.00    -0.348 OA
BRANCH   4   5
HETATM    5  C   UNK N   1      25.832  27.357  -5.383  0.00  0.00     0.080 A 
HETATM    6  C   UNK N   1      25.538  28.082  -4.212  0.00  0.00     0.037 A 
HETATM    7  C   UNK N   1      26.230  29.253  -3.906  0.00  0.00     0.004 A 
HETATM    8  C   UNK N   1      27.232  29.719  -4.756  0.00  0.00     0.012 A 
HETATM    9  C   UNK N   1      27.546  29.014  -5.920  0.00  0.00    -0.023 A 
HETATM   10  C   UNK N   1      28.559  29.480  -6.761  0.00  0.00     0.012 A 
HETATM   11  C   UNK N   1      26.842  27.826  -6.244  0.00  0.00     0.007 A 
HETATM   12  C   UNK N   1      28.883  28.776  -7.924  0.00  0.00     0.001 A 
HETATM   13  C   UNK N   1      28.194  27.603  -8.249  0.00  0.00     0.001 A 
HETATM   14  C   UNK N   1      27.177  27.128  -7.414  0.00  0.00     0.015 A 
ENDBRANCH   4   5
ENDBRANCH   3   4
ENDBRANCH   2   3
BRANCH   2  15
HETATM   15  O   UNK N   1      25.721  23.940  -6.903  0.00  0.00    -0.392 OA
HETATM   16  H   UNK N   1      26.190  23.308  -7.470  0.00  0.00     0.210 HD
ENDBRANCH   2  15
ENDBRANCH   1   2
BRANCH   1  17
HETATM   17  N   UNK N   1      27.705  24.708  -3.958  0.00  0.00     0.094 N 
HETATM   18  C   UNK N   1      28.948  25.492  -4.070  0.00  0.00     0.292 C 
HETATM   19  C   UNK N   1      30.158  24.593  -4.345  0.00  0.00     0.153 C 
HETATM   20  N   UNK N   1      30.018  23.314  -3.674  0.00  0.00    -0.375 N 
HETATM   21  C   UNK N   1      29.166  23.255  -2.503  0.00  0.00     0.153 C 
HETATM   22  C   UNK N   1      27.755  23.778  -2.820  0.00  0.00     0.292 C 
BRANCH  20  23
HETATM   23  C   UNK N   1      30.856  22.214  -4.065  0.00  0.00     0.064 A 
HETATM   24  C   UNK N   1      32.059  22.006  -3.360  0.00  0.00     0.032 A 
HETATM   25  C   UNK N   1      32.886  20.921  -3.639  0.00  0.00     0.002 A 
HETATM   26  C   UNK N   1      32.527  20.009  -4.626  0.00  0.00     0.003 A 
HETATM   27  C   UNK N   1      31.356  20.198  -5.357  0.00  0.00     0.039 A 
HETATM   28  C   UNK N   1      30.520  21.293  -5.108  0.00  0.00     0.094 A 
BRANCH  28  29
HETATM   29  O   UNK N   1      29.432  21.433  -5.900  0.00  0.00    -0.354 OA
HETATM   30  C   UNK N   1      29.515  21.317  -7.269  0.00  0.00     0.210 C 
ENDBRANCH  28  29
ENDBRANCH  20  23
ENDBRANCH   1  17
TORSDOF 8
ENDMDL
MODEL 9
REMARK VINA RESULT:      -7.4      1.813      3.095
REMARK  8 active torsions:
REMARK  status: ('A' for Active; 'I' for Inactive)
REMARK    1  A    between atoms: C_20  and  C_17 
REMARK    2  A    between atoms: N_25  and  C_17 
REMARK    3  A    between atoms: C_20  and  C_18 
REMARK    4  A    between atoms: O_29  and  C_18 
REMARK    5  A    between atoms: O_27  and  C_20 
REMARK    6  A    between atoms: N_26  and  C_22 
REMARK    7  A    between atoms: O_29  and  C_23 
REMARK    8  A    between atoms: O_28  and  C_24 
ROOT
HETATM    1  C   UNK N   1      35.062  15.582   9.460  0.00  0.00     0.306 C 
ENDROOT
BRANCH   1   2
HETATM    2  C   UNK N   1      35.555  15.938  10.866  0.00  0.00     0.170 C 
BRANCH   2   3
HETATM    3  C   UNK N   1      35.126  14.868  11.861  0.00  0.00     0.209 C 
BRANCH   3   4
HETATM    4  O   UNK N   1      36.092  14.635  12.817  0.00  0.00    -0.348 OA
BRANCH   4   5
HETATM    5  C   UNK N   1      36.516  13.382  13.120  0.00  0.00     0.080 A 
HETATM    6  C   UNK N   1      37.253  12.629  12.186  0.00  0.00     0.037 A 
HETATM    7  C   UNK N   1      37.691  11.342  12.495  0.00  0.00     0.004 A 
HETATM    8  C   UNK N   1      37.410  10.786  13.743  0.00  0.00     0.012 A 
HETATM    9  C   UNK N   1      36.687  11.516  14.688  0.00  0.00    -0.023 A 
HETATM   10  C   UNK N   1      36.419  10.957  15.939  0.00  0.00     0.012 A 
HETATM   11  C   UNK N   1      36.230  12.822  14.380  0.00  0.00     0.007 A 
HETATM   12  C   UNK N   1      35.702  11.685  16.893  0.00  0.00     0.001 A 
HETATM   13  C   UNK N   1      35.250  12.975  16.596  0.00  0.00     0.001 A 
HETATM   14  C   UNK N   1      35.511  13.543  15.345  0.00  0.00     0.015 A 
ENDBRANCH   4   5
ENDBRANCH   3   4
ENDBRANCH   2   3
BRANCH   2  15
HETATM   15  O   UNK N   1      36.939  16.115  10.861  0.00  0.00    -0.392 OA
HETATM   16  H   UNK N   1      37.375  16.675  11.523  0.00  0.00     0.210 HD
ENDBRANCH   2  15
ENDBRANCH   1   2
BRANCH   1  17
HETATM   17  N   UNK N   1      35.148  14.145   9.154  0.00  0.00     0.094 N 
HETATM   18  C   UNK N   1      36.162  13.822   8.135  0.00  0.00     0.292 C 
HETATM   19  C   UNK N   1      35.875  14.533   6.809  0.00  0.00     0.153 C 
HETATM   20  N   UNK N   1      34.448  14.647   6.579  0.00  0.00    -0.375 N 
HETATM   21  C   UNK N   1      33.579  13.687   7.232  0.00  0.00     0.153 C 
HETATM   22  C   UNK N   1      33.813  13.677   8.753  0.00  0.00     0.292 C 
BRANCH  20  23
HETATM   23  C   UNK N   1      33.961  15.563   5.585  0.00  0.00     0.064 A 
HETATM   24  C   UNK N   1      33.815  15.099   4.262  0.00  0.00     0.032 A 
HETATM   25  C   UNK N   1      33.286  15.912   3.261  0.00  0.00     0.002 A 
HETATM   26  C   UNK N   1      32.880  17.207   3.560  0.00  0.00     0.003 A 
HETATM   27  C   UNK N   1      33.031  17.704   4.854  0.00  0.00     0.039 A 
HETATM   28  C   UNK N   1      33.580  16.913   5.870  0.00  0.00     0.094 A 
BRANCH  28  29
HETATM   29  O   UNK N   1      33.744  17.491   7.082  0.00  0.00    -0.354 OA
HETATM   30  C   UNK N   1      32.670  17.810   7.882  0.00  0.00     0.210 C 
ENDBRANCH  28  29
ENDBRANCH  20  23
ENDBRANCH   1  17
TORSDOF 8
ENDMDL
