MODEL 1
REMARK VINA RESULT:      -6.8      0.000      0.000
REMARK  12 active torsions:
REMARK  status: ('A' for Active; 'I' for Inactive)
REMARK    1  A    between atoms: C_11  and  C_3 
REMARK    2  A    between atoms: C_16  and  C_3 
REMARK    3  A    between atoms: C_15  and  C_7 
REMARK    4  A    between atoms: C_17  and  C_7 
REMARK    5  A    between atoms: C_12  and  C_9 
REMARK    6  A    between atoms: N_25  and  C_9 
REMARK    7  A    between atoms: C_18  and  C_16 
REMARK    8  A    between atoms: C_16  and  N_24 
REMARK    9  A    between atoms: C_19  and  C_17 
REMARK   10  A    between atoms: C_17  and  N_24 
REMARK   11  A    between atoms: O_27  and  C_18 
REMARK   12  A    between atoms: O_29  and  C_19 
ROOT
HETATM    1  C   UNK N   1      34.199  14.647  10.608  0.00  0.00     0.094 C 
ENDROOT
BRANCH   1   2
HETATM    2  C   UNK N   1      34.245  13.322   9.903  0.00  0.00     0.030 A 
HETATM    3  C   UNK N   1      33.348  12.857   8.964  0.00  0.00     0.114 A 
HETATM    4  N   UNK N   1      33.790  11.657   8.528  0.00  0.00    -0.360 N 
HETATM    5  C   UNK N   1      34.940  11.416   9.196  0.00  0.00     0.183 A 
ATOM      6  HN  UNK N   1      33.345  11.056   7.835  1.00  0.00     0.166 HD
HETATM    7  N   UNK N   1      35.222  12.420  10.045  0.00  0.00    -0.341 N 
BRANCH   7   8
HETATM    8  C   UNK N   1      36.393  12.542  10.912  0.00  0.00     0.168 C 
BRANCH   8   9
HETATM    9  C   UNK N   1      36.004  12.603  12.348  0.00  0.00    -0.037 A 
HETATM   10  C   UNK N   1      35.011  11.748  12.832  0.00  0.00     0.032 A 
HETATM   11  C   UNK N   1      34.643  11.789  14.175  0.00  0.00     0.036 A 
HETATM   12  C   UNK N   1      35.271  12.686  15.044  0.00  0.00     0.047 A 
HETATM   13 Cl   UNK N   1      33.392  10.718  14.763  0.00  0.00    -0.084 Cl
HETATM   14  C   UNK N   1      36.271  13.540  14.564  0.00  0.00     0.036 A 
HETATM   15  C   UNK N   1      36.639  13.497  13.215  0.00  0.00     0.032 A 
HETATM   16 Cl   UNK N   1      37.057  14.661  15.653  0.00  0.00    -0.084 Cl
ENDBRANCH   8   9
ENDBRANCH   7   8
ENDBRANCH   1   2
BRANCH   1  17
HETATM   17  C   UNK N   1      34.664  15.788   9.688  0.00  0.00     0.181 C 
BRANCH  17  18
HETATM   18  C   UNK N   1      35.744  16.650  10.296  0.00  0.00     0.163 C 
HETATM   19  O   UNK N   1      35.696  17.867  10.237  0.00  0.00    -0.648 OA
BRANCH  18  20
HETATM   20  O   UNK N   1      36.786  16.061  10.914  0.00  0.00    -0.775 OA
HETATM   21  H   UNK N   1      37.648  15.879  10.594  0.00  0.00     0.167 HD
ENDBRANCH  18  20
ENDBRANCH  17  18
BRANCH  17  22
HETATM   22  N   UNK N   1      33.529  16.667   9.363  0.00  0.00    -0.395 N 
HETATM   23  H   UNK N   1      33.066  17.260  10.051  0.00  0.00     0.155 HD
BRANCH  22  24
HETATM   24  C   UNK N   1      33.129  16.604   7.952  0.00  0.00     0.176 C 
BRANCH  24  25
HETATM   25  C   UNK N   1      31.718  17.211   7.796  0.00  0.00     0.039 C 
BRANCH  25  26
HETATM   26  C   UNK N   1      30.998  16.933   6.476  0.00  0.00    -0.020 C 
HETATM   27  C   UNK N   1      29.585  17.469   6.534  0.00  0.00     0.009 C 
HETATM   28  C   UNK N   1      30.930  15.432   6.260  0.00  0.00     0.009 C 
ENDBRANCH  25  26
ENDBRANCH  24  25
BRANCH  24  29
HETATM   29  C   UNK N   1      34.172  17.272   7.080  0.00  0.00     0.163 C 
HETATM   30  O   UNK N   1      34.524  16.754   6.031  0.00  0.00    -0.648 OA
BRANCH  29  31
HETATM   31  O   UNK N   1      34.678  18.469   7.433  0.00  0.00    -0.775 OA
HETATM   32  H   UNK N   1      34.735  19.161   8.061  0.00  0.00     0.167 HD
ENDBRANCH  29  31
ENDBRANCH  24  29
ENDBRANCH  22  24
ENDBRANCH  17  22
ENDBRANCH   1  17
TORSDOF 12
ENDMDL
MODEL 2
REMARK VINA RESULT:      -6.7     12.254     15.046
REMARK  12 active torsions:
REMARK  status: ('A' for Active; 'I' for Inactive)
REMARK    1  A    between atoms: C_11  and  C_3 
REMARK    2  A    between atoms: C_16  and  C_3 
REMARK    3  A    between atoms: C_15  and  C_7 
REMARK    4  A    between atoms: C_17  and  C_7 
REMARK    5  A    between atoms: C_12  and  C_9 
REMARK    6  A    between atoms: N_25  and  C_9 
REMARK    7  A    between atoms: C_18  and  C_16 
REMARK    8  A    between atoms: C_16  and  N_24 
REMARK    9  A    between atoms: C_19  and  C_17 
REMARK   10  A    between atoms: C_17  and  N_24 
REMARK   11  A    between atoms: O_27  and  C_18 
REMARK   12  A    between atoms: O_29  and  C_19 
ROOT
HETATM    1  C   UNK N   1      20.241  15.468   2.412  0.00  0.00     0.094 C 
ENDROOT
BRANCH   1   2
HETATM    2  C   UNK N   1      20.059  15.463   3.902  0.00  0.00     0.030 A 
HETATM    3  C   UNK N   1      19.135  16.193   4.622  0.00  0.00     0.114 A 
HETATM    4  N   UNK N   1      19.255  15.846   5.922  0.00  0.00    -0.360 N 
HETATM    5  C   UNK N   1      20.235  14.915   5.973  0.00  0.00     0.183 A 
ATOM      6  HN  UNK N   1      18.716  16.212   6.706  1.00  0.00     0.166 HD
HETATM    7  N   UNK N   1      20.739  14.681   4.748  0.00  0.00    -0.341 N 
BRANCH   7   8
HETATM    8  C   UNK N   1      21.782  13.721   4.390  0.00  0.00     0.168 C 
BRANCH   8   9
HETATM    9  C   UNK N   1      23.137  14.334   4.467  0.00  0.00    -0.037 A 
HETATM   10  C   UNK N   1      23.769  14.460   5.706  0.00  0.00     0.032 A 
HETATM   11  C   UNK N   1      25.040  15.024   5.791  0.00  0.00     0.036 A 
HETATM   12  C   UNK N   1      25.688  15.463   4.632  0.00  0.00     0.047 A 
HETATM   13 Cl   UNK N   1      25.815  15.182   7.350  0.00  0.00    -0.084 Cl
HETATM   14  C   UNK N   1      25.059  15.333   3.388  0.00  0.00     0.036 A 
HETATM   15  C   UNK N   1      23.783  14.766   3.305  0.00  0.00     0.032 A 
HETATM   16 Cl   UNK N   1      25.872  15.882   1.940  0.00  0.00    -0.084 Cl
ENDBRANCH   8   9
ENDBRANCH   7   8
ENDBRANCH   1   2
BRANCH   1  17
HETATM   17  C   UNK N   1      19.876  16.834   1.807  0.00  0.00     0.181 C 
BRANCH  17  18
HETATM   18  C   UNK N   1      19.536  16.771   0.338  0.00  0.00     0.163 C 
HETATM   19  O   UNK N   1      20.293  17.211  -0.511  0.00  0.00    -0.648 OA
BRANCH  18  20
HETATM   20  O   UNK N   1      18.367  16.220  -0.044  0.00  0.00    -0.775 OA
HETATM   21  H   UNK N   1      17.638  15.940   0.474  0.00  0.00     0.167 HD
ENDBRANCH  18  20
ENDBRANCH  17  18
BRANCH  17  22
HETATM   22  N   UNK N   1      21.004  17.769   1.959  0.00  0.00    -0.395 N 
HETATM   23  H   UNK N   1      21.961  17.538   1.695  0.00  0.00     0.155 HD
BRANCH  22  24
HETATM   24  C   UNK N   1      20.614  19.064   2.528  0.00  0.00     0.176 C 
BRANCH  24  25
HETATM   25  C   UNK N   1      21.308  19.249   3.895  0.00  0.00     0.039 C 
BRANCH  25  26
HETATM   26  C   UNK N   1      22.435  18.272   4.225  0.00  0.00    -0.020 C 
HETATM   27  C   UNK N   1      22.387  17.902   5.691  0.00  0.00     0.009 C 
HETATM   28  C   UNK N   1      23.767  18.947   3.948  0.00  0.00     0.009 C 
ENDBRANCH  25  26
ENDBRANCH  24  25
BRANCH  24  29
HETATM   29  C   UNK N   1      20.908  20.180   1.547  0.00  0.00     0.163 C 
HETATM   30  O   UNK N   1      21.408  21.226   1.932  0.00  0.00    -0.648 OA
BRANCH  29  31
HETATM   31  O   UNK N   1      20.668  20.002   0.234  0.00  0.00    -0.775 OA
HETATM   32  H   UNK N   1      20.049  19.874  -0.457  0.00  0.00     0.167 HD
ENDBRANCH  29  31
ENDBRANCH  24  29
ENDBRANCH  22  24
ENDBRANCH  17  22
ENDBRANCH   1  17
TORSDOF 12
ENDMDL
MODEL 3
REMARK VINA RESULT:      -6.7      1.523      1.961
REMARK  12 active torsions:
REMARK  status: ('A' for Active; 'I' for Inactive)
REMARK    1  A    between atoms: C_11  and  C_3 
REMARK    2  A    between atoms: C_16  and  C_3 
REMARK    3  A    between atoms: C_15  and  C_7 
REMARK    4  A    between atoms: C_17  and  C_7 
REMARK    5  A    between atoms: C_12  and  C_9 
REMARK    6  A    between atoms: N_25  and  C_9 
REMARK    7  A    between atoms: C_18  and  C_16 
REMARK    8  A    between atoms: C_16  and  N_24 
REMARK    9  A    between atoms: C_19  and  C_17 
REMARK   10  A    between atoms: C_17  and  N_24 
REMARK   11  A    between atoms: O_27  and  C_18 
REMARK   12  A    between atoms: O_29  and  C_19 
ROOT
HETATM    1  C   UNK N   1      34.306  14.683  11.060  0.00  0.00     0.094 C 
ENDROOT
BRANCH   1   2
HETATM    2  C   UNK N   1      34.775  13.293  10.738  0.00  0.00     0.030 A 
HETATM    3  C   UNK N   1      34.223  12.431   9.814  0.00  0.00     0.114 A 
HETATM    4  N   UNK N   1      34.985  11.316   9.781  0.00  0.00    -0.360 N 
HETATM    5  C   UNK N   1      35.983  11.517  10.672  0.00  0.00     0.183 A 
ATOM      6  HN  UNK N   1      34.837  10.490   9.202  1.00  0.00     0.166 HD
HETATM    7  N   UNK N   1      35.859  12.716  11.269  0.00  0.00    -0.341 N 
BRANCH   7   8
HETATM    8  C   UNK N   1      36.758  13.307  12.259  0.00  0.00     0.168 C 
BRANCH   8   9
HETATM    9  C   UNK N   1      36.611  12.653  13.588  0.00  0.00    -0.037 A 
HETATM   10  C   UNK N   1      35.798  13.240  14.561  0.00  0.00     0.032 A 
HETATM   11  C   UNK N   1      35.645  12.634  15.806  0.00  0.00     0.036 A 
HETATM   12  C   UNK N   1      36.303  11.431  16.083  0.00  0.00     0.047 A 
HETATM   13 Cl   UNK N   1      34.632  13.385  17.017  0.00  0.00    -0.084 Cl
HETATM   14  C   UNK N   1      37.112  10.837  15.108  0.00  0.00     0.036 A 
HETATM   15  C   UNK N   1      37.265  11.447  13.858  0.00  0.00     0.032 A 
HETATM   16 Cl   UNK N   1      37.933   9.332  15.456  0.00  0.00    -0.084 Cl
ENDBRANCH   8   9
ENDBRANCH   7   8
ENDBRANCH   1   2
BRANCH   1  17
HETATM   17  C   UNK N   1      34.774  15.692  10.000  0.00  0.00     0.181 C 
BRANCH  17  18
HETATM   18  C   UNK N   1      35.934  16.547  10.452  0.00  0.00     0.163 C 
HETATM   19  O   UNK N   1      35.829  17.758  10.556  0.00  0.00    -0.648 OA
BRANCH  18  20
HETATM   20  O   UNK N   1      37.110  15.960  10.742  0.00  0.00    -0.775 OA
HETATM   21  H   UNK N   1      37.937  16.026  10.307  0.00  0.00     0.167 HD
ENDBRANCH  18  20
ENDBRANCH  17  18
BRANCH  17  22
HETATM   22  N   UNK N   1      33.669  16.600   9.647  0.00  0.00    -0.395 N 
HETATM   23  H   UNK N   1      33.153  17.146  10.335  0.00  0.00     0.155 HD
BRANCH  22  24
HETATM   24  C   UNK N   1      33.385  16.637   8.207  0.00  0.00     0.176 C 
BRANCH  24  25
HETATM   25  C   UNK N   1      31.858  16.722   7.992  0.00  0.00     0.039 C 
BRANCH  25  26
HETATM   26  C   UNK N   1      31.255  15.742   6.987  0.00  0.00    -0.020 C 
HETATM   27  C   UNK N   1      32.218  14.604   6.730  0.00  0.00     0.009 C 
HETATM   28  C   UNK N   1      31.014  16.469   5.675  0.00  0.00     0.009 C 
ENDBRANCH  25  26
ENDBRANCH  24  25
BRANCH  24  29
HETATM   29  C   UNK N   1      34.150  17.766   7.549  0.00  0.00     0.163 C 
HETATM   30  O   UNK N   1      34.382  17.739   6.350  0.00  0.00    -0.648 OA
BRANCH  29  31
HETATM   31  O   UNK N   1      34.532  18.833   8.276  0.00  0.00    -0.775 OA
HETATM   32  H   UNK N   1      34.900  19.174   9.067  0.00  0.00     0.167 HD
ENDBRANCH  29  31
ENDBRANCH  24  29
ENDBRANCH  22  24
ENDBRANCH  17  22
ENDBRANCH   1  17
TORSDOF 12
ENDMDL
MODEL 4
REMARK VINA RESULT:      -6.7      3.463      7.305
REMARK  12 active torsions:
REMARK  status: ('A' for Active; 'I' for Inactive)
REMARK    1  A    between atoms: C_11  and  C_3 
REMARK    2  A    between atoms: C_16  and  C_3 
REMARK    3  A    between atoms: C_15  and  C_7 
REMARK    4  A    between atoms: C_17  and  C_7 
REMARK    5  A    between atoms: C_12  and  C_9 
REMARK    6  A    between atoms: N_25  and  C_9 
REMARK    7  A    between atoms: C_18  and  C_16 
REMARK    8  A    between atoms: C_16  and  N_24 
REMARK    9  A    between atoms: C_19  and  C_17 
REMARK   10  A    between atoms: C_17  and  N_24 
REMARK   11  A    between atoms: O_27  and  C_18 
REMARK   12  A    between atoms: O_29  and  C_19 
ROOT
HETATM    1  C   UNK N   1      33.722  15.208   9.723  0.00  0.00     0.094 C 
ENDROOT
BRANCH   1   2
HETATM    2  C   UNK N   1      34.419  14.999   8.410  0.00  0.00     0.030 A 
HETATM    3  C   UNK N   1      34.965  13.821   7.945  0.00  0.00     0.114 A 
HETATM    4  N   UNK N   1      35.429  14.045   6.696  0.00  0.00    -0.360 N 
HETATM    5  C   UNK N   1      35.155  15.339   6.420  0.00  0.00     0.183 A 
ATOM      6  HN  UNK N   1      35.893  13.372   6.086  1.00  0.00     0.166 HD
HETATM    7  N   UNK N   1      34.547  15.934   7.462  0.00  0.00    -0.341 N 
BRANCH   7   8
HETATM    8  C   UNK N   1      34.064  17.313   7.534  0.00  0.00     0.168 C 
BRANCH   8   9
HETATM    9  C   UNK N   1      32.578  17.373   7.462  0.00  0.00    -0.037 A 
HETATM   10  C   UNK N   1      31.854  17.890   8.540  0.00  0.00     0.032 A 
HETATM   11  C   UNK N   1      30.464  17.960   8.482  0.00  0.00     0.036 A 
HETATM   12  C   UNK N   1      29.789  17.517   7.341  0.00  0.00     0.047 A 
HETATM   13 Cl   UNK N   1      29.572  18.601   9.843  0.00  0.00    -0.084 Cl
HETATM   14  C   UNK N   1      30.511  17.005   6.256  0.00  0.00     0.036 A 
HETATM   15  C   UNK N   1      31.907  16.935   6.316  0.00  0.00     0.032 A 
HETATM   16 Cl   UNK N   1      29.665  16.452   4.828  0.00  0.00    -0.084 Cl
ENDBRANCH   8   9
ENDBRANCH   7   8
ENDBRANCH   1   2
BRANCH   1  17
HETATM   17  C   UNK N   1      34.721  15.224  10.892  0.00  0.00     0.181 C 
BRANCH  17  18
HETATM   18  C   UNK N   1      35.809  16.260  10.739  0.00  0.00     0.163 C 
HETATM   19  O   UNK N   1      35.547  17.430  10.516  0.00  0.00    -0.648 OA
BRANCH  18  20
HETATM   20  O   UNK N   1      37.097  15.882  10.847  0.00  0.00    -0.775 OA
HETATM   21  H   UNK N   1      37.808  16.295  11.296  0.00  0.00     0.167 HD
ENDBRANCH  18  20
ENDBRANCH  17  18
BRANCH  17  22
HETATM   22  N   UNK N   1      35.377  13.911  11.011  0.00  0.00    -0.395 N 
HETATM   23  H   UNK N   1      36.065  13.566  10.342  0.00  0.00     0.155 HD
BRANCH  22  24
HETATM   24  C   UNK N   1      34.940  13.147  12.186  0.00  0.00     0.176 C 
BRANCH  24  25
HETATM   25  C   UNK N   1      35.154  11.641  11.922  0.00  0.00     0.039 C 
BRANCH  25  26
HETATM   26  C   UNK N   1      34.082  10.695  12.463  0.00  0.00    -0.020 C 
HETATM   27  C   UNK N   1      34.521  10.119  13.791  0.00  0.00     0.009 C 
HETATM   28  C   UNK N   1      33.901   9.548  11.483  0.00  0.00     0.009 C 
ENDBRANCH  25  26
ENDBRANCH  24  25
BRANCH  24  29
HETATM   29  C   UNK N   1      35.646  13.647  13.429  0.00  0.00     0.163 C 
HETATM   30  O   UNK N   1      35.091  13.597  14.517  0.00  0.00    -0.648 OA
BRANCH  29  31
HETATM   31  O   UNK N   1      36.911  14.101  13.349  0.00  0.00    -0.775 OA
HETATM   32  H   UNK N   1      37.522  14.799  13.480  0.00  0.00     0.167 HD
ENDBRANCH  29  31
ENDBRANCH  24  29
ENDBRANCH  22  24
ENDBRANCH  17  22
ENDBRANCH   1  17
TORSDOF 12
ENDMDL
MODEL 5
REMARK VINA RESULT:      -6.6      2.271      3.421
REMARK  12 active torsions:
REMARK  status: ('A' for Active; 'I' for Inactive)
REMARK    1  A    between atoms: C_11  and  C_3 
REMARK    2  A    between atoms: C_16  and  C_3 
REMARK    3  A    between atoms: C_15  and  C_7 
REMARK    4  A    between atoms: C_17  and  C_7 
REMARK    5  A    between atoms: C_12  and  C_9 
REMARK    6  A    between atoms: N_25  and  C_9 
REMARK    7  A    between atoms: C_18  and  C_16 
REMARK    8  A    between atoms: C_16  and  N_24 
REMARK    9  A    between atoms: C_19  and  C_17 
REMARK   10  A    between atoms: C_17  and  N_24 
REMARK   11  A    between atoms: O_27  and  C_18 
REMARK   12  A    between atoms: O_29  and  C_19 
ROOT
HETATM    1  C   UNK N   1      35.012  14.118  12.368  0.00  0.00     0.094 C 
ENDROOT
BRANCH   1   2
HETATM    2  C   UNK N   1      35.841  12.869  12.297  0.00  0.00     0.030 A 
HETATM    3  C   UNK N   1      37.073  12.730  11.692  0.00  0.00     0.114 A 
HETATM    4  N   UNK N   1      37.506  11.471  11.917  0.00  0.00    -0.360 N 
HETATM    5  C   UNK N   1      36.545  10.870  12.654  0.00  0.00     0.183 A 
ATOM      6  HN  UNK N   1      38.381  11.057  11.595  1.00  0.00     0.166 HD
HETATM    7  N   UNK N   1      35.520  11.710  12.884  0.00  0.00    -0.341 N 
BRANCH   7   8
HETATM    8  C   UNK N   1      34.316  11.442  13.669  0.00  0.00     0.168 C 
BRANCH   8   9
HETATM    9  C   UNK N   1      34.607  11.435  15.129  0.00  0.00    -0.037 A 
HETATM   10  C   UNK N   1      34.693  10.219  15.811  0.00  0.00     0.032 A 
HETATM   11  C   UNK N   1      34.974  10.199  17.176  0.00  0.00     0.036 A 
HETATM   12  C   UNK N   1      35.174  11.398  17.866  0.00  0.00     0.047 A 
HETATM   13 Cl   UNK N   1      35.070   8.669  18.017  0.00  0.00    -0.084 Cl
HETATM   14  C   UNK N   1      35.094  12.618  17.184  0.00  0.00     0.036 A 
HETATM   15  C   UNK N   1      34.813  12.637  15.813  0.00  0.00     0.032 A 
HETATM   16 Cl   UNK N   1      35.346  14.118  18.049  0.00  0.00    -0.084 Cl
ENDBRANCH   8   9
ENDBRANCH   7   8
ENDBRANCH   1   2
BRANCH   1  17
HETATM   17  C   UNK N   1      34.894  14.792  10.991  0.00  0.00     0.181 C 
BRANCH  17  18
HETATM   18  C   UNK N   1      35.660  16.089  10.887  0.00  0.00     0.163 C 
HETATM   19  O   UNK N   1      36.853  16.105  10.634  0.00  0.00    -0.648 OA
BRANCH  18  20
HETATM   20  O   UNK N   1      35.012  17.253  11.083  0.00  0.00    -0.775 OA
HETATM   21  H   UNK N   1      34.320  17.462  11.679  0.00  0.00     0.167 HD
ENDBRANCH  18  20
ENDBRANCH  17  18
BRANCH  17  22
HETATM   22  N   UNK N   1      33.482  15.089  10.697  0.00  0.00    -0.395 N 
HETATM   23  H   UNK N   1      32.864  15.570  11.349  0.00  0.00     0.155 HD
BRANCH  22  24
HETATM   24  C   UNK N   1      33.054  14.622   9.373  0.00  0.00     0.176 C 
BRANCH  24  25
HETATM   25  C   UNK N   1      33.381  15.705   8.321  0.00  0.00     0.039 C 
BRANCH  25  26
HETATM   26  C   UNK N   1      32.702  17.062   8.505  0.00  0.00    -0.020 C 
HETATM   27  C   UNK N   1      31.395  17.095   7.744  0.00  0.00     0.009 C 
HETATM   28  C   UNK N   1      33.608  18.144   7.943  0.00  0.00     0.009 C 
ENDBRANCH  25  26
ENDBRANCH  24  25
BRANCH  24  29
HETATM   29  C   UNK N   1      33.674  13.276   9.064  0.00  0.00     0.163 C 
HETATM   30  O   UNK N   1      34.502  13.167   8.172  0.00  0.00    -0.648 OA
BRANCH  29  31
HETATM   31  O   UNK N   1      33.354  12.200   9.808  0.00  0.00    -0.775 OA
HETATM   32  H   UNK N   1      33.412  11.276   9.947  0.00  0.00     0.167 HD
ENDBRANCH  29  31
ENDBRANCH  24  29
ENDBRANCH  22  24
ENDBRANCH  17  22
ENDBRANCH   1  17
TORSDOF 12
ENDMDL
MODEL 6
REMARK VINA RESULT:      -6.5      8.469     10.757
REMARK  12 active torsions:
REMARK  status: ('A' for Active; 'I' for Inactive)
REMARK    1  A    between atoms: C_11  and  C_3 
REMARK    2  A    between atoms: C_16  and  C_3 
REMARK    3  A    between atoms: C_15  and  C_7 
REMARK    4  A    between atoms: C_17  and  C_7 
REMARK    5  A    between atoms: C_12  and  C_9 
REMARK    6  A    between atoms: N_25  and  C_9 
REMARK    7  A    between atoms: C_18  and  C_16 
REMARK    8  A    between atoms: C_16  and  N_24 
REMARK    9  A    between atoms: C_19  and  C_17 
REMARK   10  A    between atoms: C_17  and  N_24 
REMARK   11  A    between atoms: O_27  and  C_18 
REMARK   12  A    between atoms: O_29  and  C_19 
ROOT
HETATM    1  C   UNK N   1      28.445  16.526   6.505  0.00  0.00     0.094 C 
ENDROOT
BRANCH   1   2
HETATM    2  C   UNK N   1      28.851  16.514   5.059  0.00  0.00     0.030 A 
HETATM    3  C   UNK N   1      29.673  17.424   4.427  0.00  0.00     0.114 A 
HETATM    4  N   UNK N   1      29.841  17.013   3.151  0.00  0.00    -0.360 N 
HETATM    5  C   UNK N   1      29.132  15.868   3.029  0.00  0.00     0.183 A 
ATOM      6  HN  UNK N   1      30.391  17.474   2.427  1.00  0.00     0.166 HD
HETATM    7  N   UNK N   1      28.516  15.559   4.184  0.00  0.00    -0.341 N 
BRANCH   7   8
HETATM    8  C   UNK N   1      27.691  14.384   4.459  0.00  0.00     0.168 C 
BRANCH   8   9
HETATM    9  C   UNK N   1      26.266  14.623   4.100  0.00  0.00    -0.037 A 
HETATM   10  C   UNK N   1      25.375  15.083   5.075  0.00  0.00     0.032 A 
HETATM   11  C   UNK N   1      24.041  15.319   4.750  0.00  0.00     0.036 A 
HETATM   12  C   UNK N   1      23.591  15.100   3.445  0.00  0.00     0.047 A 
HETATM   13 Cl   UNK N   1      22.938  15.886   5.982  0.00  0.00    -0.084 Cl
HETATM   14  C   UNK N   1      24.481  14.646   2.465  0.00  0.00     0.036 A 
HETATM   15  C   UNK N   1      25.821  14.409   2.793  0.00  0.00     0.032 A 
HETATM   16 Cl   UNK N   1      23.916  14.374   0.832  0.00  0.00    -0.084 Cl
ENDBRANCH   8   9
ENDBRANCH   7   8
ENDBRANCH   1   2
BRANCH   1  17
HETATM   17  C   UNK N   1      28.436  17.955   7.073  0.00  0.00     0.181 C 
BRANCH  17  18
HETATM   18  C   UNK N   1      28.551  18.005   8.578  0.00  0.00     0.163 C 
HETATM   19  O   UNK N   1      29.607  17.774   9.144  0.00  0.00    -0.648 OA
BRANCH  18  20
HETATM   20  O   UNK N   1      27.462  18.306   9.311  0.00  0.00    -0.775 OA
HETATM   21  H   UNK N   1      26.641  18.670   9.044  0.00  0.00     0.167 HD
ENDBRANCH  18  20
ENDBRANCH  17  18
BRANCH  17  22
HETATM   22  N   UNK N   1      27.183  18.635   6.703  0.00  0.00    -0.395 N 
HETATM   23  H   UNK N   1      26.262  18.217   6.828  0.00  0.00     0.155 HD
BRANCH  22  24
HETATM   24  C   UNK N   1      27.393  19.973   6.138  0.00  0.00     0.176 C 
BRANCH  24  25
HETATM   25  C   UNK N   1      27.052  19.948   4.632  0.00  0.00     0.039 C 
BRANCH  25  26
HETATM   26  C   UNK N   1      25.727  19.293   4.243  0.00  0.00    -0.020 C 
HETATM   27  C   UNK N   1      25.973  18.160   3.272  0.00  0.00     0.009 C 
HETATM   28  C   UNK N   1      24.851  20.327   3.557  0.00  0.00     0.009 C 
ENDBRANCH  25  26
ENDBRANCH  24  25
BRANCH  24  29
HETATM   29  C   UNK N   1      26.603  21.003   6.917  0.00  0.00     0.163 C 
HETATM   30  O   UNK N   1      26.364  22.097   6.429  0.00  0.00    -0.648 OA
BRANCH  29  31
HETATM   31  O   UNK N   1      26.115  20.697   8.134  0.00  0.00    -0.775 OA
HETATM   32  H   UNK N   1      26.263  20.360   8.995  0.00  0.00     0.167 HD
ENDBRANCH  29  31
ENDBRANCH  24  29
ENDBRANCH  22  24
ENDBRANCH  17  22
ENDBRANCH   1  17
TORSDOF 12
ENDMDL
MODEL 7
REMARK VINA RESULT:      -6.4      4.983      9.380
REMARK  12 active torsions:
REMARK  status: ('A' for Active; 'I' for Inactive)
REMARK    1  A    between atoms: C_11  and  C_3 
REMARK    2  A    between atoms: C_16  and  C_3 
REMARK    3  A    between atoms: C_15  and  C_7 
REMARK    4  A    between atoms: C_17  and  C_7 
REMARK    5  A    between atoms: C_12  and  C_9 
REMARK    6  A    between atoms: N_25  and  C_9 
REMARK    7  A    between atoms: C_18  and  C_16 
REMARK    8  A    between atoms: C_16  and  N_24 
REMARK    9  A    between atoms: C_19  and  C_17 
REMARK   10  A    between atoms: C_17  and  N_24 
REMARK   11  A    between atoms: O_27  and  C_18 
REMARK   12  A    between atoms: O_29  and  C_19 
ROOT
HETATM    1  C   UNK N   1      31.930  17.312   7.546  0.00  0.00     0.094 C 
ENDROOT
BRANCH   1   2
HETATM    2  C   UNK N   1      30.540  17.733   7.928  0.00  0.00     0.030 A 
HETATM    3  C   UNK N   1      30.120  18.156   9.172  0.00  0.00     0.114 A 
HETATM    4  N   UNK N   1      28.819  18.508   9.072  0.00  0.00    -0.360 N 
HETATM    5  C   UNK N   1      28.473  18.301   7.781  0.00  0.00     0.183 A 
ATOM      6  HN  UNK N   1      28.220  18.857   9.819  1.00  0.00     0.166 HD
HETATM    7  N   UNK N   1      29.512  17.819   7.076  0.00  0.00    -0.341 N 
BRANCH   7   8
HETATM    8  C   UNK N   1      29.542  17.505   5.649  0.00  0.00     0.168 C 
BRANCH   8   9
HETATM    9  C   UNK N   1      28.205  17.696   5.021  0.00  0.00    -0.037 A 
HETATM   10  C   UNK N   1      27.898  18.913   4.406  0.00  0.00     0.032 A 
HETATM   11  C   UNK N   1      26.654  19.101   3.808  0.00  0.00     0.036 A 
HETATM   12  C   UNK N   1      25.711  18.069   3.817  0.00  0.00     0.047 A 
HETATM   13 Cl   UNK N   1      26.281  20.633   3.051  0.00  0.00    -0.084 Cl
HETATM   14  C   UNK N   1      26.018  16.847   4.426  0.00  0.00     0.036 A 
HETATM   15  C   UNK N   1      27.268  16.659   5.027  0.00  0.00     0.032 A 
HETATM   16 Cl   UNK N   1      24.837  15.557   4.435  0.00  0.00    -0.084 Cl
ENDBRANCH   8   9
ENDBRANCH   7   8
ENDBRANCH   1   2
BRANCH   1  17
HETATM   17  C   UNK N   1      32.979  17.917   8.494  0.00  0.00     0.181 C 
BRANCH  17  18
HETATM   18  C   UNK N   1      34.239  18.363   7.793  0.00  0.00     0.163 C 
HETATM   19  O   UNK N   1      35.057  19.078   8.347  0.00  0.00    -0.648 OA
BRANCH  18  20
HETATM   20  O   UNK N   1      34.461  17.968   6.525  0.00  0.00    -0.775 OA
HETATM   21  H   UNK N   1      34.831  18.440   5.805  0.00  0.00     0.167 HD
ENDBRANCH  18  20
ENDBRANCH  17  18
BRANCH  17  22
HETATM   22  N   UNK N   1      33.368  16.925   9.511  0.00  0.00    -0.395 N 
HETATM   23  H   UNK N   1      33.470  17.149  10.501  0.00  0.00     0.155 HD
BRANCH  22  24
HETATM   24  C   UNK N   1      33.594  15.585   8.960  0.00  0.00     0.176 C 
BRANCH  24  25
HETATM   25  C   UNK N   1      34.990  15.086   9.391  0.00  0.00     0.039 C 
BRANCH  25  26
HETATM   26  C   UNK N   1      35.114  14.551  10.817  0.00  0.00    -0.020 C 
HETATM   27  C   UNK N   1      35.915  15.514  11.664  0.00  0.00     0.009 C 
HETATM   28  C   UNK N   1      35.849  13.222  10.781  0.00  0.00     0.009 C 
ENDBRANCH  25  26
ENDBRANCH  24  25
BRANCH  24  29
HETATM   29  C   UNK N   1      32.470  14.653   9.364  0.00  0.00     0.163 C 
HETATM   30  O   UNK N   1      32.339  13.569   8.816  0.00  0.00    -0.648 OA
BRANCH  29  31
HETATM   31  O   UNK N   1      31.641  14.995  10.368  0.00  0.00    -0.775 OA
HETATM   32  H   UNK N   1      30.768  15.156  10.667  0.00  0.00     0.167 HD
ENDBRANCH  29  31
ENDBRANCH  24  29
ENDBRANCH  22  24
ENDBRANCH  17  22
ENDBRANCH   1  17
TORSDOF 12
ENDMDL
MODEL 8
REMARK VINA RESULT:      -6.4      3.485      7.278
REMARK  12 active torsions:
REMARK  status: ('A' for Active; 'I' for Inactive)
REMARK    1  A    between atoms: C_11  and  C_3 
REMARK    2  A    between atoms: C_16  and  C_3 
REMARK    3  A    between atoms: C_15  and  C_7 
REMARK    4  A    between atoms: C_17  and  C_7 
REMARK    5  A    between atoms: C_12  and  C_9 
REMARK    6  A    between atoms: N_25  and  C_9 
REMARK    7  A    between atoms: C_18  and  C_16 
REMARK    8  A    between atoms: C_16  and  N_24 
REMARK    9  A    between atoms: C_19  and  C_17 
REMARK   10  A    between atoms: C_17  and  N_24 
REMARK   11  A    between atoms: O_27  and  C_18 
REMARK   12  A    between atoms: O_29  and  C_19 
ROOT
HETATM    1  C   UNK N   1      33.686  15.282   9.763  0.00  0.00     0.094 C 
ENDROOT
BRANCH   1   2
HETATM    2  C   UNK N   1      34.344  15.117   8.423  0.00  0.00     0.030 A 
HETATM    3  C   UNK N   1      34.902  13.961   7.917  0.00  0.00     0.114 A 
HETATM    4  N   UNK N   1      35.319  14.220   6.658  0.00  0.00    -0.360 N 
HETATM    5  C   UNK N   1      35.006  15.514   6.418  0.00  0.00     0.183 A 
ATOM      6  HN  UNK N   1      35.778  13.572   6.019  1.00  0.00     0.166 HD
HETATM    7  N   UNK N   1      34.419  16.073   7.491  0.00  0.00    -0.341 N 
BRANCH   7   8
HETATM    8  C   UNK N   1      33.907  17.438   7.607  0.00  0.00     0.168 C 
BRANCH   8   9
HETATM    9  C   UNK N   1      32.427  17.480   7.445  0.00  0.00    -0.037 A 
HETATM   10  C   UNK N   1      31.853  17.087   6.233  0.00  0.00     0.032 A 
HETATM   11  C   UNK N   1      30.470  17.114   6.071  0.00  0.00     0.036 A 
HETATM   12  C   UNK N   1      29.651  17.530   7.124  0.00  0.00     0.047 A 
HETATM   13 Cl   UNK N   1      29.767  16.628   4.545  0.00  0.00    -0.084 Cl
HETATM   14  C   UNK N   1      30.222  17.918   8.342  0.00  0.00     0.036 A 
HETATM   15  C   UNK N   1      31.612  17.891   8.504  0.00  0.00     0.032 A 
HETATM   16 Cl   UNK N   1      29.196  18.437   9.660  0.00  0.00    -0.084 Cl
ENDBRANCH   8   9
ENDBRANCH   7   8
ENDBRANCH   1   2
BRANCH   1  17
HETATM   17  C   UNK N   1      34.723  15.297  10.898  0.00  0.00     0.181 C 
BRANCH  17  18
HETATM   18  C   UNK N   1      35.787  16.355  10.729  0.00  0.00     0.163 C 
HETATM   19  O   UNK N   1      35.498  17.518  10.500  0.00  0.00    -0.648 OA
BRANCH  18  20
HETATM   20  O   UNK N   1      37.083  16.005  10.827  0.00  0.00    -0.775 OA
HETATM   21  H   UNK N   1      37.523  15.239  10.516  0.00  0.00     0.167 HD
ENDBRANCH  18  20
ENDBRANCH  17  18
BRANCH  17  22
HETATM   22  N   UNK N   1      35.405  13.994  10.974  0.00  0.00    -0.395 N 
HETATM   23  H   UNK N   1      36.107  13.690  10.300  0.00  0.00     0.155 HD
BRANCH  22  24
HETATM   24  C   UNK N   1      34.972  13.177  12.113  0.00  0.00     0.176 C 
BRANCH  24  25
HETATM   25  C   UNK N   1      35.251  11.690  11.808  0.00  0.00     0.039 C 
BRANCH  25  26
HETATM   26  C   UNK N   1      36.336  11.397  10.772  0.00  0.00    -0.020 C 
HETATM   27  C   UNK N   1      35.936  10.211   9.923  0.00  0.00     0.009 C 
HETATM   28  C   UNK N   1      37.626  11.052  11.495  0.00  0.00     0.009 C 
ENDBRANCH  25  26
ENDBRANCH  24  25
BRANCH  24  29
HETATM   29  C   UNK N   1      35.630  13.663  13.389  0.00  0.00     0.163 C 
HETATM   30  O   UNK N   1      35.054  13.555  14.461  0.00  0.00    -0.648 OA
BRANCH  29  31
HETATM   31  O   UNK N   1      36.876  14.170  13.352  0.00  0.00    -0.775 OA
HETATM   32  H   UNK N   1      37.672  14.373  13.802  0.00  0.00     0.167 HD
ENDBRANCH  29  31
ENDBRANCH  24  29
ENDBRANCH  22  24
ENDBRANCH  17  22
ENDBRANCH   1  17
TORSDOF 12
ENDMDL
MODEL 9
REMARK VINA RESULT:      -6.4      1.676      2.315
REMARK  12 active torsions:
REMARK  status: ('A' for Active; 'I' for Inactive)
REMARK    1  A    between atoms: C_11  and  C_3 
REMARK    2  A    between atoms: C_16  and  C_3 
REMARK    3  A    between atoms: C_15  and  C_7 
REMARK    4  A    between atoms: C_17  and  C_7 
REMARK    5  A    between atoms: C_12  and  C_9 
REMARK    6  A    between atoms: N_25  and  C_9 
REMARK    7  A    between atoms: C_18  and  C_16 
REMARK    8  A    between atoms: C_16  and  N_24 
REMARK    9  A    between atoms: C_19  and  C_17 
REMARK   10  A    between atoms: C_17  and  N_24 
REMARK   11  A    between atoms: O_27  and  C_18 
REMARK   12  A    between atoms: O_29  and  C_19 
ROOT
HETATM    1  C   UNK N   1      34.482  14.091  11.046  0.00  0.00     0.094 C 
ENDROOT
BRANCH   1   2
HETATM    2  C   UNK N   1      35.651  13.175  11.269  0.00  0.00     0.030 A 
HETATM    3  C   UNK N   1      36.226  12.332  10.340  0.00  0.00     0.114 A 
HETATM    4  N   UNK N   1      37.292  11.741  10.922  0.00  0.00    -0.360 N 
HETATM    5  C   UNK N   1      37.354  12.233  12.180  0.00  0.00     0.183 A 
ATOM      6  HN  UNK N   1      37.923  11.061  10.497  1.00  0.00     0.166 HD
HETATM    7  N   UNK N   1      36.352  13.101  12.406  0.00  0.00    -0.341 N 
BRANCH   7   8
HETATM    8  C   UNK N   1      36.102  13.865  13.628  0.00  0.00     0.168 C 
BRANCH   8   9
HETATM    9  C   UNK N   1      35.790  12.969  14.775  0.00  0.00    -0.037 A 
HETATM   10  C   UNK N   1      35.671  11.593  14.565  0.00  0.00     0.032 A 
HETATM   11  C   UNK N   1      35.387  10.743  15.632  0.00  0.00     0.036 A 
HETATM   12  C   UNK N   1      35.225  11.266  16.918  0.00  0.00     0.047 A 
HETATM   13 Cl   UNK N   1      35.232   9.023  15.352  0.00  0.00    -0.084 Cl
HETATM   14  C   UNK N   1      35.350  12.643  17.133  0.00  0.00     0.036 A 
HETATM   15  C   UNK N   1      35.635  13.496  16.061  0.00  0.00     0.032 A 
HETATM   16 Cl   UNK N   1      35.149  13.296  18.744  0.00  0.00    -0.084 Cl
ENDBRANCH   8   9
ENDBRANCH   7   8
ENDBRANCH   1   2
BRANCH   1  17
HETATM   17  C   UNK N   1      34.870  15.291  10.167  0.00  0.00     0.181 C 
BRANCH  17  18
HETATM   18  C   UNK N   1      35.783  16.275  10.859  0.00  0.00     0.163 C 
HETATM   19  O   UNK N   1      35.339  17.222  11.486  0.00  0.00    -0.648 OA
BRANCH  18  20
HETATM   20  O   UNK N   1      37.116  16.105  10.777  0.00  0.00    -0.775 OA
HETATM   21  H   UNK N   1      37.649  15.889  10.037  0.00  0.00     0.167 HD
ENDBRANCH  18  20
ENDBRANCH  17  18
BRANCH  17  22
HETATM   22  N   UNK N   1      33.661  16.025   9.756  0.00  0.00    -0.395 N 
HETATM   23  H   UNK N   1      32.985  16.405  10.419  0.00  0.00     0.155 HD
BRANCH  22  24
HETATM   24  C   UNK N   1      33.525  16.154   8.301  0.00  0.00     0.176 C 
BRANCH  24  25
HETATM   25  C   UNK N   1      32.041  15.984   7.911  0.00  0.00     0.039 C 
BRANCH  25  26
HETATM   26  C   UNK N   1      31.275  17.260   7.566  0.00  0.00    -0.020 C 
HETATM   27  C   UNK N   1      30.452  17.709   8.754  0.00  0.00     0.009 C 
HETATM   28  C   UNK N   1      30.329  16.969   6.414  0.00  0.00     0.009 C 
ENDBRANCH  25  26
ENDBRANCH  24  25
BRANCH  24  29
HETATM   29  C   UNK N   1      34.125  17.463   7.831  0.00  0.00     0.163 C 
HETATM   30  O   UNK N   1      34.288  18.385   8.615  0.00  0.00    -0.648 OA
BRANCH  29  31
HETATM   31  O   UNK N   1      34.530  17.598   6.554  0.00  0.00    -0.775 OA
HETATM   32  H   UNK N   1      34.650  18.147   5.805  0.00  0.00     0.167 HD
ENDBRANCH  29  31
ENDBRANCH  24  29
ENDBRANCH  22  24
ENDBRANCH  17  22
ENDBRANCH   1  17
TORSDOF 12
ENDMDL
