REMARK  17 active torsions:
REMARK  status: ('A' for Active; 'I' for Inactive)
REMARK    1  A    between atoms: C_3  and  O_48 
REMARK    2  A    between atoms: C_4  and  O_47 
REMARK    3  A    between atoms: C_5  and  O_46 
REMARK    4  A    between atoms: C_6  and  O_8 
REMARK    5  A    between atoms: O_8  and  C_9 
REMARK    6  A    between atoms: C_13  and  O_45 
REMARK    7  A    between atoms: C_15  and  O_33 
REMARK    8  A    between atoms: C_16  and  C_28 
REMARK    9  A    between atoms: C_19  and  C_20 
REMARK   10  A    between atoms: C_23  and  O_26 
REMARK   11  A    between atoms: C_28  and  C_29 
REMARK   12  A    between atoms: C_34  and  O_33 
REMARK   13  A    between atoms: C_35  and  O_44 
REMARK   14  A    between atoms: C_36  and  O_43 
REMARK   15  A    between atoms: C_37  and  O_42 
REMARK   16  A    between atoms: C_38  and  C_40 
REMARK   17  A    between atoms: C_40  and  O_41 
ROOT
HETATM    1  C   UNK N   1       0.084  -0.206   0.223  0.00  0.00     0.157 A 
HETATM    2  C   UNK N   1       1.359   0.392   0.359  0.00  0.00     0.223 A 
HETATM    3  O   UNK N   1       1.481   1.600   0.379  0.00  0.00    -0.284 OA
HETATM    4  C   UNK N   1       2.505  -0.406   0.453  0.00  0.00     0.085 A 
HETATM    5  C   UNK N   1       3.784   0.160   0.626  0.00  0.00     0.085 A 
HETATM    6  C   UNK N   1       4.894  -0.650   0.618  0.00  0.00     0.075 A 
HETATM    7  C   UNK N   1       4.800  -2.022   0.420  0.00  0.00     0.084 A 
HETATM    8  C   UNK N   1       3.533  -2.632   0.337  0.00  0.00     0.014 A 
HETATM    9  C   UNK N   1       2.368  -1.809   0.354  0.00  0.00     0.102 A 
HETATM   10  O   UNK N   1       1.157  -2.340   0.233  0.00  0.00    -0.305 OA
HETATM   11  C   UNK N   1       0.028  -1.628   0.177  0.00  0.00     0.123 A 
ENDROOT
BRANCH   7  12
HETATM   12  O   UNK N   1       5.924  -2.770   0.245  0.00  0.00    -0.317 OA
BRANCH  12  13
HETATM   13  C   UNK N   1       7.144  -2.359  -0.306  0.00  0.00     0.298 C 
HETATM   14  C   UNK N   1       7.136  -1.052  -1.184  0.00  0.00     0.205 C 
HETATM   15  C   UNK N   1       7.480   0.142  -0.284  0.00  0.00     0.183 C 
HETATM   16  C   UNK N   1       8.853  -0.075   0.392  0.00  0.00     0.180 C 
HETATM   17  C   UNK N   1       9.228  -1.570   0.294  0.00  0.00     0.179 C 
HETATM   18  O   UNK N   1       8.144  -2.366   0.708  0.00  0.00    -0.348 OA
BRANCH  14  19
HETATM   19  O   UNK N   1       5.966  -0.884  -1.931  0.00  0.00    -0.388 OA
HETATM   20  H   UNK N   1       5.661  -0.123  -2.450  0.00  0.00     0.210 HD
ENDBRANCH  14  19
BRANCH  15  21
HETATM   21  O   UNK N   1       7.406   1.362  -0.962  0.00  0.00    -0.390 OA
HETATM   22  H   UNK N   1       8.114   1.830  -1.432  0.00  0.00     0.210 HD
ENDBRANCH  15  21
BRANCH  16  23
HETATM   23  O   UNK N   1       9.841   0.702  -0.216  0.00  0.00    -0.390 OA
HETATM   24  H   UNK N   1      10.652   0.378  -0.638  0.00  0.00     0.210 HD
ENDBRANCH  16  23
BRANCH  17  25
HETATM   25  C   UNK N   1      10.504  -1.944   1.017  0.00  0.00     0.198 C 
BRANCH  25  26
HETATM   26  O   UNK N   1      11.590  -1.741   0.164  0.00  0.00    -0.398 OA
HETATM   27  H   UNK N   1      12.089  -2.324  -0.429  0.00  0.00     0.209 HD
ENDBRANCH  25  26
ENDBRANCH  17  25
ENDBRANCH  12  13
ENDBRANCH   7  12
BRANCH   8  28
HETATM   28  C   UNK N   1       3.515  -4.136   0.153  0.00  0.00     0.072 C 
BRANCH  28  29
HETATM   29  C   UNK N   1       2.196  -4.812  -0.068  0.00  0.00    -0.020 C 
HETATM   30  C   UNK N   1       2.113  -6.108  -0.388  0.00  0.00    -0.091 C 
HETATM   31  C   UNK N   1       0.775  -6.722  -0.604  0.00  0.00     0.042 C 
HETATM   32  C   UNK N   1       3.335  -6.956  -0.555  0.00  0.00     0.042 C 
ENDBRANCH  28  29
ENDBRANCH   8  28
BRANCH   5  33
HETATM   33  O   UNK N   1       3.963   1.485   0.774  0.00  0.00    -0.360 OA
HETATM   34  H   UNK N   1       4.825   1.838   0.878  0.00  0.00     0.217 HD
ENDBRANCH   5  33
BRANCH  11  35
HETATM   35  C   UNK N   1      -1.245  -2.389   0.037  0.00  0.00     0.001 A 
HETATM   36  C   UNK N   1      -1.200  -3.792   0.075  0.00  0.00     0.017 A 
HETATM   37  C   UNK N   1      -2.366  -4.550  -0.053  0.00  0.00     0.037 A 
HETATM   38  C   UNK N   1      -3.600  -3.921  -0.230  0.00  0.00     0.068 A 
HETATM   39  C   UNK N   1      -3.655  -2.517  -0.275  0.00  0.00     0.037 A 
HETATM   40  C   UNK N   1      -2.488  -1.760  -0.141  0.00  0.00     0.017 A 
BRANCH  38  41
HETATM   41  O   UNK N   1      -4.713  -4.682  -0.354  0.00  0.00    -0.356 OA
HETATM   42  C   UNK N   1      -5.971  -4.155  -0.540  0.00  0.00     0.210 C 
ENDBRANCH  38  41
ENDBRANCH  11  35
BRANCH   1  43
HETATM   43  O   UNK N   1      -1.077   0.523   0.146  0.00  0.00    -0.311 OA
BRANCH  43  44
HETATM   44  C   UNK N   1      -1.225   1.891  -0.059  0.00  0.00     0.298 C 
HETATM   45  C   UNK N   1      -2.705   2.298  -0.073  0.00  0.00     0.205 C 
HETATM   46  C   UNK N   1      -2.792   3.808  -0.367  0.00  0.00     0.183 C 
HETATM   47  C   UNK N   1      -1.794   4.627   0.465  0.00  0.00     0.178 C 
HETATM   48  C   UNK N   1      -0.445   3.916   0.410  0.00  0.00     0.152 C 
HETATM   49  C   UNK N   1       0.640   4.665   1.162  0.00  0.00     0.042 C 
HETATM   50  O   UNK N   1      -0.619   2.638   0.963  0.00  0.00    -0.351 OA
BRANCH  45  51
HETATM   51  O   UNK N   1      -3.403   1.588  -1.050  0.00  0.00    -0.388 OA
HETATM   52  H   UNK N   1      -4.073   1.762  -1.730  0.00  0.00     0.210 HD
ENDBRANCH  45  51
BRANCH  46  53
HETATM   53  O   UNK N   1      -4.089   4.270  -0.138  0.00  0.00    -0.390 OA
HETATM   54  H   UNK N   1      -4.262   5.211   0.021  0.00  0.00     0.210 HD
ENDBRANCH  46  53
BRANCH  47  55
HETATM   55  O   UNK N   1      -1.689   5.915  -0.066  0.00  0.00    -0.390 OA
HETATM   56  H   UNK N   1      -0.878   6.299  -0.435  0.00  0.00     0.210 HD
ENDBRANCH  47  55
ENDBRANCH  43  44
ENDBRANCH   1  43
TORSDOF 17
