MODEL 1
REMARK VINA RESULT:      -9.9      0.000      0.000
REMARK  9 active torsions:
REMARK  status: ('A' for Active; 'I' for Inactive)
REMARK    1  A    between atoms: C_2  and  N_4 
REMARK    2  A    between atoms: N_4  and  C_5 
REMARK       I    between atoms: N_4  and  C_11 
REMARK    3  A    between atoms: C_11  and  C_13 
REMARK    4  A    between atoms: C_13  and  N_14 
REMARK    5  A    between atoms: N_21  and  C_40 
REMARK    6  A    between atoms: C_24  and  N_27 
REMARK       I    between atoms: N_27  and  C_28 
REMARK       I    between atoms: C_28  and  N_30 
REMARK    7  A    between atoms: N_30  and  C_31 
REMARK    8  A    between atoms: C_35  and  C_37 
REMARK    9  A    between atoms: C_37  and  O_39 
ROOT
HETATM    1  N   UNK N   1      27.513  17.034   5.595  0.00  0.00    -0.305 N 
HETATM    2  C   UNK N   1      27.063  18.395   5.573  0.00  0.00     0.065 A 
HETATM    3  C   UNK N   1      28.066  19.368   5.792  0.00  0.00     0.032 A 
HETATM    4  C   UNK N   1      27.815  20.728   5.745  0.00  0.00     0.002 A 
HETATM    5  C   UNK N   1      26.546  21.169   5.447  0.00  0.00     0.002 A 
HETATM    6  C   UNK N   1      25.542  20.247   5.190  0.00  0.00     0.032 A 
HETATM    7  C   UNK N   1      25.711  18.843   5.229  0.00  0.00     0.069 A 
HETATM    8  N   UNK N   1      24.516  18.004   4.927  0.00  0.00    -0.278 N 
HETATM    9  C   UNK N   1      24.443  16.623   5.121  0.00  0.00     0.261 C 
HETATM   10  O   UNK N   1      23.369  16.051   5.000  0.00  0.00    -0.270 OA
HETATM   11  C   UNK N   1      25.586  15.772   5.543  0.00  0.00     0.272 C 
HETATM   12  C   UNK N   1      26.840  16.135   4.899  0.00  0.00     0.257 C 
HETATM   13  O   UNK N   1      27.459  15.264   4.303  0.00  0.00    -0.270 OA
ENDROOT
BRANCH  11  14
HETATM   14  N   UNK N   1      25.366  14.327   5.503  0.00  0.00    -0.321 N 
HETATM   15  C   UNK N   1      24.753  13.641   6.497  0.00  0.00     0.321 C 
HETATM   16  O   UNK N   1      24.597  12.430   6.372  0.00  0.00    -0.247 OA
HETATM   17  N   UNK N   1      24.435  14.266   7.661  0.00  0.00    -0.309 N 
HETATM   18  H   UNK N   1      24.472  15.250   7.664  0.00  0.00     0.170 HD
HETATM   19  H   UNK N   1      25.679  13.828   4.714  0.00  0.00     0.165 HD
BRANCH  17  20
HETATM   20  C   UNK N   1      24.056  13.636   8.867  0.00  0.00     0.037 A 
HETATM   21  C   UNK N   1      25.040  12.980   9.610  0.00  0.00     0.029 A 
HETATM   22  C   UNK N   1      24.690  12.199  10.712  0.00  0.00     0.003 A 
HETATM   23  C   UNK N   1      23.347  12.070  11.074  0.00  0.00     0.018 A 
HETATM   24  C   UNK N   1      22.353  12.744  10.348  0.00  0.00     0.039 A 
HETATM   25  C   UNK N   1      22.712  13.516   9.243  0.00  0.00     0.048 A 
BRANCH  24  26
HETATM   26  C   UNK N   1      20.934  12.627  10.721  0.00  0.00     0.176 C 
HETATM   27  O   UNK N   1      20.075  13.191  10.062  0.00  0.00    -0.646 OA
BRANCH  26  28
HETATM   28  O   UNK N   1      20.575  11.894  11.793  0.00  0.00    -0.773 OA
HETATM   29  H   UNK N   1      19.835  12.128  12.320  0.00  0.00     0.167 HD
ENDBRANCH  26  28
ENDBRANCH  24  26
ENDBRANCH  17  20
ENDBRANCH  11  14
BRANCH   8  30
HETATM   30  C   UNK N   1      23.306  18.636   4.373  0.00  0.00     0.042 A 
HETATM   31  C   UNK N   1      22.020  18.447   4.920  0.00  0.00     0.030 A 
HETATM   32  C   UNK N   1      20.896  19.089   4.393  0.00  0.00     0.002 A 
HETATM   33  C   UNK N   1      21.028  19.944   3.301  0.00  0.00     0.000 A 
HETATM   34  C   UNK N   1      22.281  20.155   2.734  0.00  0.00     0.002 A 
HETATM   35  C   UNK N   1      23.399  19.514   3.265  0.00  0.00     0.030 A 
ENDBRANCH   8  30
BRANCH   1  36
HETATM   36  C   UNK N   1      28.189  16.468   6.775  0.00  0.00     0.235 C 
BRANCH  36  37
HETATM   37  C   UNK N   1      29.679  16.627   6.860  0.00  0.00     0.243 C 
HETATM   38  N   UNK N   1      30.253  17.084   8.018  0.00  0.00    -0.313 N 
HETATM   39  O   UNK N   1      30.372  16.266   5.917  0.00  0.00    -0.271 OA
BRANCH  38  40
HETATM   40  C   UNK N   1      29.452  17.701   9.078  0.00  0.00     0.085 C 
HETATM   41  C   UNK N   1      29.178  16.786  10.275  0.00  0.00     0.032 C 
HETATM   42  C   UNK N   1      29.862  19.106   9.455  0.00  0.00     0.032 C 
ENDBRANCH  38  40
BRANCH  38  43
HETATM   43  C   UNK N   1      31.622  16.775   8.287  0.00  0.00     0.037 A 
HETATM   44  C   UNK N   1      32.582  17.784   8.110  0.00  0.00     0.030 A 
HETATM   45  C   UNK N   1      33.888  17.610   8.564  0.00  0.00     0.002 A 
HETATM   46  C   UNK N   1      34.257  16.415   9.181  0.00  0.00     0.000 A 
HETATM   47  C   UNK N   1      33.320  15.392   9.343  0.00  0.00     0.002 A 
HETATM   48  C   UNK N   1      32.001  15.581   8.924  0.00  0.00     0.030 A 
ENDBRANCH  38  43
ENDBRANCH  36  37
ENDBRANCH   1  36
TORSDOF 9
ENDMDL
MODEL 2
REMARK VINA RESULT:      -9.3      1.580      1.918
REMARK  9 active torsions:
REMARK  status: ('A' for Active; 'I' for Inactive)
REMARK    1  A    between atoms: C_2  and  N_4 
REMARK    2  A    between atoms: N_4  and  C_5 
REMARK       I    between atoms: N_4  and  C_11 
REMARK    3  A    between atoms: C_11  and  C_13 
REMARK    4  A    between atoms: C_13  and  N_14 
REMARK    5  A    between atoms: N_21  and  C_40 
REMARK    6  A    between atoms: C_24  and  N_27 
REMARK       I    between atoms: N_27  and  C_28 
REMARK       I    between atoms: C_28  and  N_30 
REMARK    7  A    between atoms: N_30  and  C_31 
REMARK    8  A    between atoms: C_35  and  C_37 
REMARK    9  A    between atoms: C_37  and  O_39 
ROOT
HETATM    1  N   UNK N   1      26.501  16.207   4.200  0.00  0.00    -0.305 N 
HETATM    2  C   UNK N   1      26.029  17.552   4.050  0.00  0.00     0.065 A 
HETATM    3  C   UNK N   1      27.036  18.537   3.920  0.00  0.00     0.032 A 
HETATM    4  C   UNK N   1      26.754  19.875   3.709  0.00  0.00     0.002 A 
HETATM    5  C   UNK N   1      25.443  20.277   3.590  0.00  0.00     0.002 A 
HETATM    6  C   UNK N   1      24.427  19.337   3.674  0.00  0.00     0.032 A 
HETATM    7  C   UNK N   1      24.627  17.954   3.900  0.00  0.00     0.069 A 
HETATM    8  N   UNK N   1      23.413  17.091   3.965  0.00  0.00    -0.278 N 
HETATM    9  C   UNK N   1      23.405  15.759   4.383  0.00  0.00     0.261 C 
HETATM   10  O   UNK N   1      22.339  15.186   4.558  0.00  0.00    -0.270 OA
HETATM   11  C   UNK N   1      24.623  14.973   4.710  0.00  0.00     0.272 C 
HETATM   12  C   UNK N   1      25.727  15.217   3.793  0.00  0.00     0.257 C 
HETATM   13  O   UNK N   1      26.240  14.256   3.235  0.00  0.00    -0.270 OA
ENDROOT
BRANCH  11  14
HETATM   14  N   UNK N   1      24.428  13.543   4.940  0.00  0.00    -0.321 N 
HETATM   15  C   UNK N   1      23.966  13.034   6.106  0.00  0.00     0.321 C 
HETATM   16  O   UNK N   1      23.818  11.819   6.205  0.00  0.00    -0.247 OA
HETATM   17  N   UNK N   1      23.794  13.844   7.183  0.00  0.00    -0.309 N 
HETATM   18  H   UNK N   1      23.812  14.815   7.018  0.00  0.00     0.170 HD
HETATM   19  H   UNK N   1      24.643  12.918   4.209  0.00  0.00     0.165 HD
BRANCH  17  20
HETATM   20  C   UNK N   1      23.590  13.425   8.517  0.00  0.00     0.037 A 
HETATM   21  C   UNK N   1      24.689  12.955   9.239  0.00  0.00     0.029 A 
HETATM   22  C   UNK N   1      24.513  12.370  10.492  0.00  0.00     0.003 A 
HETATM   23  C   UNK N   1      23.229  12.251  11.030  0.00  0.00     0.018 A 
HETATM   24  C   UNK N   1      22.121  12.741  10.323  0.00  0.00     0.039 A 
HETATM   25  C   UNK N   1      22.306  13.317   9.065  0.00  0.00     0.048 A 
BRANCH  24  26
HETATM   26  C   UNK N   1      20.761  12.632  10.877  0.00  0.00     0.176 C 
HETATM   27  O   UNK N   1      20.562  12.005  11.904  0.00  0.00    -0.646 OA
BRANCH  26  28
HETATM   28  O   UNK N   1      19.727  13.229  10.251  0.00  0.00    -0.773 OA
HETATM   29  H   UNK N   1      19.003  13.582  10.731  0.00  0.00     0.167 HD
ENDBRANCH  26  28
ENDBRANCH  24  26
ENDBRANCH  17  20
ENDBRANCH  11  14
BRANCH   8  30
HETATM   30  C   UNK N   1      22.109  17.641   3.556  0.00  0.00     0.042 A 
HETATM   31  C   UNK N   1      21.539  18.789   4.145  0.00  0.00     0.030 A 
HETATM   32  C   UNK N   1      20.316  19.306   3.711  0.00  0.00     0.002 A 
HETATM   33  C   UNK N   1      19.626  18.690   2.669  0.00  0.00     0.000 A 
HETATM   34  C   UNK N   1      20.157  17.555   2.063  0.00  0.00     0.002 A 
HETATM   35  C   UNK N   1      21.379  17.044   2.499  0.00  0.00     0.030 A 
ENDBRANCH   8  30
BRANCH   1  36
HETATM   36  C   UNK N   1      27.397  15.827   5.306  0.00  0.00     0.235 C 
BRANCH  36  37
HETATM   37  C   UNK N   1      28.871  16.024   5.099  0.00  0.00     0.243 C 
HETATM   38  N   UNK N   1      29.628  16.604   6.084  0.00  0.00    -0.313 N 
HETATM   39  O   UNK N   1      29.394  15.586   4.082  0.00  0.00    -0.271 OA
BRANCH  38  40
HETATM   40  C   UNK N   1      29.010  17.307   7.211  0.00  0.00     0.085 C 
HETATM   41  C   UNK N   1      29.770  17.170   8.533  0.00  0.00     0.032 C 
HETATM   42  C   UNK N   1      28.541  18.712   6.911  0.00  0.00     0.032 C 
ENDBRANCH  38  40
BRANCH  38  43
HETATM   43  C   UNK N   1      31.034  16.351   6.123  0.00  0.00     0.037 A 
HETATM   44  C   UNK N   1      31.909  17.387   5.762  0.00  0.00     0.030 A 
HETATM   45  C   UNK N   1      33.279  17.272   5.991  0.00  0.00     0.002 A 
HETATM   46  C   UNK N   1      33.794  16.109   6.563  0.00  0.00     0.000 A 
HETATM   47  C   UNK N   1      32.938  15.060   6.907  0.00  0.00     0.002 A 
HETATM   48  C   UNK N   1      31.562  15.191   6.714  0.00  0.00     0.030 A 
ENDBRANCH  38  43
ENDBRANCH  36  37
ENDBRANCH   1  36
TORSDOF 9
ENDMDL
MODEL 3
REMARK VINA RESULT:      -9.2      5.045     10.079
REMARK  9 active torsions:
REMARK  status: ('A' for Active; 'I' for Inactive)
REMARK    1  A    between atoms: C_2  and  N_4 
REMARK    2  A    between atoms: N_4  and  C_5 
REMARK       I    between atoms: N_4  and  C_11 
REMARK    3  A    between atoms: C_11  and  C_13 
REMARK    4  A    between atoms: C_13  and  N_14 
REMARK    5  A    between atoms: N_21  and  C_40 
REMARK    6  A    between atoms: C_24  and  N_27 
REMARK       I    between atoms: N_27  and  C_28 
REMARK       I    between atoms: C_28  and  N_30 
REMARK    7  A    between atoms: N_30  and  C_31 
REMARK    8  A    between atoms: C_35  and  C_37 
REMARK    9  A    between atoms: C_37  and  O_39 
ROOT
HETATM    1  N   UNK N   1      24.204  13.930   5.179  0.00  0.00    -0.305 N 
HETATM    2  C   UNK N   1      24.055  12.623   5.749  0.00  0.00     0.065 A 
HETATM    3  C   UNK N   1      24.660  11.571   5.020  0.00  0.00     0.032 A 
HETATM    4  C   UNK N   1      24.663  10.260   5.458  0.00  0.00     0.002 A 
HETATM    5  C   UNK N   1      24.079   9.951   6.666  0.00  0.00     0.002 A 
HETATM    6  C   UNK N   1      23.508  10.959   7.429  0.00  0.00     0.032 A 
HETATM    7  C   UNK N   1      23.452  12.321   7.050  0.00  0.00     0.069 A 
HETATM    8  N   UNK N   1      22.794  13.265   7.997  0.00  0.00    -0.278 N 
HETATM    9  C   UNK N   1      22.465  14.590   7.701  0.00  0.00     0.261 C 
HETATM   10  O   UNK N   1      21.781  15.233   8.484  0.00  0.00    -0.270 OA
HETATM   11  C   UNK N   1      22.831  15.285   6.440  0.00  0.00     0.272 C 
HETATM   12  C   UNK N   1      24.179  14.976   5.985  0.00  0.00     0.257 C 
HETATM   13  O   UNK N   1      24.946  15.906   5.770  0.00  0.00    -0.270 OA
ENDROOT
BRANCH  11  14
HETATM   14  N   UNK N   1      22.570  16.723   6.394  0.00  0.00    -0.321 N 
HETATM   15  C   UNK N   1      21.827  17.312   5.428  0.00  0.00     0.321 C 
HETATM   16  O   UNK N   1      21.647  18.526   5.477  0.00  0.00    -0.247 OA
HETATM   17  N   UNK N   1      21.400  16.590   4.359  0.00  0.00    -0.309 N 
HETATM   18  H   UNK N   1      21.469  15.610   4.427  0.00  0.00     0.170 HD
HETATM   19  H   UNK N   1      22.954  17.291   7.101  0.00  0.00     0.165 HD
BRANCH  17  20
HETATM   20  C   UNK N   1      20.867  17.113   3.160  0.00  0.00     0.037 A 
HETATM   21  C   UNK N   1      20.286  16.225   2.251  0.00  0.00     0.029 A 
HETATM   22  C   UNK N   1      19.903  16.662   0.983  0.00  0.00     0.003 A 
HETATM   23  C   UNK N   1      20.102  17.996   0.619  0.00  0.00     0.018 A 
HETATM   24  C   UNK N   1      20.662  18.901   1.533  0.00  0.00     0.039 A 
HETATM   25  C   UNK N   1      21.050  18.452   2.796  0.00  0.00     0.048 A 
BRANCH  24  26
HETATM   26  C   UNK N   1      20.871  20.312   1.169  0.00  0.00     0.176 C 
HETATM   27  O   UNK N   1      21.272  21.110   2.001  0.00  0.00    -0.646 OA
BRANCH  26  28
HETATM   28  O   UNK N   1      20.622  20.730  -0.088  0.00  0.00    -0.773 OA
HETATM   29  H   UNK N   1      21.308  21.053  -0.640  0.00  0.00     0.167 HD
ENDBRANCH  26  28
ENDBRANCH  24  26
ENDBRANCH  17  20
ENDBRANCH  11  14
BRANCH   8  30
HETATM   30  C   UNK N   1      22.459  12.813   9.359  0.00  0.00     0.042 A 
HETATM   31  C   UNK N   1      23.436  12.494  10.326  0.00  0.00     0.030 A 
HETATM   32  C   UNK N   1      23.087  12.102  11.620  0.00  0.00     0.002 A 
HETATM   33  C   UNK N   1      21.745  12.020  11.988  0.00  0.00     0.000 A 
HETATM   34  C   UNK N   1      20.753  12.326  11.061  0.00  0.00     0.002 A 
HETATM   35  C   UNK N   1      21.107  12.719   9.771  0.00  0.00     0.030 A 
ENDBRANCH   8  30
BRANCH   1  36
HETATM   36  C   UNK N   1      23.727  14.232   3.818  0.00  0.00     0.235 C 
BRANCH  36  37
HETATM   37  C   UNK N   1      22.554  13.448   3.307  0.00  0.00     0.243 C 
HETATM   38  N   UNK N   1      22.700  12.636   2.212  0.00  0.00    -0.313 N 
HETATM   39  O   UNK N   1      21.499  13.482   3.927  0.00  0.00    -0.271 OA
BRANCH  38  40
HETATM   40  C   UNK N   1      23.877  12.725   1.344  0.00  0.00     0.085 C 
HETATM   41  C   UNK N   1      24.638  11.407   1.178  0.00  0.00     0.032 C 
HETATM   42  C   UNK N   1      23.665  13.483   0.054  0.00  0.00     0.032 C 
ENDBRANCH  38  40
BRANCH  38  43
HETATM   43  C   UNK N   1      21.792  11.549   2.025  0.00  0.00     0.037 A 
HETATM   44  C   UNK N   1      20.917  11.591   0.928  0.00  0.00     0.030 A 
HETATM   45  C   UNK N   1      20.171  10.469   0.571  0.00  0.00     0.002 A 
HETATM   46  C   UNK N   1      20.273   9.297   1.320  0.00  0.00     0.000 A 
HETATM   47  C   UNK N   1      21.122   9.247   2.429  0.00  0.00     0.002 A 
HETATM   48  C   UNK N   1      21.899  10.357   2.763  0.00  0.00     0.030 A 
ENDBRANCH  38  43
ENDBRANCH  36  37
ENDBRANCH   1  36
TORSDOF 9
ENDMDL
MODEL 4
REMARK VINA RESULT:      -8.8      7.292     13.085
REMARK  9 active torsions:
REMARK  status: ('A' for Active; 'I' for Inactive)
REMARK    1  A    between atoms: C_2  and  N_4 
REMARK    2  A    between atoms: N_4  and  C_5 
REMARK       I    between atoms: N_4  and  C_11 
REMARK    3  A    between atoms: C_11  and  C_13 
REMARK    4  A    between atoms: C_13  and  N_14 
REMARK    5  A    between atoms: N_21  and  C_40 
REMARK    6  A    between atoms: C_24  and  N_27 
REMARK       I    between atoms: N_27  and  C_28 
REMARK       I    between atoms: C_28  and  N_30 
REMARK    7  A    between atoms: N_30  and  C_31 
REMARK    8  A    between atoms: C_35  and  C_37 
REMARK    9  A    between atoms: C_37  and  O_39 
ROOT
HETATM    1  N   UNK N   1      37.626  12.187   9.727  0.00  0.00    -0.305 N 
HETATM    2  C   UNK N   1      37.264  10.911  10.271  0.00  0.00     0.065 A 
HETATM    3  C   UNK N   1      37.638   9.792   9.491  0.00  0.00     0.032 A 
HETATM    4  C   UNK N   1      37.418   8.488   9.898  0.00  0.00     0.002 A 
HETATM    5  C   UNK N   1      36.835   8.252  11.122  0.00  0.00     0.002 A 
HETATM    6  C   UNK N   1      36.487   9.322  11.933  0.00  0.00     0.032 A 
HETATM    7  C   UNK N   1      36.666  10.683  11.589  0.00  0.00     0.069 A 
HETATM    8  N   UNK N   1      36.228  11.701  12.587  0.00  0.00    -0.278 N 
HETATM    9  C   UNK N   1      36.134  13.072  12.337  0.00  0.00     0.261 C 
HETATM   10  O   UNK N   1      35.609  13.803  13.164  0.00  0.00    -0.270 OA
HETATM   11  C   UNK N   1      36.572  13.729  11.077  0.00  0.00     0.272 C 
HETATM   12  C   UNK N   1      37.823  13.195  10.558  0.00  0.00     0.257 C 
HETATM   13  O   UNK N   1      38.738  13.977  10.332  0.00  0.00    -0.270 OA
ENDROOT
BRANCH  11  14
HETATM   14  N   UNK N   1      36.576  15.190  11.077  0.00  0.00    -0.321 N 
HETATM   15  C   UNK N   1      35.679  15.935  10.390  0.00  0.00     0.321 C 
HETATM   16  O   UNK N   1      35.747  17.159  10.460  0.00  0.00    -0.247 OA
HETATM   17  N   UNK N   1      34.803  15.337   9.541  0.00  0.00    -0.309 N 
HETATM   18  H   UNK N   1      34.711  14.359   9.611  0.00  0.00     0.170 HD
HETATM   19  H   UNK N   1      37.266  15.656  11.604  0.00  0.00     0.165 HD
BRANCH  17  20
HETATM   20  C   UNK N   1      34.012  15.986   8.567  0.00  0.00     0.037 A 
HETATM   21  C   UNK N   1      34.596  16.291   7.335  0.00  0.00     0.029 A 
HETATM   22  C   UNK N   1      33.916  17.082   6.409  0.00  0.00     0.003 A 
HETATM   23  C   UNK N   1      32.644  17.572   6.713  0.00  0.00     0.018 A 
HETATM   24  C   UNK N   1      32.039  17.250   7.937  0.00  0.00     0.039 A 
HETATM   25  C   UNK N   1      32.731  16.466   8.862  0.00  0.00     0.048 A 
BRANCH  24  26
HETATM   26  C   UNK N   1      30.696  17.750   8.272  0.00  0.00     0.176 C 
HETATM   27  O   UNK N   1      29.767  17.589   7.497  0.00  0.00    -0.646 OA
BRANCH  26  28
HETATM   28  O   UNK N   1      30.484  18.388   9.441  0.00  0.00    -0.773 OA
HETATM   29  H   UNK N   1      31.197  18.647   9.992  0.00  0.00     0.167 HD
ENDBRANCH  26  28
ENDBRANCH  24  26
ENDBRANCH  17  20
ENDBRANCH  11  14
BRANCH   8  30
HETATM   30  C   UNK N   1      35.868  11.274  13.951  0.00  0.00     0.042 A 
HETATM   31  C   UNK N   1      34.571  10.851  14.307  0.00  0.00     0.030 A 
HETATM   32  C   UNK N   1      34.270  10.418  15.601  0.00  0.00     0.002 A 
HETATM   33  C   UNK N   1      35.263  10.394  16.579  0.00  0.00     0.000 A 
HETATM   34  C   UNK N   1      36.554  10.805  16.264  0.00  0.00     0.002 A 
HETATM   35  C   UNK N   1      36.850  11.233  14.971  0.00  0.00     0.030 A 
ENDBRANCH   8  30
BRANCH   1  36
HETATM   36  C   UNK N   1      37.161  12.614   8.396  0.00  0.00     0.235 C 
BRANCH  36  37
HETATM   37  C   UNK N   1      35.811  12.134   7.949  0.00  0.00     0.243 C 
HETATM   38  N   UNK N   1      35.711  11.231   6.922  0.00  0.00    -0.313 N 
HETATM   39  O   UNK N   1      34.816  12.494   8.566  0.00  0.00    -0.271 OA
BRANCH  38  40
HETATM   40  C   UNK N   1      36.850  10.938   6.048  0.00  0.00     0.085 C 
HETATM   41  C   UNK N   1      37.107   9.445   5.829  0.00  0.00     0.032 C 
HETATM   42  C   UNK N   1      36.920  11.768   4.786  0.00  0.00     0.032 C 
ENDBRANCH  38  40
BRANCH  38  43
HETATM   43  C   UNK N   1      34.543  10.414   6.822  0.00  0.00     0.037 A 
HETATM   44  C   UNK N   1      34.302   9.467   7.829  0.00  0.00     0.030 A 
HETATM   45  C   UNK N   1      33.079   8.802   7.902  0.00  0.00     0.002 A 
HETATM   46  C   UNK N   1      32.089   9.060   6.954  0.00  0.00     0.000 A 
HETATM   47  C   UNK N   1      32.323   9.983   5.932  0.00  0.00     0.002 A 
HETATM   48  C   UNK N   1      33.532  10.678   5.881  0.00  0.00     0.030 A 
ENDBRANCH  38  43
ENDBRANCH  36  37
ENDBRANCH   1  36
TORSDOF 9
ENDMDL
MODEL 5
REMARK VINA RESULT:      -8.7      7.756     12.843
REMARK  9 active torsions:
REMARK  status: ('A' for Active; 'I' for Inactive)
REMARK    1  A    between atoms: C_2  and  N_4 
REMARK    2  A    between atoms: N_4  and  C_5 
REMARK       I    between atoms: N_4  and  C_11 
REMARK    3  A    between atoms: C_11  and  C_13 
REMARK    4  A    between atoms: C_13  and  N_14 
REMARK    5  A    between atoms: N_21  and  C_40 
REMARK    6  A    between atoms: C_24  and  N_27 
REMARK       I    between atoms: N_27  and  C_28 
REMARK       I    between atoms: C_28  and  N_30 
REMARK    7  A    between atoms: N_30  and  C_31 
REMARK    8  A    between atoms: C_35  and  C_37 
REMARK    9  A    between atoms: C_37  and  O_39 
ROOT
HETATM    1  N   UNK N   1      37.351  12.662   9.318  0.00  0.00    -0.305 N 
HETATM    2  C   UNK N   1      37.024  11.368   9.843  0.00  0.00     0.065 A 
HETATM    3  C   UNK N   1      37.474  10.270   9.073  0.00  0.00     0.032 A 
HETATM    4  C   UNK N   1      37.296   8.956   9.464  0.00  0.00     0.002 A 
HETATM    5  C   UNK N   1      36.678   8.688  10.665  0.00  0.00     0.002 A 
HETATM    6  C   UNK N   1      36.254   9.737  11.467  0.00  0.00     0.032 A 
HETATM    7  C   UNK N   1      36.388  11.107  11.137  0.00  0.00     0.069 A 
HETATM    8  N   UNK N   1      35.870  12.099  12.122  0.00  0.00    -0.278 N 
HETATM    9  C   UNK N   1      35.727  13.466  11.875  0.00  0.00     0.261 C 
HETATM   10  O   UNK N   1      35.141  14.169  12.686  0.00  0.00    -0.270 OA
HETATM   11  C   UNK N   1      36.183  14.148  10.636  0.00  0.00     0.272 C 
HETATM   12  C   UNK N   1      37.474  13.672  10.161  0.00  0.00     0.257 C 
HETATM   13  O   UNK N   1      38.362  14.494   9.974  0.00  0.00    -0.270 OA
ENDROOT
BRANCH  11  14
HETATM   14  N   UNK N   1      36.124  15.609  10.643  0.00  0.00    -0.321 N 
HETATM   15  C   UNK N   1      35.169  16.317   9.997  0.00  0.00     0.321 C 
HETATM   16  O   UNK N   1      35.188  17.542  10.069  0.00  0.00    -0.247 OA
HETATM   17  N   UNK N   1      34.285  15.684   9.181  0.00  0.00    -0.309 N 
HETATM   18  H   UNK N   1      34.238  14.703   9.251  0.00  0.00     0.170 HD
HETATM   19  H   UNK N   1      36.815  16.103  11.143  0.00  0.00     0.165 HD
BRANCH  17  20
HETATM   20  C   UNK N   1      33.428  16.301   8.243  0.00  0.00     0.037 A 
HETATM   21  C   UNK N   1      32.183  16.756   8.684  0.00  0.00     0.029 A 
HETATM   22  C   UNK N   1      31.234  17.213   7.769  0.00  0.00     0.003 A 
HETATM   23  C   UNK N   1      31.529  17.214   6.403  0.00  0.00     0.018 A 
HETATM   24  C   UNK N   1      32.785  16.781   5.953  0.00  0.00     0.039 A 
HETATM   25  C   UNK N   1      33.725  16.318   6.875  0.00  0.00     0.048 A 
BRANCH  24  26
HETATM   26  C   UNK N   1      33.117  16.783   4.519  0.00  0.00     0.176 C 
HETATM   27  O   UNK N   1      32.753  17.702   3.803  0.00  0.00    -0.646 OA
BRANCH  26  28
HETATM   28  O   UNK N   1      33.828  15.768   3.989  0.00  0.00    -0.773 OA
HETATM   29  H   UNK N   1      34.578  15.416   4.428  0.00  0.00     0.167 HD
ENDBRANCH  26  28
ENDBRANCH  24  26
ENDBRANCH  17  20
ENDBRANCH  11  14
BRANCH   8  30
HETATM   30  C   UNK N   1      35.479  11.648  13.470  0.00  0.00     0.042 A 
HETATM   31  C   UNK N   1      34.194  11.150  13.771  0.00  0.00     0.030 A 
HETATM   32  C   UNK N   1      33.864  10.698  15.051  0.00  0.00     0.002 A 
HETATM   33  C   UNK N   1      34.815  10.728  16.070  0.00  0.00     0.000 A 
HETATM   34  C   UNK N   1      36.093  11.213  15.810  0.00  0.00     0.002 A 
HETATM   35  C   UNK N   1      36.417  11.662  14.530  0.00  0.00     0.030 A 
ENDBRANCH   8  30
BRANCH   1  36
HETATM   36  C   UNK N   1      36.918  13.076   7.973  0.00  0.00     0.235 C 
BRANCH  36  37
HETATM   37  C   UNK N   1      35.595  12.562   7.484  0.00  0.00     0.243 C 
HETATM   38  N   UNK N   1      35.551  11.663   6.450  0.00  0.00    -0.313 N 
HETATM   39  O   UNK N   1      34.573  12.892   8.073  0.00  0.00    -0.271 OA
BRANCH  38  40
HETATM   40  C   UNK N   1      36.723  11.405   5.609  0.00  0.00     0.085 C 
HETATM   41  C   UNK N   1      37.034   9.921   5.399  0.00  0.00     0.032 C 
HETATM   42  C   UNK N   1      36.803  12.238   4.349  0.00  0.00     0.032 C 
ENDBRANCH  38  40
BRANCH  38  43
HETATM   43  C   UNK N   1      34.410  10.815   6.311  0.00  0.00     0.037 A 
HETATM   44  C   UNK N   1      34.176   9.843   7.297  0.00  0.00     0.030 A 
HETATM   45  C   UNK N   1      32.971   9.143   7.333  0.00  0.00     0.002 A 
HETATM   46  C   UNK N   1      31.994   9.389   6.368  0.00  0.00     0.000 A 
HETATM   47  C   UNK N   1      32.222  10.336   5.367  0.00  0.00     0.002 A 
HETATM   48  C   UNK N   1      33.411  11.066   5.354  0.00  0.00     0.030 A 
ENDBRANCH  38  43
ENDBRANCH  36  37
ENDBRANCH   1  36
TORSDOF 9
ENDMDL
MODEL 6
REMARK VINA RESULT:      -8.6      3.621      8.510
REMARK  9 active torsions:
REMARK  status: ('A' for Active; 'I' for Inactive)
REMARK    1  A    between atoms: C_2  and  N_4 
REMARK    2  A    between atoms: N_4  and  C_5 
REMARK       I    between atoms: N_4  and  C_11 
REMARK    3  A    between atoms: C_11  and  C_13 
REMARK    4  A    between atoms: C_13  and  N_14 
REMARK    5  A    between atoms: N_21  and  C_40 
REMARK    6  A    between atoms: C_24  and  N_27 
REMARK       I    between atoms: N_27  and  C_28 
REMARK       I    between atoms: C_28  and  N_30 
REMARK    7  A    between atoms: N_30  and  C_31 
REMARK    8  A    between atoms: C_35  and  C_37 
REMARK    9  A    between atoms: C_37  and  O_39 
ROOT
HETATM    1  N   UNK N   1      25.573  17.003   5.425  0.00  0.00    -0.305 N 
HETATM    2  C   UNK N   1      26.432  18.128   5.203  0.00  0.00     0.065 A 
HETATM    3  C   UNK N   1      25.800  19.393   5.253  0.00  0.00     0.032 A 
HETATM    4  C   UNK N   1      26.492  20.583   5.119  0.00  0.00     0.002 A 
HETATM    5  C   UNK N   1      27.858  20.554   4.956  0.00  0.00     0.002 A 
HETATM    6  C   UNK N   1      28.521  19.336   4.939  0.00  0.00     0.032 A 
HETATM    7  C   UNK N   1      27.890  18.075   5.057  0.00  0.00     0.069 A 
HETATM    8  N   UNK N   1      28.764  16.868   5.013  0.00  0.00    -0.278 N 
HETATM    9  C   UNK N   1      28.303  15.554   4.905  0.00  0.00     0.261 C 
HETATM   10  O   UNK N   1      29.100  14.648   4.712  0.00  0.00    -0.270 OA
HETATM   11  C   UNK N   1      26.870  15.161   4.939  0.00  0.00     0.272 C 
HETATM   12  C   UNK N   1      26.096  15.898   5.927  0.00  0.00     0.257 C 
HETATM   13  O   UNK N   1      25.454  15.262   6.753  0.00  0.00    -0.270 OA
ENDROOT
BRANCH  11  14
HETATM   14  N   UNK N   1      26.594  13.727   5.008  0.00  0.00    -0.321 N 
HETATM   15  C   UNK N   1      26.184  12.997   3.945  0.00  0.00     0.321 C 
HETATM   16  O   UNK N   1      25.990  11.794   4.091  0.00  0.00    -0.247 OA
HETATM   17  N   UNK N   1      25.870  13.614   2.775  0.00  0.00    -0.309 N 
HETATM   18  H   UNK N   1      26.154  14.552   2.675  0.00  0.00     0.170 HD
HETATM   19  H   UNK N   1      26.714  13.269   5.873  0.00  0.00     0.165 HD
BRANCH  17  20
HETATM   20  C   UNK N   1      25.178  13.035   1.688  0.00  0.00     0.037 A 
HETATM   21  C   UNK N   1      24.229  13.811   1.019  0.00  0.00     0.029 A 
HETATM   22  C   UNK N   1      23.398  13.237   0.057  0.00  0.00     0.003 A 
HETATM   23  C   UNK N   1      23.515  11.876  -0.239  0.00  0.00     0.018 A 
HETATM   24  C   UNK N   1      24.481  11.094   0.410  0.00  0.00     0.039 A 
HETATM   25  C   UNK N   1      25.302  11.676   1.378  0.00  0.00     0.048 A 
BRANCH  24  26
HETATM   26  C   UNK N   1      24.625   9.661   0.105  0.00  0.00     0.176 C 
HETATM   27  O   UNK N   1      25.333   8.950   0.800  0.00  0.00    -0.646 OA
BRANCH  26  28
HETATM   28  O   UNK N   1      23.970   9.125  -0.945  0.00  0.00    -0.773 OA
HETATM   29  H   UNK N   1      23.126   9.439  -1.206  0.00  0.00     0.167 HD
ENDBRANCH  26  28
ENDBRANCH  24  26
ENDBRANCH  17  20
ENDBRANCH  11  14
BRANCH   8  30
HETATM   30  C   UNK N   1      30.226  17.027   5.098  0.00  0.00     0.042 A 
HETATM   31  C   UNK N   1      31.044  17.234   3.968  0.00  0.00     0.030 A 
HETATM   32  C   UNK N   1      32.425  17.416   4.084  0.00  0.00     0.002 A 
HETATM   33  C   UNK N   1      33.028  17.401   5.341  0.00  0.00     0.000 A 
HETATM   34  C   UNK N   1      32.253  17.199   6.478  0.00  0.00     0.002 A 
HETATM   35  C   UNK N   1      30.876  17.020   6.357  0.00  0.00     0.030 A 
ENDBRANCH   8  30
BRANCH   1  36
HETATM   36  C   UNK N   1      24.398  16.754   4.572  0.00  0.00     0.235 C 
BRANCH  36  37
HETATM   37  C   UNK N   1      23.044  16.882   5.207  0.00  0.00     0.243 C 
HETATM   38  N   UNK N   1      22.249  15.774   5.352  0.00  0.00    -0.313 N 
HETATM   39  O   UNK N   1      22.700  17.965   5.664  0.00  0.00    -0.271 OA
BRANCH  38  40
HETATM   40  C   UNK N   1      22.545  14.523   4.650  0.00  0.00     0.085 C 
HETATM   41  C   UNK N   1      22.856  13.341   5.571  0.00  0.00     0.032 C 
HETATM   42  C   UNK N   1      21.605  14.189   3.513  0.00  0.00     0.032 C 
ENDBRANCH  38  40
BRANCH  38  43
HETATM   43  C   UNK N   1      21.233  15.772   6.356  0.00  0.00     0.037 A 
HETATM   44  C   UNK N   1      21.615  15.588   7.694  0.00  0.00     0.030 A 
HETATM   45  C   UNK N   1      20.704  15.796   8.729  0.00  0.00     0.002 A 
HETATM   46  C   UNK N   1      19.392  16.167   8.436  0.00  0.00     0.000 A 
HETATM   47  C   UNK N   1      18.990  16.330   7.109  0.00  0.00     0.002 A 
HETATM   48  C   UNK N   1      19.912  16.161   6.074  0.00  0.00     0.030 A 
ENDBRANCH  38  43
ENDBRANCH  36  37
ENDBRANCH   1  36
TORSDOF 9
ENDMDL
MODEL 7
REMARK VINA RESULT:      -8.5      4.967      7.634
REMARK  9 active torsions:
REMARK  status: ('A' for Active; 'I' for Inactive)
REMARK    1  A    between atoms: C_2  and  N_4 
REMARK    2  A    between atoms: N_4  and  C_5 
REMARK       I    between atoms: N_4  and  C_11 
REMARK    3  A    between atoms: C_11  and  C_13 
REMARK    4  A    between atoms: C_13  and  N_14 
REMARK    5  A    between atoms: N_21  and  C_40 
REMARK    6  A    between atoms: C_24  and  N_27 
REMARK       I    between atoms: N_27  and  C_28 
REMARK       I    between atoms: C_28  and  N_30 
REMARK    7  A    between atoms: N_30  and  C_31 
REMARK    8  A    between atoms: C_35  and  C_37 
REMARK    9  A    between atoms: C_37  and  O_39 
ROOT
HETATM    1  N   UNK N   1      31.722  16.539   7.337  0.00  0.00    -0.305 N 
HETATM    2  C   UNK N   1      30.434  16.945   7.817  0.00  0.00     0.065 A 
HETATM    3  C   UNK N   1      30.280  16.936   9.223  0.00  0.00     0.032 A 
HETATM    4  C   UNK N   1      29.122  17.355   9.854  0.00  0.00     0.002 A 
HETATM    5  C   UNK N   1      28.075  17.828   9.096  0.00  0.00     0.002 A 
HETATM    6  C   UNK N   1      28.199  17.887   7.716  0.00  0.00     0.032 A 
HETATM    7  C   UNK N   1      29.341  17.470   6.992  0.00  0.00     0.069 A 
HETATM    8  N   UNK N   1      29.295  17.604   5.508  0.00  0.00    -0.278 N 
HETATM    9  C   UNK N   1      30.232  17.057   4.629  0.00  0.00     0.261 C 
HETATM   10  O   UNK N   1      30.020  17.082   3.426  0.00  0.00    -0.270 OA
HETATM   11  C   UNK N   1      31.476  16.363   5.053  0.00  0.00     0.272 C 
HETATM   12  C   UNK N   1      32.140  17.009   6.175  0.00  0.00     0.257 C 
HETATM   13  O   UNK N   1      33.318  17.319   6.052  0.00  0.00    -0.270 OA
ENDROOT
BRANCH  11  14
HETATM   14  N   UNK N   1      32.425  16.032   3.992  0.00  0.00    -0.321 N 
HETATM   15  C   UNK N   1      32.275  14.971   3.165  0.00  0.00     0.321 C 
HETATM   16  O   UNK N   1      33.114  14.777   2.290  0.00  0.00    -0.247 OA
HETATM   17  N   UNK N   1      31.282  14.070   3.385  0.00  0.00    -0.309 N 
HETATM   18  H   UNK N   1      30.574  14.332   4.018  0.00  0.00     0.170 HD
HETATM   19  H   UNK N   1      33.214  16.610   3.873  0.00  0.00     0.165 HD
BRANCH  17  20
HETATM   20  C   UNK N   1      31.168  12.793   2.792  0.00  0.00     0.037 A 
HETATM   21  C   UNK N   1      31.912  11.742   3.335  0.00  0.00     0.029 A 
HETATM   22  C   UNK N   1      31.971  10.509   2.685  0.00  0.00     0.003 A 
HETATM   23  C   UNK N   1      31.283  10.324   1.483  0.00  0.00     0.018 A 
HETATM   24  C   UNK N   1      30.515  11.365   0.942  0.00  0.00     0.039 A 
HETATM   25  C   UNK N   1      30.469  12.598   1.595  0.00  0.00     0.048 A 
BRANCH  24  26
HETATM   26  C   UNK N   1      29.777  11.185  -0.319  0.00  0.00     0.176 C 
HETATM   27  O   UNK N   1      28.977  10.271  -0.441  0.00  0.00    -0.646 OA
BRANCH  26  28
HETATM   28  O   UNK N   1      29.979  12.033  -1.347  0.00  0.00    -0.773 OA
HETATM   29  H   UNK N   1      29.267  12.495  -1.747  0.00  0.00     0.167 HD
ENDBRANCH  26  28
ENDBRANCH  24  26
ENDBRANCH  17  20
ENDBRANCH  11  14
BRANCH   8  30
HETATM   30  C   UNK N   1      28.204  18.372   4.882  0.00  0.00     0.042 A 
HETATM   31  C   UNK N   1      28.232  19.776   4.744  0.00  0.00     0.030 A 
HETATM   32  C   UNK N   1      27.198  20.472   4.114  0.00  0.00     0.002 A 
HETATM   33  C   UNK N   1      26.103  19.781   3.599  0.00  0.00     0.000 A 
HETATM   34  C   UNK N   1      26.040  18.396   3.716  0.00  0.00     0.002 A 
HETATM   35  C   UNK N   1      27.076  17.706   4.344  0.00  0.00     0.030 A 
ENDBRANCH   8  30
BRANCH   1  36
HETATM   36  C   UNK N   1      32.281  15.216   7.664  0.00  0.00     0.235 C 
BRANCH  36  37
HETATM   37  C   UNK N   1      33.420  15.170   8.640  0.00  0.00     0.243 C 
HETATM   38  N   UNK N   1      34.088  13.992   8.856  0.00  0.00    -0.313 N 
HETATM   39  O   UNK N   1      33.793  16.209   9.171  0.00  0.00    -0.271 OA
BRANCH  38  40
HETATM   40  C   UNK N   1      33.549  12.711   8.393  0.00  0.00     0.085 C 
HETATM   41  C   UNK N   1      34.047  12.280   7.011  0.00  0.00     0.032 C 
HETATM   42  C   UNK N   1      33.553  11.604   9.424  0.00  0.00     0.032 C 
ENDBRANCH  38  40
BRANCH  38  43
HETATM   43  C   UNK N   1      35.424  14.030   9.362  0.00  0.00     0.037 A 
HETATM   44  C   UNK N   1      35.626  13.805  10.733  0.00  0.00     0.030 A 
HETATM   45  C   UNK N   1      36.910  13.611  11.240  0.00  0.00     0.002 A 
HETATM   46  C   UNK N   1      38.011  13.663  10.385  0.00  0.00     0.000 A 
HETATM   47  C   UNK N   1      37.828  13.910   9.022  0.00  0.00     0.002 A 
HETATM   48  C   UNK N   1      36.539  14.064   8.508  0.00  0.00     0.030 A 
ENDBRANCH  38  43
ENDBRANCH  36  37
ENDBRANCH   1  36
TORSDOF 9
ENDMDL
MODEL 8
REMARK VINA RESULT:      -8.4      7.022     12.266
REMARK  9 active torsions:
REMARK  status: ('A' for Active; 'I' for Inactive)
REMARK    1  A    between atoms: C_2  and  N_4 
REMARK    2  A    between atoms: N_4  and  C_5 
REMARK       I    between atoms: N_4  and  C_11 
REMARK    3  A    between atoms: C_11  and  C_13 
REMARK    4  A    between atoms: C_13  and  N_14 
REMARK    5  A    between atoms: N_21  and  C_40 
REMARK    6  A    between atoms: C_24  and  N_27 
REMARK       I    between atoms: N_27  and  C_28 
REMARK       I    between atoms: C_28  and  N_30 
REMARK    7  A    between atoms: N_30  and  C_31 
REMARK    8  A    between atoms: C_35  and  C_37 
REMARK    9  A    between atoms: C_37  and  O_39 
ROOT
HETATM    1  N   UNK N   1      35.548  12.373   8.882  0.00  0.00    -0.305 N 
HETATM    2  C   UNK N   1      35.300  11.146   9.581  0.00  0.00     0.065 A 
HETATM    3  C   UNK N   1      35.268   9.985   8.773  0.00  0.00     0.032 A 
HETATM    4  C   UNK N   1      35.100   8.714   9.293  0.00  0.00     0.002 A 
HETATM    5  C   UNK N   1      34.984   8.553  10.656  0.00  0.00     0.002 A 
HETATM    6  C   UNK N   1      35.047   9.663  11.485  0.00  0.00     0.032 A 
HETATM    7  C   UNK N   1      35.205  10.995  11.036  0.00  0.00     0.069 A 
HETATM    8  N   UNK N   1      35.249  12.064  12.074  0.00  0.00    -0.278 N 
HETATM    9  C   UNK N   1      35.190  13.434  11.809  0.00  0.00     0.261 C 
HETATM   10  O   UNK N   1      35.066  14.224  12.734  0.00  0.00    -0.270 OA
HETATM   11  C   UNK N   1      35.195  14.028  10.447  0.00  0.00     0.272 C 
HETATM   12  C   UNK N   1      36.120  13.368   9.537  0.00  0.00     0.257 C 
HETATM   13  O   UNK N   1      36.954  14.054   8.960  0.00  0.00    -0.270 OA
ENDROOT
BRANCH  11  14
HETATM   14  N   UNK N   1      35.324  15.482  10.376  0.00  0.00    -0.321 N 
HETATM   15  C   UNK N   1      34.391  16.284   9.810  0.00  0.00     0.321 C 
HETATM   16  O   UNK N   1      34.576  17.497   9.808  0.00  0.00    -0.247 OA
HETATM   17  N   UNK N   1      33.338  15.741   9.145  0.00  0.00    -0.309 N 
HETATM   18  H   UNK N   1      33.175  14.778   9.277  0.00  0.00     0.170 HD
HETATM   19  H   UNK N   1      36.130  15.899  10.759  0.00  0.00     0.165 HD
BRANCH  17  20
HETATM   20  C   UNK N   1      32.453  16.428   8.284  0.00  0.00     0.037 A 
HETATM   21  C   UNK N   1      31.172  16.728   8.754  0.00  0.00     0.029 A 
HETATM   22  C   UNK N   1      30.207  17.246   7.890  0.00  0.00     0.003 A 
HETATM   23  C   UNK N   1      30.522  17.465   6.547  0.00  0.00     0.018 A 
HETATM   24  C   UNK N   1      31.813  17.189   6.071  0.00  0.00     0.039 A 
HETATM   25  C   UNK N   1      32.769  16.663   6.941  0.00  0.00     0.048 A 
BRANCH  24  26
HETATM   26  C   UNK N   1      32.166  17.421   4.661  0.00  0.00     0.176 C 
HETATM   27  O   UNK N   1      33.282  17.148   4.251  0.00  0.00    -0.646 OA
BRANCH  26  28
HETATM   28  O   UNK N   1      31.253  17.937   3.813  0.00  0.00    -0.773 OA
HETATM   29  H   UNK N   1      31.278  18.839   3.558  0.00  0.00     0.167 HD
ENDBRANCH  26  28
ENDBRANCH  24  26
ENDBRANCH  17  20
ENDBRANCH  11  14
BRANCH   8  30
HETATM   30  C   UNK N   1      35.375  11.692  13.494  0.00  0.00     0.042 A 
HETATM   31  C   UNK N   1      36.614  11.625  14.165  0.00  0.00     0.030 A 
HETATM   32  C   UNK N   1      36.698  11.304  15.522  0.00  0.00     0.002 A 
HETATM   33  C   UNK N   1      35.539  11.043  16.251  0.00  0.00     0.000 A 
HETATM   34  C   UNK N   1      34.298  11.099  15.623  0.00  0.00     0.002 A 
HETATM   35  C   UNK N   1      34.220  11.422  14.269  0.00  0.00     0.030 A 
ENDBRANCH   8  30
BRANCH   1  36
HETATM   36  C   UNK N   1      34.669  12.825   7.790  0.00  0.00     0.235 C 
BRANCH  36  37
HETATM   37  C   UNK N   1      35.127  12.568   6.384  0.00  0.00     0.243 C 
HETATM   38  N   UNK N   1      34.206  12.444   5.377  0.00  0.00    -0.313 N 
HETATM   39  O   UNK N   1      36.328  12.556   6.141  0.00  0.00    -0.271 OA
BRANCH  38  40
HETATM   40  C   UNK N   1      32.780  12.260   5.662  0.00  0.00     0.085 C 
HETATM   41  C   UNK N   1      31.900  13.447   5.265  0.00  0.00     0.032 C 
HETATM   42  C   UNK N   1      32.217  10.914   5.267  0.00  0.00     0.032 C 
ENDBRANCH  38  40
BRANCH  38  43
HETATM   43  C   UNK N   1      34.607  12.697   4.029  0.00  0.00     0.037 A 
HETATM   44  C   UNK N   1      34.838  11.601   3.183  0.00  0.00     0.030 A 
HETATM   45  C   UNK N   1      35.014  11.785   1.813  0.00  0.00     0.002 A 
HETATM   46  C   UNK N   1      34.983  13.071   1.274  0.00  0.00     0.000 A 
HETATM   47  C   UNK N   1      34.777  14.174   2.105  0.00  0.00     0.002 A 
HETATM   48  C   UNK N   1      34.561  13.987   3.472  0.00  0.00     0.030 A 
ENDBRANCH  38  43
ENDBRANCH  36  37
ENDBRANCH   1  36
TORSDOF 9
ENDMDL
MODEL 9
REMARK VINA RESULT:      -8.4      5.142      8.825
REMARK  9 active torsions:
REMARK  status: ('A' for Active; 'I' for Inactive)
REMARK    1  A    between atoms: C_2  and  N_4 
REMARK    2  A    between atoms: N_4  and  C_5 
REMARK       I    between atoms: N_4  and  C_11 
REMARK    3  A    between atoms: C_11  and  C_13 
REMARK    4  A    between atoms: C_13  and  N_14 
REMARK    5  A    between atoms: N_21  and  C_40 
REMARK    6  A    between atoms: C_24  and  N_27 
REMARK       I    between atoms: N_27  and  C_28 
REMARK       I    between atoms: C_28  and  N_30 
REMARK    7  A    between atoms: N_30  and  C_31 
REMARK    8  A    between atoms: C_35  and  C_37 
REMARK    9  A    between atoms: C_37  and  O_39 
ROOT
HETATM    1  N   UNK N   1      32.345  16.665   6.560  0.00  0.00    -0.305 N 
HETATM    2  C   UNK N   1      31.082  16.884   7.202  0.00  0.00     0.065 A 
HETATM    3  C   UNK N   1      31.096  16.794   8.614  0.00  0.00     0.032 A 
HETATM    4  C   UNK N   1      29.978  17.035   9.392  0.00  0.00     0.002 A 
HETATM    5  C   UNK N   1      28.801  17.406   8.783  0.00  0.00     0.002 A 
HETATM    6  C   UNK N   1      28.755  17.542   7.404  0.00  0.00     0.032 A 
HETATM    7  C   UNK N   1      29.846  17.304   6.535  0.00  0.00     0.069 A 
HETATM    8  N   UNK N   1      29.611  17.497   5.076  0.00  0.00    -0.278 N 
HETATM    9  C   UNK N   1      30.498  17.111   4.068  0.00  0.00     0.261 C 
HETATM   10  O   UNK N   1      30.144  17.162   2.899  0.00  0.00    -0.270 OA
HETATM   11  C   UNK N   1      31.857  16.561   4.310  0.00  0.00     0.272 C 
HETATM   12  C   UNK N   1      32.565  17.235   5.388  0.00  0.00     0.257 C 
HETATM   13  O   UNK N   1      33.675  17.696   5.154  0.00  0.00    -0.270 OA
ENDROOT
BRANCH  11  14
HETATM   14  N   UNK N   1      32.708  16.399   3.133  0.00  0.00    -0.321 N 
HETATM   15  C   UNK N   1      33.430  15.281   2.887  0.00  0.00     0.321 C 
HETATM   16  O   UNK N   1      34.107  15.225   1.864  0.00  0.00    -0.247 OA
HETATM   17  N   UNK N   1      33.502  14.295   3.820  0.00  0.00    -0.309 N 
HETATM   18  H   UNK N   1      32.854  14.335   4.561  0.00  0.00     0.170 HD
HETATM   19  H   UNK N   1      32.758  17.140   2.487  0.00  0.00     0.165 HD
BRANCH  17  20
HETATM   20  C   UNK N   1      34.417  13.219   3.827  0.00  0.00     0.037 A 
HETATM   21  C   UNK N   1      33.926  11.932   3.593  0.00  0.00     0.029 A 
HETATM   22  C   UNK N   1      34.753  10.821   3.760  0.00  0.00     0.003 A 
HETATM   23  C   UNK N   1      36.079  10.995   4.165  0.00  0.00     0.018 A 
HETATM   24  C   UNK N   1      36.587  12.285   4.379  0.00  0.00     0.039 A 
HETATM   25  C   UNK N   1      35.750  13.390   4.218  0.00  0.00     0.048 A 
BRANCH  24  26
HETATM   26  C   UNK N   1      37.983  12.488   4.797  0.00  0.00     0.176 C 
HETATM   27  O   UNK N   1      38.612  11.578   5.312  0.00  0.00    -0.646 OA
BRANCH  26  28
HETATM   28  O   UNK N   1      38.577  13.684   4.612  0.00  0.00    -0.773 OA
HETATM   29  H   UNK N   1      39.407  13.756   4.182  0.00  0.00     0.167 HD
ENDBRANCH  26  28
ENDBRANCH  24  26
ENDBRANCH  17  20
ENDBRANCH  11  14
BRANCH   8  30
HETATM   30  C   UNK N   1      28.370  18.149   4.620  0.00  0.00     0.042 A 
HETATM   31  C   UNK N   1      28.224  19.549   4.534  0.00  0.00     0.030 A 
HETATM   32  C   UNK N   1      27.047  20.137   4.064  0.00  0.00     0.002 A 
HETATM   33  C   UNK N   1      25.978  19.337   3.663  0.00  0.00     0.000 A 
HETATM   34  C   UNK N   1      26.086  17.951   3.734  0.00  0.00     0.002 A 
HETATM   35  C   UNK N   1      27.264  17.370   4.202  0.00  0.00     0.030 A 
ENDBRANCH   8  30
BRANCH   1  36
HETATM   36  C   UNK N   1      33.093  15.410   6.745  0.00  0.00     0.235 C 
BRANCH  36  37
HETATM   37  C   UNK N   1      34.202  15.409   7.756  0.00  0.00     0.243 C 
HETATM   38  N   UNK N   1      34.669  14.222   8.259  0.00  0.00    -0.313 N 
HETATM   39  O   UNK N   1      34.735  16.470   8.057  0.00  0.00    -0.271 OA
BRANCH  38  40
HETATM   40  C   UNK N   1      33.933  12.969   8.071  0.00  0.00     0.085 C 
HETATM   41  C   UNK N   1      34.779  11.817   7.523  0.00  0.00     0.032 C 
HETATM   42  C   UNK N   1      33.028  12.580   9.217  0.00  0.00     0.032 C 
ENDBRANCH  38  40
BRANCH  38  43
HETATM   43  C   UNK N   1      35.989  14.165   8.801  0.00  0.00     0.037 A 
HETATM   44  C   UNK N   1      36.136  14.042  10.191  0.00  0.00     0.030 A 
HETATM   45  C   UNK N   1      37.381  13.761  10.753  0.00  0.00     0.002 A 
HETATM   46  C   UNK N   1      38.499  13.622   9.931  0.00  0.00     0.000 A 
HETATM   47  C   UNK N   1      38.374  13.765   8.548  0.00  0.00     0.002 A 
HETATM   48  C   UNK N   1      37.121  14.007   7.982  0.00  0.00     0.030 A 
ENDBRANCH  38  43
ENDBRANCH  36  37
ENDBRANCH   1  36
TORSDOF 9
ENDMDL
