REMARK  10 active torsions:
REMARK  status: ('A' for Active; 'I' for Inactive)
REMARK    1  A    between atoms: C_3  and  S_33 
REMARK    2  A    between atoms: C_7  and  C_6 
REMARK    3  A    between atoms: C_7  and  C_16 
REMARK    4  A    between atoms: C_9  and  C_10 
REMARK       I    between atoms: C_16  and  N_18 
REMARK    5  A    between atoms: N_18  and  C_19 
REMARK    6  A    between atoms: C_23  and  S_25 
REMARK    7  A    between atoms: S_25  and  C_26 
REMARK    8  A    between atoms: C_26  and  C_27 
REMARK    9  A    between atoms: C_27  and  N_28 
REMARK   10  A    between atoms: S_33  and  C_36 
ROOT
HETATM    1  C   UNK N   1       1.104  -1.106   0.207  0.00  0.00     0.073 A 
HETATM    2  C   UNK N   1       1.296  -2.100   1.367  0.00  0.00     0.031 A 
HETATM    3  C   UNK N   1       0.884  -2.615   0.018  0.00  0.00     0.013 A 
ENDROOT
BRANCH   1   4
HETATM    4  C   UNK N   1      -0.109  -0.218   0.473  0.00  0.00    -0.040 A 
HETATM    5  C   UNK N   1      -0.493   0.727  -0.489  0.00  0.00     0.010 A 
HETATM    6  C   UNK N   1      -1.607   1.546  -0.270  0.00  0.00     0.024 A 
HETATM    7  C   UNK N   1      -2.345   1.424   0.911  0.00  0.00     0.059 A 
HETATM    8  C   UNK N   1      -1.971   0.485   1.873  0.00  0.00     0.024 A 
HETATM    9  C   UNK N   1      -0.862  -0.330   1.658  0.00  0.00     0.010 A 
BRANCH   7  10
HETATM   10  S   UNK N   1      -3.764   2.471   1.199  0.00  0.00     0.179 S 
HETATM   11  O   UNK N   1      -3.590   3.044   2.614  0.00  0.00    -0.222 OA
HETATM   12  O   UNK N   1      -4.970   1.558   1.475  0.00  0.00    -0.222 OA
BRANCH  10  13
HETATM   13  C   UNK N   1      -4.288   3.868   0.152  0.00  0.00     0.113 A 
HETATM   14  C   UNK N   1      -5.739   3.715  -0.262  0.00  0.00     0.022 A 
HETATM   15  C   UNK N   1      -4.637   3.346  -1.228  0.00  0.00     0.022 A 
ENDBRANCH  10  13
ENDBRANCH   7  10
ENDBRANCH   1   4
BRANCH   1  16
HETATM   16  C   UNK N   1       2.445  -0.381   0.008  0.00  0.00     0.237 C 
HETATM   17  O   UNK N   1       2.465   0.826   0.185  0.00  0.00    -0.272 OA
HETATM   18  N   UNK N   1       3.631  -0.995  -0.283  0.00  0.00    -0.306 N 
HETATM   19  H   UNK N   1       4.432  -0.424  -0.247  0.00  0.00     0.171 HD
BRANCH  18  20
HETATM   20  C   UNK N   1       3.848  -2.350  -0.629  0.00  0.00     0.152 A 
HETATM   21  N   UNK N   1       4.789  -3.123  -0.030  0.00  0.00    -0.345 N 
HETATM   22  C   UNK N   1       4.809  -4.406  -0.532  0.00  0.00     0.116 A 
ATOM     23  HN  UNK N   1       5.410  -2.792   0.709  1.00  0.00     0.167 HD
HETATM   24  C   UNK N   1       3.900  -4.628  -1.575  0.00  0.00     0.060 A 
HETATM   25  S   UNK N   1       3.102  -3.207  -1.831  0.00  0.00    -0.046 SA
BRANCH  24  26
HETATM   26  S   UNK N   1       3.535  -6.205  -2.332  0.00  0.00    -0.119 SA
BRANCH  26  27
HETATM   27  C   UNK N   1       1.871  -6.320  -1.572  0.00  0.00     0.110 C 
BRANCH  27  28
HETATM   28  C   UNK N   1       1.863  -6.199  -0.036  0.00  0.00     0.283 C 
BRANCH  28  29
HETATM   29  N   UNK N   1       2.342  -7.376   0.696  0.00  0.00     0.089 N 
HETATM   30  C   UNK N   1       3.796  -7.469   0.624  0.00  0.00     0.272 C 
HETATM   31  C   UNK N   1       4.149  -8.823   0.045  0.00  0.00     0.032 C 
HETATM   32  C   UNK N   1       2.889  -9.637   0.169  0.00  0.00     0.032 C 
HETATM   33  C   UNK N   1       1.783  -8.611   0.160  0.00  0.00     0.272 C 
ENDBRANCH  28  29
ENDBRANCH  27  28
ENDBRANCH  26  27
ENDBRANCH  24  26
ENDBRANCH  18  20
ENDBRANCH   1  16
BRANCH   3  34
HETATM   34  C   UNK N   1      -0.590  -3.009  -0.017  0.00  0.00    -0.009 C 
HETATM   35  C   UNK N   1      -0.792  -4.432   0.511  0.00  0.00     0.005 C 
HETATM   36  C   UNK N   1      -2.181  -5.008   0.192  0.00  0.00     0.000 C 
HETATM   37  C   UNK N   1      -3.168  -3.938  -0.274  0.00  0.00     0.000 C 
HETATM   38  C   UNK N   1      -2.636  -3.198  -1.507  0.00  0.00     0.000 C 
HETATM   39  C   UNK N   1      -1.132  -2.895  -1.441  0.00  0.00     0.005 C 
ENDBRANCH   3  34
TORSDOF 10
