MODEL 1
REMARK VINA RESULT:      -5.8      0.000      0.000
REMARK  10 active torsions:
REMARK  status: ('A' for Active; 'I' for Inactive)
REMARK    1  A    between atoms: C_10  and  C_7 
REMARK    2  A    between atoms: C_17  and  C_9 
REMARK    3  A    between atoms: C_18  and  C_10 
REMARK    4  A    between atoms: C_13  and  C_12 
REMARK    5  A    between atoms: C_17  and  C_12 
REMARK    6  A    between atoms: C_21  and  C_13 
REMARK    7  A    between atoms: C_16  and  C_14 
REMARK    8  A    between atoms: C_18  and  C_14 
REMARK    9  A    between atoms: O_24  and  C_16 
REMARK   10  A    between atoms: O_24  and  C_20 
ROOT
HETATM    1  C   UNK N   1      27.515  22.922  -7.646  0.00  0.00     0.048 C 
HETATM    2  C   UNK N   1      26.534  23.777  -6.923  0.00  0.00    -0.062 C 
ENDROOT
BRANCH   2   3
HETATM    3  C   UNK N   1      26.486  23.672  -5.578  0.00  0.00     0.007 C 
HETATM    4  C   UNK N   1      27.604  24.150  -4.793  0.00  0.00     0.001 C 
BRANCH   4   5
HETATM    5  C   UNK N   1      27.872  24.096  -3.486  0.00  0.00     0.006 C 
BRANCH   5   6
HETATM    6  C   UNK N   1      29.319  23.989  -3.176  0.00  0.00    -0.064 C 
HETATM    7  C   UNK N   1      30.216  24.962  -3.863  0.00  0.00     0.048 C 
BRANCH   6   8
HETATM    8  C   UNK N   1      29.830  23.068  -2.333  0.00  0.00     0.006 C 
BRANCH   8   9
HETATM    9  C   UNK N   1      30.946  22.087  -2.708  0.00  0.00     0.206 C 
BRANCH   9  10
HETATM   10  O   UNK N   1      30.478  21.077  -3.533  0.00  0.00    -0.318 OA
BRANCH  10  11
HETATM   11  C   UNK N   1      30.991  20.727  -4.738  0.00  0.00     0.255 C 
HETATM   12  C   UNK N   1      30.152  20.932  -5.961  0.00  0.00     0.126 C 
HETATM   13  O   UNK N   1      32.099  20.252  -4.837  0.00  0.00    -0.266 OA
ENDBRANCH  10  11
ENDBRANCH   9  10
ENDBRANCH   8   9
ENDBRANCH   6   8
ENDBRANCH   5   6
ENDBRANCH   4   5
ENDBRANCH   2   3
BRANCH   2  14
HETATM   14  C   UNK N   1      25.658  24.672  -7.768  0.00  0.00     0.007 C 
BRANCH  14  15
HETATM   15  C   UNK N   1      25.838  25.964  -8.141  0.00  0.00     0.009 C 
BRANCH  15  16
HETATM   16  C   UNK N   1      26.636  26.963  -7.318  0.00  0.00    -0.048 C 
HETATM   17  C   UNK N   1      26.128  27.461  -6.143  0.00  0.00    -0.077 C 
HETATM   18  C   UNK N   1      24.813  27.038  -5.613  0.00  0.00     0.044 C 
HETATM   19  C   UNK N   1      26.846  28.482  -5.286  0.00  0.00     0.034 C 
HETATM   20  C   UNK N   1      28.235  28.890  -5.746  0.00  0.00     0.005 C 
HETATM   21  C   UNK N   1      28.347  28.817  -7.254  0.00  0.00     0.014 C 
HETATM   22  C   UNK N   1      28.045  27.404  -7.745  0.00  0.00    -0.020 C 
HETATM   23  C   UNK N   1      28.250  27.451  -9.247  0.00  0.00     0.020 C 
HETATM   24  C   UNK N   1      29.052  26.424  -7.158  0.00  0.00     0.020 C 
ENDBRANCH  15  16
ENDBRANCH  14  15
ENDBRANCH   2  14
TORSDOF 10
ENDMDL
MODEL 2
REMARK VINA RESULT:      -5.7      1.613      4.012
REMARK  10 active torsions:
REMARK  status: ('A' for Active; 'I' for Inactive)
REMARK    1  A    between atoms: C_10  and  C_7 
REMARK    2  A    between atoms: C_17  and  C_9 
REMARK    3  A    between atoms: C_18  and  C_10 
REMARK    4  A    between atoms: C_13  and  C_12 
REMARK    5  A    between atoms: C_17  and  C_12 
REMARK    6  A    between atoms: C_21  and  C_13 
REMARK    7  A    between atoms: C_16  and  C_14 
REMARK    8  A    between atoms: C_18  and  C_14 
REMARK    9  A    between atoms: O_24  and  C_16 
REMARK   10  A    between atoms: O_24  and  C_20 
ROOT
HETATM    1  C   UNK N   1      31.601  28.962  -7.089  0.00  0.00     0.048 C 
HETATM    2  C   UNK N   1      30.793  28.465  -5.941  0.00  0.00    -0.062 C 
ENDROOT
BRANCH   2   3
HETATM    3  C   UNK N   1      31.169  27.301  -5.370  0.00  0.00     0.007 C 
HETATM    4  C   UNK N   1      30.550  26.069  -5.807  0.00  0.00     0.001 C 
BRANCH   4   5
HETATM    5  C   UNK N   1      30.650  24.810  -5.373  0.00  0.00     0.006 C 
BRANCH   5   6
HETATM    6  C   UNK N   1      29.490  24.362  -4.565  0.00  0.00    -0.064 C 
HETATM    7  C   UNK N   1      28.312  23.853  -5.325  0.00  0.00     0.048 C 
BRANCH   6   8
HETATM    8  C   UNK N   1      29.463  24.408  -3.217  0.00  0.00     0.006 C 
BRANCH   8   9
HETATM    9  C   UNK N   1      29.592  23.176  -2.314  0.00  0.00     0.206 C 
BRANCH   9  10
HETATM   10  O   UNK N   1      30.918  22.841  -2.097  0.00  0.00    -0.318 OA
BRANCH  10  11
HETATM   11  C   UNK N   1      31.577  21.791  -2.644  0.00  0.00     0.255 C 
HETATM   12  C   UNK N   1      30.906  21.010  -3.731  0.00  0.00     0.126 C 
HETATM   13  O   UNK N   1      32.683  21.474  -2.267  0.00  0.00    -0.266 OA
ENDBRANCH  10  11
ENDBRANCH   9  10
ENDBRANCH   8   9
ENDBRANCH   6   8
ENDBRANCH   5   6
ENDBRANCH   4   5
ENDBRANCH   2   3
BRANCH   2  14
HETATM   14  C   UNK N   1      29.602  29.302  -5.535  0.00  0.00     0.007 C 
BRANCH  14  15
HETATM   15  C   UNK N   1      28.375  29.402  -6.105  0.00  0.00     0.009 C 
BRANCH  15  16
HETATM   16  C   UNK N   1      27.334  28.295  -6.035  0.00  0.00    -0.048 C 
HETATM   17  C   UNK N   1      27.185  27.412  -7.075  0.00  0.00    -0.077 C 
HETATM   18  C   UNK N   1      28.033  27.474  -8.287  0.00  0.00     0.044 C 
HETATM   19  C   UNK N   1      26.151  26.307  -7.094  0.00  0.00     0.034 C 
HETATM   20  C   UNK N   1      25.307  26.152  -5.841  0.00  0.00     0.005 C 
HETATM   21  C   UNK N   1      25.111  27.487  -5.154  0.00  0.00     0.014 C 
HETATM   22  C   UNK N   1      26.460  28.101  -4.786  0.00  0.00    -0.020 C 
HETATM   23  C   UNK N   1      26.125  29.390  -4.058  0.00  0.00     0.020 C 
HETATM   24  C   UNK N   1      27.200  27.188  -3.819  0.00  0.00     0.020 C 
ENDBRANCH  15  16
ENDBRANCH  14  15
ENDBRANCH   2  14
TORSDOF 10
ENDMDL
MODEL 3
REMARK VINA RESULT:      -5.6      2.637      4.972
REMARK  10 active torsions:
REMARK  status: ('A' for Active; 'I' for Inactive)
REMARK    1  A    between atoms: C_10  and  C_7 
REMARK    2  A    between atoms: C_17  and  C_9 
REMARK    3  A    between atoms: C_18  and  C_10 
REMARK    4  A    between atoms: C_13  and  C_12 
REMARK    5  A    between atoms: C_17  and  C_12 
REMARK    6  A    between atoms: C_21  and  C_13 
REMARK    7  A    between atoms: C_16  and  C_14 
REMARK    8  A    between atoms: C_18  and  C_14 
REMARK    9  A    between atoms: O_24  and  C_16 
REMARK   10  A    between atoms: O_24  and  C_20 
ROOT
HETATM    1  C   UNK N   1      31.800  26.291  -4.550  0.00  0.00     0.048 C 
HETATM    2  C   UNK N   1      30.414  26.302  -4.007  0.00  0.00    -0.062 C 
ENDROOT
BRANCH   2   3
HETATM    3  C   UNK N   1      29.818  25.109  -3.792  0.00  0.00     0.007 C 
HETATM    4  C   UNK N   1      29.636  24.202  -4.903  0.00  0.00     0.001 C 
BRANCH   4   5
HETATM    5  C   UNK N   1      29.014  23.025  -5.010  0.00  0.00     0.006 C 
BRANCH   5   6
HETATM    6  C   UNK N   1      28.363  22.809  -6.325  0.00  0.00    -0.064 C 
HETATM    7  C   UNK N   1      29.072  21.902  -7.273  0.00  0.00     0.048 C 
BRANCH   6   8
HETATM    8  C   UNK N   1      27.200  23.393  -6.681  0.00  0.00     0.006 C 
BRANCH   8   9
HETATM    9  C   UNK N   1      25.898  23.269  -5.882  0.00  0.00     0.206 C 
BRANCH   9  10
HETATM   10  O   UNK N   1      25.076  22.282  -6.400  0.00  0.00    -0.318 OA
BRANCH  10  11
HETATM   11  C   UNK N   1      24.926  21.973  -7.711  0.00  0.00     0.255 C 
HETATM   12  C   UNK N   1      25.490  20.680  -8.212  0.00  0.00     0.126 C 
HETATM   13  O   UNK N   1      24.357  22.721  -8.474  0.00  0.00    -0.266 OA
ENDBRANCH  10  11
ENDBRANCH   9  10
ENDBRANCH   8   9
ENDBRANCH   6   8
ENDBRANCH   5   6
ENDBRANCH   4   5
ENDBRANCH   2   3
BRANCH   2  14
HETATM   14  C   UNK N   1      29.787  27.656  -3.768  0.00  0.00     0.007 C 
BRANCH  14  15
HETATM   15  C   UNK N   1      28.951  28.378  -4.556  0.00  0.00     0.009 C 
BRANCH  15  16
HETATM   16  C   UNK N   1      27.697  27.797  -5.190  0.00  0.00    -0.048 C 
HETATM   17  C   UNK N   1      27.713  27.363  -6.493  0.00  0.00    -0.077 C 
HETATM   18  C   UNK N   1      28.936  27.413  -7.324  0.00  0.00     0.044 C 
HETATM   19  C   UNK N   1      26.499  26.804  -7.204  0.00  0.00     0.034 C 
HETATM   20  C   UNK N   1      25.237  26.659  -6.371  0.00  0.00     0.005 C 
HETATM   21  C   UNK N   1      25.177  27.721  -5.293  0.00  0.00     0.014 C 
HETATM   22  C   UNK N   1      26.400  27.631  -4.384  0.00  0.00    -0.020 C 
HETATM   23  C   UNK N   1      26.189  28.696  -3.325  0.00  0.00     0.020 C 
HETATM   24  C   UNK N   1      26.434  26.274  -3.694  0.00  0.00     0.020 C 
ENDBRANCH  15  16
ENDBRANCH  14  15
ENDBRANCH   2  14
TORSDOF 10
ENDMDL
MODEL 4
REMARK VINA RESULT:      -5.6     20.777     25.834
REMARK  10 active torsions:
REMARK  status: ('A' for Active; 'I' for Inactive)
REMARK    1  A    between atoms: C_10  and  C_7 
REMARK    2  A    between atoms: C_17  and  C_9 
REMARK    3  A    between atoms: C_18  and  C_10 
REMARK    4  A    between atoms: C_13  and  C_12 
REMARK    5  A    between atoms: C_17  and  C_12 
REMARK    6  A    between atoms: C_21  and  C_13 
REMARK    7  A    between atoms: C_16  and  C_14 
REMARK    8  A    between atoms: C_18  and  C_14 
REMARK    9  A    between atoms: O_24  and  C_16 
REMARK   10  A    between atoms: O_24  and  C_20 
ROOT
HETATM    1  C   UNK N   1      38.640   9.607  14.770  0.00  0.00     0.048 C 
HETATM    2  C   UNK N   1      37.363  10.335  14.533  0.00  0.00    -0.062 C 
ENDROOT
BRANCH   2   3
HETATM    3  C   UNK N   1      37.441  11.600  14.070  0.00  0.00     0.007 C 
HETATM    4  C   UNK N   1      37.010  11.885  12.719  0.00  0.00     0.001 C 
BRANCH   4   5
HETATM    5  C   UNK N   1      37.056  12.993  11.976  0.00  0.00     0.006 C 
BRANCH   5   6
HETATM    6  C   UNK N   1      36.043  14.009  12.354  0.00  0.00    -0.064 C 
HETATM    7  C   UNK N   1      36.368  14.861  13.534  0.00  0.00     0.048 C 
BRANCH   6   8
HETATM    8  C   UNK N   1      34.877  14.174  11.696  0.00  0.00     0.006 C 
BRANCH   8   9
HETATM    9  C   UNK N   1      34.764  14.330  10.175  0.00  0.00     0.206 C 
BRANCH   9  10
HETATM   10  O   UNK N   1      35.447  15.449   9.728  0.00  0.00    -0.318 OA
BRANCH  10  11
HETATM   11  C   UNK N   1      34.974  16.720   9.711  0.00  0.00     0.255 C 
HETATM   12  C   UNK N   1      33.682  16.995   9.007  0.00  0.00     0.126 C 
HETATM   13  O   UNK N   1      35.578  17.623  10.244  0.00  0.00    -0.266 OA
ENDBRANCH  10  11
ENDBRANCH   9  10
ENDBRANCH   8   9
ENDBRANCH   6   8
ENDBRANCH   5   6
ENDBRANCH   4   5
ENDBRANCH   2   3
BRANCH   2  14
HETATM   14  C   UNK N   1      36.087   9.594  14.860  0.00  0.00     0.007 C 
BRANCH  14  15
HETATM   15  C   UNK N   1      35.031   9.974  15.622  0.00  0.00     0.009 C 
BRANCH  15  16
HETATM   16  C   UNK N   1      35.185  10.634  16.984  0.00  0.00    -0.048 C 
HETATM   17  C   UNK N   1      35.029  11.990  17.122  0.00  0.00    -0.077 C 
HETATM   18  C   UNK N   1      34.683  12.863  15.977  0.00  0.00     0.044 C 
HETATM   19  C   UNK N   1      35.198  12.724  18.435  0.00  0.00     0.034 C 
HETATM   20  C   UNK N   1      35.477  11.864  19.656  0.00  0.00     0.005 C 
HETATM   21  C   UNK N   1      36.246  10.617  19.273  0.00  0.00     0.014 C 
HETATM   22  C   UNK N   1      35.466   9.802  18.244  0.00  0.00    -0.020 C 
HETATM   23  C   UNK N   1      36.307   8.564  17.996  0.00  0.00     0.020 C 
HETATM   24  C   UNK N   1      34.133   9.360  18.835  0.00  0.00     0.020 C 
ENDBRANCH  15  16
ENDBRANCH  14  15
ENDBRANCH   2  14
TORSDOF 10
ENDMDL
MODEL 5
REMARK VINA RESULT:      -5.6      1.514      3.576
REMARK  10 active torsions:
REMARK  status: ('A' for Active; 'I' for Inactive)
REMARK    1  A    between atoms: C_10  and  C_7 
REMARK    2  A    between atoms: C_17  and  C_9 
REMARK    3  A    between atoms: C_18  and  C_10 
REMARK    4  A    between atoms: C_13  and  C_12 
REMARK    5  A    between atoms: C_17  and  C_12 
REMARK    6  A    between atoms: C_21  and  C_13 
REMARK    7  A    between atoms: C_16  and  C_14 
REMARK    8  A    between atoms: C_18  and  C_14 
REMARK    9  A    between atoms: O_24  and  C_16 
REMARK   10  A    between atoms: O_24  and  C_20 
ROOT
HETATM    1  C   UNK N   1      28.105  28.955  -5.709  0.00  0.00     0.048 C 
HETATM    2  C   UNK N   1      27.367  27.866  -5.011  0.00  0.00    -0.062 C 
ENDROOT
BRANCH   2   3
HETATM    3  C   UNK N   1      28.049  27.129  -4.109  0.00  0.00     0.007 C 
HETATM    4  C   UNK N   1      29.280  26.485  -4.511  0.00  0.00     0.001 C 
BRANCH   4   5
HETATM    5  C   UNK N   1      30.100  25.641  -3.881  0.00  0.00     0.006 C 
BRANCH   5   6
HETATM    6  C   UNK N   1      29.809  24.211  -4.149  0.00  0.00    -0.064 C 
HETATM    7  C   UNK N   1      28.963  23.508  -3.143  0.00  0.00     0.048 C 
BRANCH   6   8
HETATM    8  C   UNK N   1      30.277  23.549  -5.228  0.00  0.00     0.006 C 
BRANCH   8   9
HETATM    9  C   UNK N   1      31.339  22.446  -5.164  0.00  0.00     0.206 C 
BRANCH   9  10
HETATM   10  O   UNK N   1      32.228  22.657  -4.123  0.00  0.00    -0.318 OA
BRANCH  10  11
HETATM   11  C   UNK N   1      32.510  21.786  -3.123  0.00  0.00     0.255 C 
HETATM   12  C   UNK N   1      33.629  20.811  -3.315  0.00  0.00     0.126 C 
HETATM   13  O   UNK N   1      31.874  21.782  -2.093  0.00  0.00    -0.266 OA
ENDBRANCH  10  11
ENDBRANCH   9  10
ENDBRANCH   8   9
ENDBRANCH   6   8
ENDBRANCH   5   6
ENDBRANCH   4   5
ENDBRANCH   2   3
BRANCH   2  14
HETATM   14  C   UNK N   1      25.920  27.669  -5.397  0.00  0.00     0.007 C 
BRANCH  14  15
HETATM   15  C   UNK N   1      25.356  26.742  -6.210  0.00  0.00     0.009 C 
BRANCH  15  16
HETATM   16  C   UNK N   1      26.103  25.520  -6.722  0.00  0.00    -0.048 C 
HETATM   17  C   UNK N   1      26.214  24.395  -5.944  0.00  0.00    -0.077 C 
HETATM   18  C   UNK N   1      25.599  24.304  -4.600  0.00  0.00     0.044 C 
HETATM   19  C   UNK N   1      26.969  23.154  -6.368  0.00  0.00     0.034 C 
HETATM   20  C   UNK N   1      27.553  23.167  -7.770  0.00  0.00     0.005 C 
HETATM   21  C   UNK N   1      27.929  24.574  -8.186  0.00  0.00     0.014 C 
HETATM   22  C   UNK N   1      26.708  25.490  -8.134  0.00  0.00    -0.020 C 
HETATM   23  C   UNK N   1      27.202  26.838  -8.626  0.00  0.00     0.020 C 
HETATM   24  C   UNK N   1      25.643  24.991  -9.102  0.00  0.00     0.020 C 
ENDBRANCH  15  16
ENDBRANCH  14  15
ENDBRANCH   2  14
TORSDOF 10
ENDMDL
MODEL 6
REMARK VINA RESULT:      -5.6     11.306     14.327
REMARK  10 active torsions:
REMARK  status: ('A' for Active; 'I' for Inactive)
REMARK    1  A    between atoms: C_10  and  C_7 
REMARK    2  A    between atoms: C_17  and  C_9 
REMARK    3  A    between atoms: C_18  and  C_10 
REMARK    4  A    between atoms: C_13  and  C_12 
REMARK    5  A    between atoms: C_17  and  C_12 
REMARK    6  A    between atoms: C_21  and  C_13 
REMARK    7  A    between atoms: C_16  and  C_14 
REMARK    8  A    between atoms: C_18  and  C_14 
REMARK    9  A    between atoms: O_24  and  C_16 
REMARK   10  A    between atoms: O_24  and  C_20 
ROOT
HETATM    1  C   UNK N   1      24.505  20.426   3.265  0.00  0.00     0.048 C 
HETATM    2  C   UNK N   1      25.328  19.368   3.915  0.00  0.00    -0.062 C 
ENDROOT
BRANCH   2   3
HETATM    3  C   UNK N   1      24.697  18.507   4.742  0.00  0.00     0.007 C 
HETATM    4  C   UNK N   1      23.252  18.448   4.729  0.00  0.00     0.001 C 
BRANCH   4   5
HETATM    5  C   UNK N   1      22.374  17.778   5.479  0.00  0.00     0.006 C 
BRANCH   5   6
HETATM    6  C   UNK N   1      21.846  16.552   4.833  0.00  0.00    -0.064 C 
HETATM    7  C   UNK N   1      22.297  15.253   5.411  0.00  0.00     0.048 C 
BRANCH   6   8
HETATM    8  C   UNK N   1      21.012  16.572   3.773  0.00  0.00     0.006 C 
BRANCH   8   9
HETATM    9  C   UNK N   1      19.968  17.666   3.524  0.00  0.00     0.206 C 
BRANCH   9  10
HETATM   10  O   UNK N   1      20.411  18.589   2.591  0.00  0.00    -0.318 OA
BRANCH  10  11
HETATM   11  C   UNK N   1      20.511  19.928   2.777  0.00  0.00     0.255 C 
HETATM   12  C   UNK N   1      20.728  20.804   1.582  0.00  0.00     0.126 C 
HETATM   13  O   UNK N   1      20.435  20.419   3.881  0.00  0.00    -0.266 OA
ENDBRANCH  10  11
ENDBRANCH   9  10
ENDBRANCH   8   9
ENDBRANCH   6   8
ENDBRANCH   5   6
ENDBRANCH   4   5
ENDBRANCH   2   3
BRANCH   2  14
HETATM   14  C   UNK N   1      26.807  19.372   3.609  0.00  0.00     0.007 C 
BRANCH  14  15
HETATM   15  C   UNK N   1      27.858  19.710   4.397  0.00  0.00     0.009 C 
BRANCH  15  16
HETATM   16  C   UNK N   1      28.167  19.012   5.713  0.00  0.00    -0.048 C 
HETATM   17  C   UNK N   1      27.765  19.562   6.905  0.00  0.00    -0.077 C 
HETATM   18  C   UNK N   1      26.999  20.828   6.968  0.00  0.00     0.044 C 
HETATM   19  C   UNK N   1      28.063  18.947   8.255  0.00  0.00     0.034 C 
HETATM   20  C   UNK N   1      28.778  17.607   8.241  0.00  0.00     0.005 C 
HETATM   21  C   UNK N   1      29.688  17.493   7.036  0.00  0.00     0.014 C 
HETATM   22  C   UNK N   1      28.888  17.656   5.746  0.00  0.00    -0.020 C 
HETATM   23  C   UNK N   1      29.893  17.462   4.626  0.00  0.00     0.020 C 
HETATM   24  C   UNK N   1      27.842  16.554   5.641  0.00  0.00     0.020 C 
ENDBRANCH  15  16
ENDBRANCH  14  15
ENDBRANCH   2  14
TORSDOF 10
ENDMDL
MODEL 7
REMARK VINA RESULT:      -5.5      3.311      7.595
REMARK  10 active torsions:
REMARK  status: ('A' for Active; 'I' for Inactive)
REMARK    1  A    between atoms: C_10  and  C_7 
REMARK    2  A    between atoms: C_17  and  C_9 
REMARK    3  A    between atoms: C_18  and  C_10 
REMARK    4  A    between atoms: C_13  and  C_12 
REMARK    5  A    between atoms: C_17  and  C_12 
REMARK    6  A    between atoms: C_21  and  C_13 
REMARK    7  A    between atoms: C_16  and  C_14 
REMARK    8  A    between atoms: C_18  and  C_14 
REMARK    9  A    between atoms: O_24  and  C_16 
REMARK   10  A    between atoms: O_24  and  C_20 
ROOT
HETATM    1  C   UNK N   1      30.886  24.545  -3.827  0.00  0.00     0.048 C 
HETATM    2  C   UNK N   1      29.982  23.521  -3.232  0.00  0.00    -0.062 C 
ENDROOT
BRANCH   2   3
HETATM    3  C   UNK N   1      28.696  23.873  -3.016  0.00  0.00     0.007 C 
HETATM    4  C   UNK N   1      27.818  24.064  -4.149  0.00  0.00     0.001 C 
BRANCH   4   5
HETATM    5  C   UNK N   1      26.557  24.491  -4.246  0.00  0.00     0.006 C 
BRANCH   5   6
HETATM    6  C   UNK N   1      26.040  24.522  -5.636  0.00  0.00    -0.064 C 
HETATM    7  C   UNK N   1      26.036  23.224  -6.370  0.00  0.00     0.048 C 
BRANCH   6   8
HETATM    8  C   UNK N   1      25.600  25.647  -6.239  0.00  0.00     0.006 C 
BRANCH   8   9
HETATM    9  C   UNK N   1      24.843  26.767  -5.517  0.00  0.00     0.206 C 
BRANCH   9  10
HETATM   10  O   UNK N   1      25.678  27.831  -5.215  0.00  0.00    -0.318 OA
BRANCH  10  11
HETATM   11  C   UNK N   1      25.831  28.406  -3.997  0.00  0.00     0.255 C 
HETATM   12  C   UNK N   1      26.516  29.734  -3.911  0.00  0.00     0.126 C 
HETATM   13  O   UNK N   1      25.433  27.864  -2.990  0.00  0.00    -0.266 OA
ENDBRANCH  10  11
ENDBRANCH   9  10
ENDBRANCH   8   9
ENDBRANCH   6   8
ENDBRANCH   5   6
ENDBRANCH   4   5
ENDBRANCH   2   3
BRANCH   2  14
HETATM   14  C   UNK N   1      30.596  22.182  -2.899  0.00  0.00     0.007 C 
BRANCH  14  15
HETATM   15  C   UNK N   1      30.732  21.072  -3.668  0.00  0.00     0.009 C 
BRANCH  15  16
HETATM   16  C   UNK N   1      31.535  21.050  -4.960  0.00  0.00    -0.048 C 
HETATM   17  C   UNK N   1      30.909  21.203  -6.171  0.00  0.00    -0.077 C 
HETATM   18  C   UNK N   1      29.449  21.421  -6.281  0.00  0.00     0.044 C 
HETATM   19  C   UNK N   1      31.634  21.159  -7.500  0.00  0.00     0.034 C 
HETATM   20  C   UNK N   1      33.144  21.015  -7.439  0.00  0.00     0.005 C 
HETATM   21  C   UNK N   1      33.563  20.226  -6.216  0.00  0.00     0.014 C 
HETATM   22  C   UNK N   1      33.065  20.908  -4.944  0.00  0.00    -0.020 C 
HETATM   23  C   UNK N   1      33.597  20.060  -3.804  0.00  0.00     0.020 C 
HETATM   24  C   UNK N   1      33.675  22.298  -4.828  0.00  0.00     0.020 C 
ENDBRANCH  15  16
ENDBRANCH  14  15
ENDBRANCH   2  14
TORSDOF 10
ENDMDL
MODEL 8
REMARK VINA RESULT:      -5.4      1.644      3.103
REMARK  10 active torsions:
REMARK  status: ('A' for Active; 'I' for Inactive)
REMARK    1  A    between atoms: C_10  and  C_7 
REMARK    2  A    between atoms: C_17  and  C_9 
REMARK    3  A    between atoms: C_18  and  C_10 
REMARK    4  A    between atoms: C_13  and  C_12 
REMARK    5  A    between atoms: C_17  and  C_12 
REMARK    6  A    between atoms: C_21  and  C_13 
REMARK    7  A    between atoms: C_16  and  C_14 
REMARK    8  A    between atoms: C_18  and  C_14 
REMARK    9  A    between atoms: O_24  and  C_16 
REMARK   10  A    between atoms: O_24  and  C_20 
ROOT
HETATM    1  C   UNK N   1      30.413  25.536  -8.244  0.00  0.00     0.048 C 
HETATM    2  C   UNK N   1      29.311  25.638  -7.247  0.00  0.00    -0.062 C 
ENDROOT
BRANCH   2   3
HETATM    3  C   UNK N   1      29.648  25.627  -5.940  0.00  0.00     0.007 C 
HETATM    4  C   UNK N   1      28.879  24.817  -5.020  0.00  0.00     0.001 C 
BRANCH   4   5
HETATM    5  C   UNK N   1      28.919  24.682  -3.693  0.00  0.00     0.006 C 
BRANCH   5   6
HETATM    6  C   UNK N   1      29.507  23.398  -3.239  0.00  0.00    -0.064 C 
HETATM    7  C   UNK N   1      29.195  22.985  -1.840  0.00  0.00     0.048 C 
BRANCH   6   8
HETATM    8  C   UNK N   1      30.294  22.626  -4.018  0.00  0.00     0.006 C 
BRANCH   8   9
HETATM    9  C   UNK N   1      31.807  22.822  -4.169  0.00  0.00     0.206 C 
BRANCH   9  10
HETATM   10  O   UNK N   1      32.472  21.608  -4.232  0.00  0.00    -0.318 OA
BRANCH  10  11
HETATM   11  C   UNK N   1      33.265  21.081  -3.267  0.00  0.00     0.255 C 
HETATM   12  C   UNK N   1      34.477  20.306  -3.679  0.00  0.00     0.126 C 
HETATM   13  O   UNK N   1      33.006  21.221  -2.093  0.00  0.00    -0.266 OA
ENDBRANCH  10  11
ENDBRANCH   9  10
ENDBRANCH   8   9
ENDBRANCH   6   8
ENDBRANCH   5   6
ENDBRANCH   4   5
ENDBRANCH   2   3
BRANCH   2  14
HETATM   14  C   UNK N   1      27.905  25.718  -7.794  0.00  0.00     0.007 C 
BRANCH  14  15
HETATM   15  C   UNK N   1      26.971  26.692  -7.653  0.00  0.00     0.009 C 
BRANCH  15  16
HETATM   16  C   UNK N   1      26.668  27.367  -6.324  0.00  0.00    -0.048 C 
HETATM   17  C   UNK N   1      27.302  28.533  -5.974  0.00  0.00    -0.077 C 
HETATM   18  C   UNK N   1      28.277  29.197  -6.869  0.00  0.00     0.044 C 
HETATM   19  C   UNK N   1      27.079  29.245  -4.657  0.00  0.00     0.034 C 
HETATM   20  C   UNK N   1      26.030  28.646  -3.737  0.00  0.00     0.005 C 
HETATM   21  C   UNK N   1      25.949  27.145  -3.915  0.00  0.00     0.014 C 
HETATM   22  C   UNK N   1      25.614  26.796  -5.363  0.00  0.00    -0.020 C 
HETATM   23  C   UNK N   1      25.503  25.283  -5.393  0.00  0.00     0.020 C 
HETATM   24  C   UNK N   1      24.258  27.380  -5.737  0.00  0.00     0.020 C 
ENDBRANCH  15  16
ENDBRANCH  14  15
ENDBRANCH   2  14
TORSDOF 10
ENDMDL
MODEL 9
REMARK VINA RESULT:      -5.4      1.730      3.702
REMARK  10 active torsions:
REMARK  status: ('A' for Active; 'I' for Inactive)
REMARK    1  A    between atoms: C_10  and  C_7 
REMARK    2  A    between atoms: C_17  and  C_9 
REMARK    3  A    between atoms: C_18  and  C_10 
REMARK    4  A    between atoms: C_13  and  C_12 
REMARK    5  A    between atoms: C_17  and  C_12 
REMARK    6  A    between atoms: C_21  and  C_13 
REMARK    7  A    between atoms: C_16  and  C_14 
REMARK    8  A    between atoms: C_18  and  C_14 
REMARK    9  A    between atoms: O_24  and  C_16 
REMARK   10  A    between atoms: O_24  and  C_20 
ROOT
HETATM    1  C   UNK N   1      31.232  27.330  -5.902  0.00  0.00     0.048 C 
HETATM    2  C   UNK N   1      30.066  27.129  -6.807  0.00  0.00    -0.062 C 
ENDROOT
BRANCH   2   3
HETATM    3  C   UNK N   1      29.700  25.859  -7.082  0.00  0.00     0.007 C 
HETATM    4  C   UNK N   1      29.231  25.012  -6.008  0.00  0.00     0.001 C 
BRANCH   4   5
HETATM    5  C   UNK N   1      28.897  23.721  -5.963  0.00  0.00     0.006 C 
BRANCH   5   6
HETATM    6  C   UNK N   1      30.060  22.800  -5.992  0.00  0.00    -0.064 C 
HETATM    7  C   UNK N   1      29.749  21.343  -6.061  0.00  0.00     0.048 C 
BRANCH   6   8
HETATM    8  C   UNK N   1      31.341  23.222  -5.949  0.00  0.00     0.006 C 
BRANCH   8   9
HETATM    9  C   UNK N   1      32.189  23.261  -4.673  0.00  0.00     0.206 C 
BRANCH   9  10
HETATM   10  O   UNK N   1      31.437  23.645  -3.575  0.00  0.00    -0.318 OA
BRANCH  10  11
HETATM   11  C   UNK N   1      30.958  22.824  -2.608  0.00  0.00     0.255 C 
HETATM   12  C   UNK N   1      29.532  22.976  -2.180  0.00  0.00     0.126 C 
HETATM   13  O   UNK N   1      31.660  21.987  -2.087  0.00  0.00    -0.266 OA
ENDBRANCH  10  11
ENDBRANCH   9  10
ENDBRANCH   8   9
ENDBRANCH   6   8
ENDBRANCH   5   6
ENDBRANCH   4   5
ENDBRANCH   2   3
BRANCH   2  14
HETATM   14  C   UNK N   1      29.410  28.374  -7.358  0.00  0.00     0.007 C 
BRANCH  14  15
HETATM   15  C   UNK N   1      28.138  28.824  -7.213  0.00  0.00     0.009 C 
BRANCH  15  16
HETATM   16  C   UNK N   1      27.269  28.484  -6.012  0.00  0.00    -0.048 C 
HETATM   17  C   UNK N   1      26.340  27.477  -6.088  0.00  0.00    -0.077 C 
HETATM   18  C   UNK N   1      26.158  26.665  -7.312  0.00  0.00     0.044 C 
HETATM   19  C   UNK N   1      25.416  27.102  -4.949  0.00  0.00     0.034 C 
HETATM   20  C   UNK N   1      25.616  27.854  -3.644  0.00  0.00     0.005 C 
HETATM   21  C   UNK N   1      26.121  29.258  -3.902  0.00  0.00     0.014 C 
HETATM   22  C   UNK N   1      27.438  29.219  -4.673  0.00  0.00    -0.020 C 
HETATM   23  C   UNK N   1      27.862  30.669  -4.811  0.00  0.00     0.020 C 
HETATM   24  C   UNK N   1      28.497  28.489  -3.856  0.00  0.00     0.020 C 
ENDBRANCH  15  16
ENDBRANCH  14  15
ENDBRANCH   2  14
TORSDOF 10
ENDMDL
