MODEL 1
REMARK VINA RESULT:      -9.8      0.000      0.000
REMARK  3 active torsions:
REMARK  status: ('A' for Active; 'I' for Inactive)
REMARK    1  A    between atoms: C_3  and  C_8 
REMARK    2  A    between atoms: C_5  and  C_19 
REMARK    3  A    between atoms: C_11  and  N_17 
ROOT
HETATM    1  C   UNK N   1      18.392  17.208   8.568  0.00  0.00     0.210 A 
HETATM    2  O   UNK N   1      19.170  17.032   8.359  0.00  0.00    -0.353 OA
HETATM    3  C   UNK N   1      19.535  16.354   8.660  0.00  0.00     0.102 A 
HETATM    4  C   UNK N   1      20.314  16.178   8.451  0.00  0.00     0.047 A 
HETATM    5  C   UNK N   1      20.678  15.502   8.752  0.00  0.00    -0.045 A 
HETATM    6  C   UNK N   1      20.264  15.002   9.261  0.00  0.00    -0.026 A 
HETATM    7  C   UNK N   1      19.486  15.178   9.469  0.00  0.00     0.049 A 
HETATM    8  C   UNK N   1      19.121  15.855   9.169  0.00  0.00     0.102 A 
HETATM    9  O   UNK N   1      18.343  16.031   9.377  0.00  0.00    -0.353 OA
HETATM   10  C   UNK N   1      17.979  16.708   9.077  0.00  0.00     0.210 A 
HETATM   11  C   UNK N   1      20.628  14.326   9.561  0.00  0.00     0.120 A 
HETATM   12  C   UNK N   1      20.215  13.826  10.070  0.00  0.00     0.108 A 
HETATM   13  C   UNK N   1      20.579  13.149  10.371  0.00  0.00     0.135 A 
HETATM   14  O   UNK N   1      20.166  12.649  10.880  0.00  0.00    -0.297 OA
HETATM   15  C   UNK N   1      21.357  12.972  10.163  0.00  0.00     0.073 A 
HETATM   16  C   UNK N   1      21.772  13.473   9.653  0.00  0.00     0.129 A 
HETATM   17  N   UNK N   1      21.407  14.149   9.353  0.00  0.00    -0.403 N 
HETATM   18  C   UNK N   1      21.821  14.650   8.844  0.00  0.00     0.122 A 
HETATM   19  C   UNK N   1      21.456  15.326   8.543  0.00  0.00     0.058 A 
HETATM   20  C   UNK N   1      21.721  12.297  10.463  0.00  0.00     0.017 A 
HETATM   21  C   UNK N   1      22.500  12.120  10.254  0.00  0.00    -0.022 A 
HETATM   22  C   UNK N   1      22.865  11.444  10.555  0.00  0.00     0.009 A 
HETATM   23  C   UNK N   1      22.914  12.620   9.745  0.00  0.00     0.009 A 
ENDROOT
TORSDOF 3
ENDMDL
MODEL 2
REMARK VINA RESULT:      -9.7      7.846      9.211
REMARK  3 active torsions:
REMARK  status: ('A' for Active; 'I' for Inactive)
REMARK    1  A    between atoms: C_3  and  C_8 
REMARK    2  A    between atoms: C_5  and  C_19 
REMARK    3  A    between atoms: C_11  and  N_17 
ROOT
HETATM    1  C   UNK N   1      20.521  20.260   2.438  0.00  0.00     0.210 A 
HETATM    2  O   UNK N   1      20.919  19.780   2.977  0.00  0.00    -0.353 OA
HETATM    3  C   UNK N   1      21.740  19.834   3.050  0.00  0.00     0.102 A 
HETATM    4  C   UNK N   1      22.138  19.354   3.590  0.00  0.00     0.047 A 
HETATM    5  C   UNK N   1      22.958  19.408   3.664  0.00  0.00    -0.045 A 
HETATM    6  C   UNK N   1      23.379  19.943   3.197  0.00  0.00    -0.026 A 
HETATM    7  C   UNK N   1      22.980  20.423   2.658  0.00  0.00     0.049 A 
HETATM    8  C   UNK N   1      22.161  20.369   2.585  0.00  0.00     0.102 A 
HETATM    9  O   UNK N   1      21.762  20.849   2.046  0.00  0.00    -0.353 OA
HETATM   10  C   UNK N   1      20.941  20.794   1.972  0.00  0.00     0.210 A 
HETATM   11  C   UNK N   1      24.198  19.998   3.271  0.00  0.00     0.120 A 
HETATM   12  C   UNK N   1      24.620  20.532   2.805  0.00  0.00     0.108 A 
HETATM   13  C   UNK N   1      25.440  20.587   2.879  0.00  0.00     0.135 A 
HETATM   14  O   UNK N   1      25.862  21.121   2.413  0.00  0.00    -0.297 OA
HETATM   15  C   UNK N   1      25.839  20.107   3.418  0.00  0.00     0.073 A 
HETATM   16  C   UNK N   1      25.417  19.572   3.884  0.00  0.00     0.129 A 
HETATM   17  N   UNK N   1      24.598  19.517   3.811  0.00  0.00    -0.403 N 
HETATM   18  C   UNK N   1      24.176  18.983   4.276  0.00  0.00     0.122 A 
HETATM   19  C   UNK N   1      23.356  18.928   4.203  0.00  0.00     0.058 A 
HETATM   20  C   UNK N   1      26.658  20.161   3.491  0.00  0.00     0.017 A 
HETATM   21  C   UNK N   1      27.057  19.681   4.031  0.00  0.00    -0.022 A 
HETATM   22  C   UNK N   1      27.877  19.735   4.105  0.00  0.00     0.009 A 
HETATM   23  C   UNK N   1      26.636  19.146   4.497  0.00  0.00     0.009 A 
ENDROOT
TORSDOF 3
ENDMDL
MODEL 3
REMARK VINA RESULT:      -9.3      2.955      3.447
REMARK  3 active torsions:
REMARK  status: ('A' for Active; 'I' for Inactive)
REMARK    1  A    between atoms: C_3  and  C_8 
REMARK    2  A    between atoms: C_5  and  C_19 
REMARK    3  A    between atoms: C_11  and  N_17 
ROOT
HETATM    1  C   UNK N   1      21.336  13.057   5.996  0.00  0.00     0.210 A 
HETATM    2  O   UNK N   1      22.071  12.936   6.349  0.00  0.00    -0.353 OA
HETATM    3  C   UNK N   1      22.123  12.809   7.163  0.00  0.00     0.102 A 
HETATM    4  C   UNK N   1      22.859  12.687   7.516  0.00  0.00     0.047 A 
HETATM    5  C   UNK N   1      22.910  12.561   8.329  0.00  0.00    -0.045 A 
HETATM    6  C   UNK N   1      22.225  12.555   8.789  0.00  0.00    -0.026 A 
HETATM    7  C   UNK N   1      21.490  12.677   8.437  0.00  0.00     0.049 A 
HETATM    8  C   UNK N   1      21.439  12.803   7.623  0.00  0.00     0.102 A 
HETATM    9  O   UNK N   1      20.703  12.925   7.271  0.00  0.00    -0.353 OA
HETATM   10  C   UNK N   1      20.652  13.052   6.456  0.00  0.00     0.210 A 
HETATM   11  C   UNK N   1      22.276  12.429   9.603  0.00  0.00     0.120 A 
HETATM   12  C   UNK N   1      21.592  12.423  10.064  0.00  0.00     0.108 A 
HETATM   13  C   UNK N   1      21.644  12.296  10.878  0.00  0.00     0.135 A 
HETATM   14  O   UNK N   1      20.960  12.291  11.339  0.00  0.00    -0.297 OA
HETATM   15  C   UNK N   1      22.379  12.175  11.231  0.00  0.00     0.073 A 
HETATM   16  C   UNK N   1      23.064  12.180  10.770  0.00  0.00     0.129 A 
HETATM   17  N   UNK N   1      23.013  12.307   9.957  0.00  0.00    -0.403 N 
HETATM   18  C   UNK N   1      23.697  12.313   9.496  0.00  0.00     0.122 A 
HETATM   19  C   UNK N   1      23.645  12.439   8.682  0.00  0.00     0.058 A 
HETATM   20  C   UNK N   1      22.430  12.048  12.044  0.00  0.00     0.017 A 
HETATM   21  C   UNK N   1      23.166  11.927  12.397  0.00  0.00    -0.022 A 
HETATM   22  C   UNK N   1      23.218  11.800  13.211  0.00  0.00     0.009 A 
HETATM   23  C   UNK N   1      23.850  11.932  11.936  0.00  0.00     0.009 A 
ENDROOT
TORSDOF 3
ENDMDL
MODEL 4
REMARK VINA RESULT:      -9.3     15.425     16.552
REMARK  3 active torsions:
REMARK  status: ('A' for Active; 'I' for Inactive)
REMARK    1  A    between atoms: C_3  and  C_8 
REMARK    2  A    between atoms: C_5  and  C_19 
REMARK    3  A    between atoms: C_11  and  N_17 
ROOT
HETATM    1  C   UNK N   1      35.317  13.042  12.680  0.00  0.00     0.210 A 
HETATM    2  O   UNK N   1      35.315  12.366  13.151  0.00  0.00    -0.353 OA
HETATM    3  C   UNK N   1      35.305  12.436  13.974  0.00  0.00     0.102 A 
HETATM    4  C   UNK N   1      35.303  11.759  14.445  0.00  0.00     0.047 A 
HETATM    5  C   UNK N   1      35.293  11.829  15.267  0.00  0.00    -0.045 A 
HETATM    6  C   UNK N   1      35.285  12.577  15.617  0.00  0.00    -0.026 A 
HETATM    7  C   UNK N   1      35.287  13.253  15.145  0.00  0.00     0.049 A 
HETATM    8  C   UNK N   1      35.297  13.183  14.324  0.00  0.00     0.102 A 
HETATM    9  O   UNK N   1      35.299  13.859  13.852  0.00  0.00    -0.353 OA
HETATM   10  C   UNK N   1      35.309  13.788  13.029  0.00  0.00     0.210 A 
HETATM   11  C   UNK N   1      35.275  12.647  16.439  0.00  0.00     0.120 A 
HETATM   12  C   UNK N   1      35.267  13.393  16.789  0.00  0.00     0.108 A 
HETATM   13  C   UNK N   1      35.257  13.464  17.611  0.00  0.00     0.135 A 
HETATM   14  O   UNK N   1      35.249  14.210  17.962  0.00  0.00    -0.297 OA
HETATM   15  C   UNK N   1      35.256  12.788  18.084  0.00  0.00     0.073 A 
HETATM   16  C   UNK N   1      35.264  12.040  17.733  0.00  0.00     0.129 A 
HETATM   17  N   UNK N   1      35.274  11.970  16.911  0.00  0.00    -0.403 N 
HETATM   18  C   UNK N   1      35.282  11.223  16.561  0.00  0.00     0.122 A 
HETATM   19  C   UNK N   1      35.292  11.153  15.739  0.00  0.00     0.058 A 
HETATM   20  C   UNK N   1      35.246  12.858  18.905  0.00  0.00     0.017 A 
HETATM   21  C   UNK N   1      35.244  12.181  19.377  0.00  0.00    -0.022 A 
HETATM   22  C   UNK N   1      35.234  12.251  20.199  0.00  0.00     0.009 A 
HETATM   23  C   UNK N   1      35.252  11.434  19.026  0.00  0.00     0.009 A 
ENDROOT
TORSDOF 3
ENDMDL
MODEL 5
REMARK VINA RESULT:      -9.1      1.644      4.542
REMARK  3 active torsions:
REMARK  status: ('A' for Active; 'I' for Inactive)
REMARK    1  A    between atoms: C_3  and  C_8 
REMARK    2  A    between atoms: C_5  and  C_19 
REMARK    3  A    between atoms: C_11  and  N_17 
ROOT
HETATM    1  C   UNK N   1      23.543  11.585  12.442  0.00  0.00     0.210 A 
HETATM    2  O   UNK N   1      23.831  11.850  11.716  0.00  0.00    -0.353 OA
HETATM    3  C   UNK N   1      23.333  12.258  11.199  0.00  0.00     0.102 A 
HETATM    4  C   UNK N   1      23.622  12.523  10.473  0.00  0.00     0.047 A 
HETATM    5  C   UNK N   1      23.125  12.931   9.956  0.00  0.00    -0.045 A 
HETATM    6  C   UNK N   1      22.340  13.074  10.166  0.00  0.00    -0.026 A 
HETATM    7  C   UNK N   1      22.052  12.809  10.892  0.00  0.00     0.049 A 
HETATM    8  C   UNK N   1      22.549  12.401  11.409  0.00  0.00     0.102 A 
HETATM    9  O   UNK N   1      22.261  12.136  12.134  0.00  0.00    -0.353 OA
HETATM   10  C   UNK N   1      22.759  11.727  12.651  0.00  0.00     0.210 A 
HETATM   11  C   UNK N   1      21.842  13.482   9.650  0.00  0.00     0.120 A 
HETATM   12  C   UNK N   1      21.057  13.625   9.859  0.00  0.00     0.108 A 
HETATM   13  C   UNK N   1      20.560  14.033   9.342  0.00  0.00     0.135 A 
HETATM   14  O   UNK N   1      19.775  14.176   9.551  0.00  0.00    -0.297 OA
HETATM   15  C   UNK N   1      20.847  14.299   8.616  0.00  0.00     0.073 A 
HETATM   16  C   UNK N   1      21.633  14.156   8.406  0.00  0.00     0.129 A 
HETATM   17  N   UNK N   1      22.130  13.748   8.923  0.00  0.00    -0.403 N 
HETATM   18  C   UNK N   1      22.915  13.604   8.714  0.00  0.00     0.122 A 
HETATM   19  C   UNK N   1      23.412  13.196   9.231  0.00  0.00     0.058 A 
HETATM   20  C   UNK N   1      20.351  14.706   8.100  0.00  0.00     0.017 A 
HETATM   21  C   UNK N   1      20.639  14.972   7.373  0.00  0.00    -0.022 A 
HETATM   22  C   UNK N   1      20.141  15.380   6.856  0.00  0.00     0.009 A 
HETATM   23  C   UNK N   1      21.424  14.829   7.164  0.00  0.00     0.009 A 
ENDROOT
TORSDOF 3
ENDMDL
MODEL 6
REMARK VINA RESULT:      -9.1     18.365     19.577
REMARK  3 active torsions:
REMARK  status: ('A' for Active; 'I' for Inactive)
REMARK    1  A    between atoms: C_3  and  C_8 
REMARK    2  A    between atoms: C_5  and  C_19 
REMARK    3  A    between atoms: C_11  and  N_17 
ROOT
HETATM    1  C   UNK N   1      25.751  22.184  -7.552  0.00  0.00     0.210 A 
HETATM    2  O   UNK N   1      26.023  22.343  -6.790  0.00  0.00    -0.353 OA
HETATM    3  C   UNK N   1      25.957  23.105  -6.478  0.00  0.00     0.102 A 
HETATM    4  C   UNK N   1      26.230  23.263  -5.716  0.00  0.00     0.047 A 
HETATM    5  C   UNK N   1      26.164  24.024  -5.405  0.00  0.00    -0.045 A 
HETATM    6  C   UNK N   1      25.826  24.626  -5.856  0.00  0.00    -0.026 A 
HETATM    7  C   UNK N   1      25.554  24.468  -6.618  0.00  0.00     0.049 A 
HETATM    8  C   UNK N   1      25.620  23.707  -6.929  0.00  0.00     0.102 A 
HETATM    9  O   UNK N   1      25.348  23.548  -7.691  0.00  0.00    -0.353 OA
HETATM   10  C   UNK N   1      25.413  22.786  -8.003  0.00  0.00     0.210 A 
HETATM   11  C   UNK N   1      25.760  25.388  -5.545  0.00  0.00     0.120 A 
HETATM   12  C   UNK N   1      25.423  25.990  -5.996  0.00  0.00     0.108 A 
HETATM   13  C   UNK N   1      25.357  26.752  -5.685  0.00  0.00     0.135 A 
HETATM   14  O   UNK N   1      25.019  27.354  -6.136  0.00  0.00    -0.297 OA
HETATM   15  C   UNK N   1      25.629  26.911  -4.923  0.00  0.00     0.073 A 
HETATM   16  C   UNK N   1      25.967  26.308  -4.471  0.00  0.00     0.129 A 
HETATM   17  N   UNK N   1      26.033  25.547  -4.782  0.00  0.00    -0.403 N 
HETATM   18  C   UNK N   1      26.370  24.944  -4.332  0.00  0.00     0.122 A 
HETATM   19  C   UNK N   1      26.436  24.183  -4.643  0.00  0.00     0.058 A 
HETATM   20  C   UNK N   1      25.563  27.671  -4.612  0.00  0.00     0.017 A 
HETATM   21  C   UNK N   1      25.836  27.831  -3.849  0.00  0.00    -0.022 A 
HETATM   22  C   UNK N   1      25.770  28.592  -3.538  0.00  0.00     0.009 A 
HETATM   23  C   UNK N   1      26.173  27.228  -3.398  0.00  0.00     0.009 A 
ENDROOT
TORSDOF 3
ENDMDL
MODEL 7
REMARK VINA RESULT:      -9.1     19.570     20.862
REMARK  3 active torsions:
REMARK  status: ('A' for Active; 'I' for Inactive)
REMARK    1  A    between atoms: C_3  and  C_8 
REMARK    2  A    between atoms: C_5  and  C_19 
REMARK    3  A    between atoms: C_11  and  N_17 
ROOT
HETATM    1  C   UNK N   1      25.917  24.450  -7.198  0.00  0.00     0.210 A 
HETATM    2  O   UNK N   1      26.321  25.148  -7.369  0.00  0.00    -0.353 OA
HETATM    3  C   UNK N   1      26.304  25.776  -6.832  0.00  0.00     0.102 A 
HETATM    4  C   UNK N   1      26.709  26.475  -7.003  0.00  0.00     0.047 A 
HETATM    5  C   UNK N   1      26.693  27.102  -6.468  0.00  0.00    -0.045 A 
HETATM    6  C   UNK N   1      26.272  27.030  -5.762  0.00  0.00    -0.026 A 
HETATM    7  C   UNK N   1      25.868  26.332  -5.591  0.00  0.00     0.049 A 
HETATM    8  C   UNK N   1      25.884  25.704  -6.127  0.00  0.00     0.102 A 
HETATM    9  O   UNK N   1      25.480  25.007  -5.957  0.00  0.00    -0.353 OA
HETATM   10  C   UNK N   1      25.496  24.379  -6.493  0.00  0.00     0.210 A 
HETATM   11  C   UNK N   1      26.255  27.657  -5.226  0.00  0.00     0.120 A 
HETATM   12  C   UNK N   1      25.835  27.586  -4.520  0.00  0.00     0.108 A 
HETATM   13  C   UNK N   1      25.818  28.213  -3.984  0.00  0.00     0.135 A 
HETATM   14  O   UNK N   1      25.398  28.143  -3.278  0.00  0.00    -0.297 OA
HETATM   15  C   UNK N   1      26.223  28.912  -4.154  0.00  0.00     0.073 A 
HETATM   16  C   UNK N   1      26.644  28.983  -4.861  0.00  0.00     0.129 A 
HETATM   17  N   UNK N   1      26.660  28.356  -5.396  0.00  0.00    -0.403 N 
HETATM   18  C   UNK N   1      27.081  28.427  -6.102  0.00  0.00     0.122 A 
HETATM   19  C   UNK N   1      27.097  27.800  -6.638  0.00  0.00     0.058 A 
HETATM   20  C   UNK N   1      26.206  29.539  -3.619  0.00  0.00     0.017 A 
HETATM   21  C   UNK N   1      26.611  30.238  -3.789  0.00  0.00    -0.022 A 
HETATM   22  C   UNK N   1      26.594  30.865  -3.254  0.00  0.00     0.009 A 
HETATM   23  C   UNK N   1      27.031  30.309  -4.495  0.00  0.00     0.009 A 
ENDROOT
TORSDOF 3
ENDMDL
MODEL 8
REMARK VINA RESULT:      -9.1      9.251     10.117
REMARK  3 active torsions:
REMARK  status: ('A' for Active; 'I' for Inactive)
REMARK    1  A    between atoms: C_3  and  C_8 
REMARK    2  A    between atoms: C_5  and  C_19 
REMARK    3  A    between atoms: C_11  and  N_17 
ROOT
HETATM    1  C   UNK N   1      29.619  17.583   9.622  0.00  0.00     0.210 A 
HETATM    2  O   UNK N   1      29.613  17.326   8.838  0.00  0.00    -0.353 OA
HETATM    3  C   UNK N   1      29.218  17.767   8.262  0.00  0.00     0.102 A 
HETATM    4  C   UNK N   1      29.212  17.509   7.478  0.00  0.00     0.047 A 
HETATM    5  C   UNK N   1      28.819  17.950   6.903  0.00  0.00    -0.045 A 
HETATM    6  C   UNK N   1      28.431  18.648   7.112  0.00  0.00    -0.026 A 
HETATM    7  C   UNK N   1      28.438  18.905   7.895  0.00  0.00     0.049 A 
HETATM    8  C   UNK N   1      28.831  18.464   8.471  0.00  0.00     0.102 A 
HETATM    9  O   UNK N   1      28.838  18.721   9.254  0.00  0.00    -0.353 OA
HETATM   10  C   UNK N   1      29.232  18.280   9.830  0.00  0.00     0.210 A 
HETATM   11  C   UNK N   1      28.037  19.089   6.537  0.00  0.00     0.120 A 
HETATM   12  C   UNK N   1      27.650  19.787   6.744  0.00  0.00     0.108 A 
HETATM   13  C   UNK N   1      27.256  20.228   6.169  0.00  0.00     0.135 A 
HETATM   14  O   UNK N   1      26.868  20.926   6.377  0.00  0.00    -0.297 OA
HETATM   15  C   UNK N   1      27.249  19.971   5.385  0.00  0.00     0.073 A 
HETATM   16  C   UNK N   1      27.637  19.273   5.177  0.00  0.00     0.129 A 
HETATM   17  N   UNK N   1      28.031  18.832   5.752  0.00  0.00    -0.403 N 
HETATM   18  C   UNK N   1      28.418  18.134   5.544  0.00  0.00     0.122 A 
HETATM   19  C   UNK N   1      28.812  17.693   6.120  0.00  0.00     0.058 A 
HETATM   20  C   UNK N   1      26.856  20.412   4.810  0.00  0.00     0.017 A 
HETATM   21  C   UNK N   1      26.849  20.155   4.026  0.00  0.00    -0.022 A 
HETATM   22  C   UNK N   1      26.455  20.595   3.450  0.00  0.00     0.009 A 
HETATM   23  C   UNK N   1      27.237  19.457   3.818  0.00  0.00     0.009 A 
ENDROOT
TORSDOF 3
ENDMDL
MODEL 9
REMARK VINA RESULT:      -9.1      1.175      4.642
REMARK  3 active torsions:
REMARK  status: ('A' for Active; 'I' for Inactive)
REMARK    1  A    between atoms: C_3  and  C_8 
REMARK    2  A    between atoms: C_5  and  C_19 
REMARK    3  A    between atoms: C_11  and  N_17 
ROOT
HETATM    1  C   UNK N   1      23.461  11.459  10.352  0.00  0.00     0.210 A 
HETATM    2  O   UNK N   1      22.683  11.599  10.585  0.00  0.00    -0.353 OA
HETATM    3  C   UNK N   1      22.279  12.261  10.300  0.00  0.00     0.102 A 
HETATM    4  C   UNK N   1      21.500  12.400  10.533  0.00  0.00     0.047 A 
HETATM    5  C   UNK N   1      21.097  13.061  10.248  0.00  0.00    -0.045 A 
HETATM    6  C   UNK N   1      21.473  13.582   9.730  0.00  0.00    -0.026 A 
HETATM    7  C   UNK N   1      22.252  13.443   9.498  0.00  0.00     0.049 A 
HETATM    8  C   UNK N   1      22.655  12.781   9.783  0.00  0.00     0.102 A 
HETATM    9  O   UNK N   1      23.433  12.642   9.550  0.00  0.00    -0.353 OA
HETATM   10  C   UNK N   1      23.837  11.980   9.835  0.00  0.00     0.210 A 
HETATM   11  C   UNK N   1      21.070  14.243   9.446  0.00  0.00     0.120 A 
HETATM   12  C   UNK N   1      21.445  14.765   8.928  0.00  0.00     0.108 A 
HETATM   13  C   UNK N   1      21.042  15.426   8.644  0.00  0.00     0.135 A 
HETATM   14  O   UNK N   1      21.418  15.947   8.126  0.00  0.00    -0.297 OA
HETATM   15  C   UNK N   1      20.263  15.566   8.876  0.00  0.00     0.073 A 
HETATM   16  C   UNK N   1      19.887  15.044   9.394  0.00  0.00     0.129 A 
HETATM   17  N   UNK N   1      20.290  14.383   9.678  0.00  0.00    -0.403 N 
HETATM   18  C   UNK N   1      19.915  13.862  10.196  0.00  0.00     0.122 A 
HETATM   19  C   UNK N   1      20.318  13.201  10.480  0.00  0.00     0.058 A 
HETATM   20  C   UNK N   1      19.861  16.226   8.591  0.00  0.00     0.017 A 
HETATM   21  C   UNK N   1      19.081  16.367   8.824  0.00  0.00    -0.022 A 
HETATM   22  C   UNK N   1      18.678  17.028   8.539  0.00  0.00     0.009 A 
HETATM   23  C   UNK N   1      18.706  15.845   9.341  0.00  0.00     0.009 A 
ENDROOT
TORSDOF 3
ENDMDL
