REMARK  4 active torsions:
REMARK  status: ('A' for Active; 'I' for Inactive)
REMARK    1  A    between atoms: C_3  and  C_2 
REMARK    2  A    between atoms: C_3  and  O_39 
REMARK    3  A    between atoms: C_26  and  C_27 
REMARK    4  A    between atoms: C_27  and  N_28 
ROOT
HETATM    1  C   UNK N   1       8.900   2.196  -0.633  0.00  0.00     0.173 C 
HETATM    2  C   UNK N   1       7.948   1.039  -0.385  0.00  0.00     0.002 A 
HETATM    3  C   UNK N   1       6.584   1.234  -0.179  0.00  0.00     0.043 A 
HETATM    4  C   UNK N   1       5.795   0.130   0.087  0.00  0.00     0.066 A 
HETATM    5  N   UNK N   1       6.293  -1.117   0.188  0.00  0.00    -0.307 N 
HETATM    6  C   UNK N   1       7.634  -1.360  -0.016  0.00  0.00     0.257 A 
HETATM    7  O   UNK N   1       8.077  -2.494   0.068  0.00  0.00    -0.267 OA
HETATM    8  C   UNK N   1       8.483  -0.271  -0.321  0.00  0.00     0.044 A 
HETATM    9  C   UNK N   1       9.972  -0.419  -0.519  0.00  0.00     0.224 C 
HETATM   10  O   UNK N   1      10.631   0.600   0.159  0.00  0.00    -0.314 OA
HETATM   11  C   UNK N   1      10.137   1.873   0.186  0.00  0.00     0.298 C 
HETATM   12  O   UNK N   1      10.641   2.702   0.928  0.00  0.00    -0.261 OA
HETATM   13  C   UNK N   1       5.219  -2.084   0.524  0.00  0.00     0.174 A 
HETATM   14  C   UNK N   1       4.004  -1.160   0.550  0.00  0.00    -0.002 A 
HETATM   15  C   UNK N   1       4.403   0.120   0.278  0.00  0.00     0.068 A 
HETATM   16  N   UNK N   1       3.558   1.166   0.175  0.00  0.00    -0.353 N 
ATOM     17  HN  UNK N   1       3.916   2.099  -0.030  1.00  0.00     0.166 HD
HETATM   18  C   UNK N   1       2.230   0.965   0.345  0.00  0.00     0.046 A 
HETATM   19  C   UNK N   1       1.354   2.034   0.172  0.00  0.00     0.070 A 
HETATM   20  C   UNK N   1      -0.017   1.835   0.297  0.00  0.00     0.104 A 
HETATM   21  C   UNK N   1      -0.521   0.566   0.616  0.00  0.00     0.103 A 
HETATM   22  C   UNK N   1       0.350  -0.507   0.823  0.00  0.00     0.054 A 
HETATM   23  C   UNK N   1       1.734  -0.331   0.668  0.00  0.00     0.002 A 
HETATM   24  C   UNK N   1       2.641  -1.421   0.781  0.00  0.00    -0.007 A 
HETATM   25  O   UNK N   1      -1.858   0.386   0.689  0.00  0.00    -0.346 OA
HETATM   26  C   UNK N   1      -2.738   1.321   0.167  0.00  0.00     0.202 C 
HETATM   27  C   UNK N   1      -2.229   2.756   0.375  0.00  0.00     0.202 C 
HETATM   28  O   UNK N   1      -0.873   2.866   0.110  0.00  0.00    -0.346 OA
ENDROOT
BRANCH  24  29
HETATM   29  C   UNK N   1       2.136  -2.799   1.139  0.00  0.00     0.312 C 
BRANCH  29  30
HETATM   30  N   UNK N   1       1.860  -3.682  -0.000  0.00  0.00     0.096 N 
HETATM   31  C   UNK N   1       1.079  -4.799   0.561  0.00  0.00     0.303 C 
HETATM   32  C   UNK N   1       0.060  -5.383  -0.431  0.00  0.00     0.302 C 
HETATM   33  N   UNK N   1      -0.890  -4.376  -0.933  0.00  0.00     0.087 N 
HETATM   34  C   UNK N   1      -0.369  -3.006  -0.896  0.00  0.00     0.302 C 
HETATM   35  C   UNK N   1      -2.079  -4.407  -0.100  0.00  0.00     0.310 C 
HETATM   36  C   UNK N   1       1.148  -2.980  -1.088  0.00  0.00     0.303 C 
ENDBRANCH  29  30
ENDBRANCH  24  29
BRANCH   1  37
HETATM   37  C   UNK N   1       8.335   3.586  -0.264  0.00  0.00     0.049 C 
HETATM   38  C   UNK N   1       7.158   4.021  -1.126  0.00  0.00     0.009 C 
ENDBRANCH   1  37
BRANCH   1  39
HETATM   39  O   UNK N   1       9.265   2.190  -1.982  0.00  0.00    -0.375 OA
HETATM   40  H   UNK N   1       9.387   1.968  -2.918  0.00  0.00     0.211 HD
ENDBRANCH   1  39
TORSDOF 4
