MODEL 1
REMARK VINA RESULT:      -7.6      0.000      0.000
REMARK  3 active torsions:
REMARK  status: ('A' for Active; 'I' for Inactive)
REMARK    1  A    between atoms: C_6  and  C_7 
REMARK    2  A    between atoms: C_9  and  O_23 
REMARK    3  A    between atoms: C_11  and  C_14 
ROOT
HETATM    1  C   UNK N   1      25.032  19.836   3.674  0.00  0.00     0.062 C 
HETATM    2  C   UNK N   1      23.843  19.327   4.026  0.00  0.00     0.068 A 
HETATM    3  C   UNK N   1      22.540  19.586   3.421  0.00  0.00     0.097 A 
HETATM    4  C   UNK N   1      21.631  18.860   4.098  0.00  0.00     0.071 A 
HETATM    5  C   UNK N   1      22.407  18.145   5.141  0.00  0.00     0.062 A 
HETATM    6  N   UNK N   1      23.646  18.432   5.069  0.00  0.00    -0.352 N 
ATOM      7  HN  UNK N   1      24.376  18.064   5.678  1.00  0.00     0.166 HD
ENDROOT
BRANCH   5   8
HETATM    8  C   UNK N   1      21.931  17.212   6.166  0.00  0.00     0.060 A 
HETATM    9  C   UNK N   1      20.849  17.375   7.029  0.00  0.00     0.045 A 
HETATM   10  C   UNK N   1      20.842  16.215   7.781  0.00  0.00    -0.007 A 
HETATM   11  C   UNK N   1      19.994  15.803   8.804  0.00  0.00     0.014 A 
HETATM   12  C   UNK N   1      21.878  15.432   7.356  0.00  0.00     0.043 A 
HETATM   13  C   UNK N   1      20.238  14.545   9.393  0.00  0.00     0.001 A 
HETATM   14  C   UNK N   1      21.313  13.740   8.948  0.00  0.00     0.002 A 
HETATM   15  C   UNK N   1      22.150  14.187   7.913  0.00  0.00     0.030 A 
HETATM   16  N   UNK N   1      22.554  16.025   6.371  0.00  0.00    -0.354 N 
HETATM   17  H   UNK N   1      23.339  15.675   5.892  0.00  0.00     0.166 HD
ENDBRANCH   5   8
BRANCH   3  18
HETATM   18  O   UNK N   1      22.304  20.409   2.369  0.00  0.00    -0.354 OA
HETATM   19  C   UNK N   1      21.072  20.500   1.764  0.00  0.00     0.210 C 
ENDBRANCH   3  18
BRANCH   1  20
HETATM   20  C   UNK N   1      26.365  19.564   4.302  0.00  0.00     0.040 A 
HETATM   21  N   UNK N   1      27.091  18.507   3.892  0.00  0.00    -0.359 N 
HETATM   22  C   UNK N   1      28.225  18.510   4.620  0.00  0.00     0.006 A 
HETATM   23  H   UNK N   1      26.842  17.857   3.196  0.00  0.00     0.166 HD
HETATM   24  C   UNK N   1      28.253  19.560   5.507  0.00  0.00     0.033 A 
HETATM   25  C   UNK N   1      29.303  17.499   4.473  0.00  0.00     0.068 C 
HETATM   26  C   UNK N   1      27.073  20.237   5.312  0.00  0.00    -0.033 A 
HETATM   27  C   UNK N   1      26.739  21.452   6.102  0.00  0.00     0.050 C 
ENDBRANCH   1  20
TORSDOF 3
ENDMDL
MODEL 2
REMARK VINA RESULT:      -7.3      1.700      2.677
REMARK  3 active torsions:
REMARK  status: ('A' for Active; 'I' for Inactive)
REMARK    1  A    between atoms: C_6  and  C_7 
REMARK    2  A    between atoms: C_9  and  O_23 
REMARK    3  A    between atoms: C_11  and  C_14 
ROOT
HETATM    1  C   UNK N   1      23.586  18.558   4.425  0.00  0.00     0.062 C 
HETATM    2  C   UNK N   1      22.646  17.818   5.030  0.00  0.00     0.068 A 
HETATM    3  C   UNK N   1      21.206  17.821   4.787  0.00  0.00     0.097 A 
HETATM    4  C   UNK N   1      20.656  16.920   5.622  0.00  0.00     0.071 A 
HETATM    5  C   UNK N   1      21.795  16.359   6.391  0.00  0.00     0.062 A 
HETATM    6  N   UNK N   1      22.896  16.888   6.030  0.00  0.00    -0.352 N 
ATOM      7  HN  UNK N   1      23.814  16.664   6.413  1.00  0.00     0.166 HD
ENDROOT
BRANCH   5   8
HETATM    8  C   UNK N   1      21.784  15.337   7.440  0.00  0.00     0.060 A 
HETATM    9  C   UNK N   1      20.814  15.134   8.420  0.00  0.00     0.045 A 
HETATM   10  C   UNK N   1      21.288  14.054   9.142  0.00  0.00    -0.007 A 
HETATM   11  C   UNK N   1      20.751  13.394  10.243  0.00  0.00     0.014 A 
HETATM   12  C   UNK N   1      22.475  13.667   8.589  0.00  0.00     0.043 A 
HETATM   13  C   UNK N   1      21.474  12.306  10.773  0.00  0.00     0.001 A 
HETATM   14  C   UNK N   1      22.703  11.910  10.194  0.00  0.00     0.002 A 
HETATM   15  C   UNK N   1      23.216  12.599   9.084  0.00  0.00     0.030 A 
HETATM   16  N   UNK N   1      22.793  14.439   7.548  0.00  0.00    -0.354 N 
HETATM   17  H   UNK N   1      23.593  14.371   6.979  0.00  0.00     0.166 HD
ENDBRANCH   5   8
BRANCH   3  18
HETATM   18  O   UNK N   1      20.557  18.594   3.882  0.00  0.00    -0.354 OA
HETATM   19  C   UNK N   1      20.144  18.113   2.661  0.00  0.00     0.210 C 
ENDBRANCH   3  18
BRANCH   1  20
HETATM   20  C   UNK N   1      25.062  18.548   4.682  0.00  0.00     0.040 A 
HETATM   21  N   UNK N   1      25.585  19.383   5.600  0.00  0.00    -0.359 N 
HETATM   22  C   UNK N   1      26.913  19.158   5.617  0.00  0.00     0.006 A 
HETATM   23  H   UNK N   1      25.093  20.033   6.152  0.00  0.00     0.166 HD
HETATM   24  C   UNK N   1      27.272  18.181   4.718  0.00  0.00     0.033 A 
HETATM   25  C   UNK N   1      27.862  19.880   6.502  0.00  0.00     0.068 C 
HETATM   26  C   UNK N   1      26.100  17.787   4.118  0.00  0.00    -0.033 A 
HETATM   27  C   UNK N   1      26.085  16.730   3.072  0.00  0.00     0.050 C 
ENDBRANCH   1  20
TORSDOF 3
ENDMDL
MODEL 3
REMARK VINA RESULT:      -7.2      1.252      1.993
REMARK  3 active torsions:
REMARK  status: ('A' for Active; 'I' for Inactive)
REMARK    1  A    between atoms: C_6  and  C_7 
REMARK    2  A    between atoms: C_9  and  O_23 
REMARK    3  A    between atoms: C_11  and  C_14 
ROOT
HETATM    1  C   UNK N   1      24.082  19.069   4.127  0.00  0.00     0.062 C 
HETATM    2  C   UNK N   1      23.104  18.391   4.743  0.00  0.00     0.068 A 
HETATM    3  C   UNK N   1      21.662  18.593   4.629  0.00  0.00     0.097 A 
HETATM    4  C   UNK N   1      21.065  17.686   5.424  0.00  0.00     0.071 A 
HETATM    5  C   UNK N   1      22.177  16.916   6.035  0.00  0.00     0.062 A 
HETATM    6  N   UNK N   1      23.307  17.342   5.628  0.00  0.00    -0.352 N 
ATOM      7  HN  UNK N   1      24.215  16.970   5.907  1.00  0.00     0.166 HD
ENDROOT
BRANCH   5   8
HETATM    8  C   UNK N   1      22.114  15.802   6.985  0.00  0.00     0.060 A 
HETATM    9  C   UNK N   1      22.962  14.699   7.061  0.00  0.00     0.045 A 
HETATM   10  C   UNK N   1      22.463  13.965   8.121  0.00  0.00    -0.007 A 
HETATM   11  C   UNK N   1      22.893  12.762   8.673  0.00  0.00     0.014 A 
HETATM   12  C   UNK N   1      21.380  14.630   8.621  0.00  0.00     0.043 A 
HETATM   13  C   UNK N   1      22.172  12.248   9.770  0.00  0.00     0.001 A 
HETATM   14  C   UNK N   1      21.052  12.943  10.282  0.00  0.00     0.002 A 
HETATM   15  C   UNK N   1      20.645  14.155   9.701  0.00  0.00     0.030 A 
HETATM   16  N   UNK N   1      21.153  15.755   7.940  0.00  0.00    -0.354 N 
HETATM   17  H   UNK N   1      20.437  16.412   8.097  0.00  0.00     0.166 HD
ENDBRANCH   5   8
BRANCH   3  18
HETATM   18  O   UNK N   1      21.051  19.527   3.858  0.00  0.00    -0.354 OA
HETATM   19  C   UNK N   1      20.230  19.193   2.806  0.00  0.00     0.210 C 
ENDBRANCH   3  18
BRANCH   1  20
HETATM   20  C   UNK N   1      25.560  18.854   4.250  0.00  0.00     0.040 A 
HETATM   21  N   UNK N   1      26.128  17.780   3.670  0.00  0.00    -0.359 N 
HETATM   22  C   UNK N   1      27.446  17.844   3.942  0.00  0.00     0.006 A 
HETATM   23  H   UNK N   1      25.670  17.082   3.148  0.00  0.00     0.166 HD
HETATM   24  C   UNK N   1      27.753  18.951   4.698  0.00  0.00     0.033 A 
HETATM   25  C   UNK N   1      28.435  16.837   3.478  0.00  0.00     0.068 C 
HETATM   26  C   UNK N   1      26.559  19.600   4.899  0.00  0.00    -0.033 A 
HETATM   27  C   UNK N   1      26.487  20.860   5.685  0.00  0.00     0.050 C 
ENDBRANCH   1  20
TORSDOF 3
ENDMDL
MODEL 4
REMARK VINA RESULT:      -7.1      3.186      4.177
REMARK  3 active torsions:
REMARK  status: ('A' for Active; 'I' for Inactive)
REMARK    1  A    between atoms: C_6  and  C_7 
REMARK    2  A    between atoms: C_9  and  O_23 
REMARK    3  A    between atoms: C_11  and  C_14 
ROOT
HETATM    1  C   UNK N   1      25.843  17.396   4.524  0.00  0.00     0.062 C 
HETATM    2  C   UNK N   1      25.212  16.273   4.893  0.00  0.00     0.068 A 
HETATM    3  C   UNK N   1      24.551  15.291   4.039  0.00  0.00     0.097 A 
HETATM    4  C   UNK N   1      24.055  14.329   4.840  0.00  0.00     0.071 A 
HETATM    5  C   UNK N   1      24.426  14.744   6.216  0.00  0.00     0.062 A 
HETATM    6  N   UNK N   1      25.074  15.840   6.205  0.00  0.00    -0.352 N 
ATOM      7  HN  UNK N   1      25.435  16.323   7.028  1.00  0.00     0.166 HD
ENDROOT
BRANCH   5   8
HETATM    8  C   UNK N   1      24.144  14.073   7.488  0.00  0.00     0.060 A 
HETATM    9  C   UNK N   1      25.056  13.472   8.353  0.00  0.00     0.045 A 
HETATM   10  C   UNK N   1      24.273  12.998   9.389  0.00  0.00    -0.007 A 
HETATM   11  C   UNK N   1      24.621  12.307  10.546  0.00  0.00     0.014 A 
HETATM   12  C   UNK N   1      22.975  13.320   9.116  0.00  0.00     0.043 A 
HETATM   13  C   UNK N   1      23.586  11.949  11.434  0.00  0.00     0.001 A 
HETATM   14  C   UNK N   1      22.243  12.288  11.144  0.00  0.00     0.002 A 
HETATM   15  C   UNK N   1      21.927  12.984   9.967  0.00  0.00     0.030 A 
HETATM   16  N   UNK N   1      22.877  13.978   7.959  0.00  0.00    -0.354 N 
HETATM   17  H   UNK N   1      22.057  14.321   7.537  0.00  0.00     0.166 HD
ENDBRANCH   5   8
BRANCH   3  18
HETATM   18  O   UNK N   1      24.464  15.349   2.687  0.00  0.00    -0.354 OA
HETATM   19  C   UNK N   1      25.073  14.428   1.867  0.00  0.00     0.210 C 
ENDBRANCH   3  18
BRANCH   1  20
HETATM   20  C   UNK N   1      26.518  18.399   5.410  0.00  0.00     0.040 A 
HETATM   21  N   UNK N   1      25.961  19.612   5.589  0.00  0.00    -0.359 N 
HETATM   22  C   UNK N   1      26.774  20.293   6.420  0.00  0.00     0.006 A 
HETATM   23  H   UNK N   1      25.122  19.939   5.189  0.00  0.00     0.166 HD
HETATM   24  C   UNK N   1      27.863  19.540   6.791  0.00  0.00     0.033 A 
HETATM   25  C   UNK N   1      26.515  21.683   6.872  0.00  0.00     0.068 C 
HETATM   26  C   UNK N   1      27.709  18.332   6.153  0.00  0.00    -0.033 A 
HETATM   27  C   UNK N   1      28.706  17.241   6.313  0.00  0.00     0.050 C 
ENDBRANCH   1  20
TORSDOF 3
ENDMDL
MODEL 5
REMARK VINA RESULT:      -7.0      3.898      5.935
REMARK  3 active torsions:
REMARK  status: ('A' for Active; 'I' for Inactive)
REMARK    1  A    between atoms: C_6  and  C_7 
REMARK    2  A    between atoms: C_9  and  O_23 
REMARK    3  A    between atoms: C_11  and  C_14 
ROOT
HETATM    1  C   UNK N   1      20.888  16.596   2.330  0.00  0.00     0.062 C 
HETATM    2  C   UNK N   1      21.124  16.749   3.640  0.00  0.00     0.068 A 
HETATM    3  C   UNK N   1      21.474  17.975   4.353  0.00  0.00     0.097 A 
HETATM    4  C   UNK N   1      21.617  17.658   5.653  0.00  0.00     0.071 A 
HETATM    5  C   UNK N   1      21.346  16.201   5.727  0.00  0.00     0.062 A 
HETATM    6  N   UNK N   1      21.073  15.726   4.577  0.00  0.00    -0.352 N 
ATOM      7  HN  UNK N   1      20.852  14.751   4.376  1.00  0.00     0.166 HD
ENDROOT
BRANCH   5   8
HETATM    8  C   UNK N   1      21.359  15.320   6.898  0.00  0.00     0.060 A 
HETATM    9  C   UNK N   1      20.449  15.292   7.952  0.00  0.00     0.045 A 
HETATM   10  C   UNK N   1      20.920  14.287   8.776  0.00  0.00    -0.007 A 
HETATM   11  C   UNK N   1      20.429  13.799   9.983  0.00  0.00     0.014 A 
HETATM   12  C   UNK N   1      22.050  13.772   8.207  0.00  0.00     0.043 A 
HETATM   13  C   UNK N   1      21.136  12.749  10.604  0.00  0.00     0.001 A 
HETATM   14  C   UNK N   1      22.305  12.220  10.008  0.00  0.00     0.002 A 
HETATM   15  C   UNK N   1      22.774  12.737   8.789  0.00  0.00     0.030 A 
HETATM   16  N   UNK N   1      22.333  14.390   7.059  0.00  0.00    -0.354 N 
HETATM   17  H   UNK N   1      23.089  14.209   6.456  0.00  0.00     0.166 HD
ENDBRANCH   5   8
BRANCH   3  18
HETATM   18  O   UNK N   1      21.624  19.201   3.793  0.00  0.00    -0.354 OA
HETATM   19  C   UNK N   1      20.558  20.037   3.551  0.00  0.00     0.210 C 
ENDBRANCH   3  18
BRANCH   1  20
HETATM   20  C   UNK N   1      20.529  15.332   1.609  0.00  0.00     0.040 A 
HETATM   21  N   UNK N   1      19.233  15.014   1.427  0.00  0.00    -0.359 N 
HETATM   22  C   UNK N   1      19.212  13.844   0.759  0.00  0.00     0.006 A 
HETATM   23  H   UNK N   1      18.452  15.534   1.725  0.00  0.00     0.166 HD
HETATM   24  C   UNK N   1      20.482  13.387   0.498  0.00  0.00     0.033 A 
HETATM   25  C   UNK N   1      17.964  13.145   0.359  0.00  0.00     0.068 C 
HETATM   26  C   UNK N   1      21.328  14.329   1.035  0.00  0.00    -0.033 A 
HETATM   27  C   UNK N   1      22.804  14.179   0.949  0.00  0.00     0.050 C 
ENDBRANCH   1  20
TORSDOF 3
ENDMDL
MODEL 6
REMARK VINA RESULT:      -6.9      3.507      4.222
REMARK  3 active torsions:
REMARK  status: ('A' for Active; 'I' for Inactive)
REMARK    1  A    between atoms: C_6  and  C_7 
REMARK    2  A    between atoms: C_9  and  O_23 
REMARK    3  A    between atoms: C_11  and  C_14 
ROOT
HETATM    1  C   UNK N   1      26.791  16.903   5.236  0.00  0.00     0.062 C 
HETATM    2  C   UNK N   1      25.973  15.870   5.475  0.00  0.00     0.068 A 
HETATM    3  C   UNK N   1      25.416  14.922   4.513  0.00  0.00     0.097 A 
HETATM    4  C   UNK N   1      24.650  14.055   5.200  0.00  0.00     0.071 A 
HETATM    5  C   UNK N   1      24.745  14.493   6.616  0.00  0.00     0.062 A 
HETATM    6  N   UNK N   1      25.496  15.514   6.730  0.00  0.00    -0.352 N 
ATOM      7  HN  UNK N   1      25.714  15.995   7.603  1.00  0.00     0.166 HD
ENDROOT
BRANCH   5   8
HETATM    8  C   UNK N   1      24.112  13.913   7.803  0.00  0.00     0.060 A 
HETATM    9  C   UNK N   1      22.759  13.921   8.136  0.00  0.00     0.045 A 
HETATM   10  C   UNK N   1      22.706  13.247   9.342  0.00  0.00    -0.007 A 
HETATM   11  C   UNK N   1      21.626  12.940  10.163  0.00  0.00     0.014 A 
HETATM   12  C   UNK N   1      23.979  12.876   9.672  0.00  0.00     0.043 A 
HETATM   13  C   UNK N   1      21.885  12.230  11.353  0.00  0.00     0.001 A 
HETATM   14  C   UNK N   1      23.206  11.848  11.688  0.00  0.00     0.002 A 
HETATM   15  C   UNK N   1      24.274  12.175  10.837  0.00  0.00     0.030 A 
HETATM   16  N   UNK N   1      24.850  13.274   8.744  0.00  0.00    -0.354 N 
HETATM   17  H   UNK N   1      25.824  13.133   8.742  0.00  0.00     0.166 HD
ENDBRANCH   5   8
BRANCH   3  18
HETATM   18  O   UNK N   1      25.642  14.927   3.176  0.00  0.00    -0.354 OA
HETATM   19  C   UNK N   1      24.623  14.847   2.255  0.00  0.00     0.210 C 
ENDBRANCH   3  18
BRANCH   1  20
HETATM   20  C   UNK N   1      27.357  17.871   6.230  0.00  0.00     0.040 A 
HETATM   21  N   UNK N   1      27.852  17.415   7.397  0.00  0.00    -0.359 N 
HETATM   22  C   UNK N   1      28.284  18.492   8.082  0.00  0.00     0.006 A 
HETATM   23  H   UNK N   1      27.890  16.477   7.693  0.00  0.00     0.166 HD
HETATM   24  C   UNK N   1      28.079  19.655   7.377  0.00  0.00     0.033 A 
HETATM   25  C   UNK N   1      28.904  18.419   9.429  0.00  0.00     0.068 C 
HETATM   26  C   UNK N   1      27.489  19.269   6.197  0.00  0.00    -0.033 A 
HETATM   27  C   UNK N   1      27.112  20.267   5.161  0.00  0.00     0.050 C 
ENDBRANCH   1  20
TORSDOF 3
ENDMDL
MODEL 7
REMARK VINA RESULT:      -6.9     13.140     14.836
REMARK  3 active torsions:
REMARK  status: ('A' for Active; 'I' for Inactive)
REMARK    1  A    between atoms: C_6  and  C_7 
REMARK    2  A    between atoms: C_9  and  O_23 
REMARK    3  A    between atoms: C_11  and  C_14 
ROOT
HETATM    1  C   UNK N   1      26.248  26.527  -6.895  0.00  0.00     0.062 C 
HETATM    2  C   UNK N   1      26.702  25.273  -6.761  0.00  0.00     0.068 A 
HETATM    3  C   UNK N   1      26.157  24.052  -7.348  0.00  0.00     0.097 A 
HETATM    4  C   UNK N   1      26.933  23.030  -6.943  0.00  0.00     0.071 A 
HETATM    5  C   UNK N   1      27.975  23.651  -6.087  0.00  0.00     0.062 A 
HETATM    6  N   UNK N   1      27.812  24.912  -6.009  0.00  0.00    -0.352 N 
ATOM      7  HN  UNK N   1      28.402  25.554  -5.480  1.00  0.00     0.166 HD
ENDROOT
BRANCH   5   8
HETATM    8  C   UNK N   1      29.087  23.012  -5.378  0.00  0.00     0.060 A 
HETATM    9  C   UNK N   1      29.652  23.392  -4.163  0.00  0.00     0.045 A 
HETATM   10  C   UNK N   1      30.654  22.462  -3.953  0.00  0.00    -0.007 A 
HETATM   11  C   UNK N   1      31.561  22.327  -2.907  0.00  0.00     0.014 A 
HETATM   12  C   UNK N   1      30.650  21.596  -5.009  0.00  0.00     0.043 A 
HETATM   13  C   UNK N   1      32.482  21.261  -2.969  0.00  0.00     0.001 A 
HETATM   14  C   UNK N   1      32.471  20.367  -4.066  0.00  0.00     0.002 A 
HETATM   15  C   UNK N   1      31.542  20.533  -5.105  0.00  0.00     0.030 A 
HETATM   16  N   UNK N   1      29.700  21.916  -5.888  0.00  0.00    -0.354 N 
HETATM   17  H   UNK N   1      29.488  21.454  -6.731  0.00  0.00     0.166 HD
ENDBRANCH   5   8
BRANCH   3  18
HETATM   18  O   UNK N   1      25.068  23.978  -8.152  0.00  0.00    -0.354 OA
HETATM   19  C   UNK N   1      25.129  24.234  -9.503  0.00  0.00     0.210 C 
ENDBRANCH   3  18
BRANCH   1  20
HETATM   20  C   UNK N   1      26.815  27.774  -6.288  0.00  0.00     0.040 A 
HETATM   21  N   UNK N   1      27.765  28.464  -6.947  0.00  0.00    -0.359 N 
HETATM   22  C   UNK N   1      28.082  29.522  -6.175  0.00  0.00     0.006 A 
HETATM   23  H   UNK N   1      28.155  28.238  -7.823  0.00  0.00     0.166 HD
HETATM   24  C   UNK N   1      27.349  29.537  -5.013  0.00  0.00     0.033 A 
HETATM   25  C   UNK N   1      29.098  30.539  -6.546  0.00  0.00     0.068 C 
HETATM   26  C   UNK N   1      26.539  28.428  -5.075  0.00  0.00    -0.033 A 
HETATM   27  C   UNK N   1      25.587  28.103  -3.980  0.00  0.00     0.050 C 
ENDBRANCH   1  20
TORSDOF 3
ENDMDL
MODEL 8
REMARK VINA RESULT:      -6.8      4.441      7.576
REMARK  3 active torsions:
REMARK  status: ('A' for Active; 'I' for Inactive)
REMARK    1  A    between atoms: C_6  and  C_7 
REMARK    2  A    between atoms: C_9  and  O_23 
REMARK    3  A    between atoms: C_11  and  C_14 
ROOT
HETATM    1  C   UNK N   1      31.078  16.325   6.889  0.00  0.00     0.062 C 
HETATM    2  C   UNK N   1      29.995  17.105   7.008  0.00  0.00     0.068 A 
HETATM    3  C   UNK N   1      29.438  17.690   8.225  0.00  0.00     0.097 A 
HETATM    4  C   UNK N   1      28.349  18.397   7.869  0.00  0.00     0.071 A 
HETATM    5  C   UNK N   1      28.246  18.233   6.397  0.00  0.00     0.062 A 
HETATM    6  N   UNK N   1      29.188  17.501   5.950  0.00  0.00    -0.352 N 
ATOM      7  HN  UNK N   1      29.328  17.247   4.972  1.00  0.00     0.166 HD
ENDROOT
BRANCH   5   8
HETATM    8  C   UNK N   1      27.250  18.786   5.476  0.00  0.00     0.060 A 
HETATM    9  C   UNK N   1      27.461  19.684   4.432  0.00  0.00     0.045 A 
HETATM   10  C   UNK N   1      26.203  19.871   3.891  0.00  0.00    -0.007 A 
HETATM   11  C   UNK N   1      25.783  20.661   2.824  0.00  0.00     0.014 A 
HETATM   12  C   UNK N   1      25.321  19.110   4.603  0.00  0.00     0.043 A 
HETATM   13  C   UNK N   1      24.411  20.649   2.499  0.00  0.00     0.001 A 
HETATM   14  C   UNK N   1      23.504  19.856   3.241  0.00  0.00     0.002 A 
HETATM   15  C   UNK N   1      23.962  19.073   4.312  0.00  0.00     0.030 A 
HETATM   16  N   UNK N   1      25.943  18.440   5.575  0.00  0.00    -0.354 N 
HETATM   17  H   UNK N   1      25.538  17.823   6.226  0.00  0.00     0.166 HD
ENDBRANCH   5   8
BRANCH   3  18
HETATM   18  O   UNK N   1      29.937  17.540   9.476  0.00  0.00    -0.354 OA
HETATM   19  C   UNK N   1      29.289  16.814  10.448  0.00  0.00     0.210 C 
ENDBRANCH   3  18
BRANCH   1  20
HETATM   20  C   UNK N   1      31.643  15.729   5.635  0.00  0.00     0.040 A 
HETATM   21  N   UNK N   1      31.483  14.414   5.392  0.00  0.00    -0.359 N 
HETATM   22  C   UNK N   1      32.084  14.163   4.213  0.00  0.00     0.006 A 
HETATM   23  H   UNK N   1      31.019  13.762   5.965  0.00  0.00     0.166 HD
HETATM   24  C   UNK N   1      32.638  15.301   3.675  0.00  0.00     0.033 A 
HETATM   25  C   UNK N   1      32.134  12.820   3.582  0.00  0.00     0.068 C 
HETATM   26  C   UNK N   1      32.362  16.303   4.574  0.00  0.00    -0.033 A 
HETATM   27  C   UNK N   1      32.809  17.701   4.333  0.00  0.00     0.050 C 
ENDBRANCH   1  20
TORSDOF 3
ENDMDL
MODEL 9
REMARK VINA RESULT:      -6.8      3.731      4.615
REMARK  3 active torsions:
REMARK  status: ('A' for Active; 'I' for Inactive)
REMARK    1  A    between atoms: C_6  and  C_7 
REMARK    2  A    between atoms: C_9  and  O_23 
REMARK    3  A    between atoms: C_11  and  C_14 
ROOT
HETATM    1  C   UNK N   1      27.672  17.017   5.597  0.00  0.00     0.062 C 
HETATM    2  C   UNK N   1      26.559  16.286   5.744  0.00  0.00     0.068 A 
HETATM    3  C   UNK N   1      25.517  16.024   4.754  0.00  0.00     0.097 A 
HETATM    4  C   UNK N   1      24.592  15.243   5.341  0.00  0.00     0.071 A 
HETATM    5  C   UNK N   1      25.088  15.027   6.723  0.00  0.00     0.062 A 
HETATM    6  N   UNK N   1      26.195  15.628   6.912  0.00  0.00    -0.352 N 
ATOM      7  HN  UNK N   1      26.729  15.627   7.781  1.00  0.00     0.166 HD
ENDROOT
BRANCH   5   8
HETATM    8  C   UNK N   1      24.482  14.252   7.809  0.00  0.00     0.060 A 
HETATM    9  C   UNK N   1      25.135  13.539   8.812  0.00  0.00     0.045 A 
HETATM   10  C   UNK N   1      24.107  13.001   9.565  0.00  0.00    -0.007 A 
HETATM   11  C   UNK N   1      24.139  12.194  10.698  0.00  0.00     0.014 A 
HETATM   12  C   UNK N   1      22.926  13.398   9.006  0.00  0.00     0.043 A 
HETATM   13  C   UNK N   1      22.907  11.795  11.255  0.00  0.00     0.001 A 
HETATM   14  C   UNK N   1      21.687  12.211  10.671  0.00  0.00     0.002 A 
HETATM   15  C   UNK N   1      21.691  13.025   9.527  0.00  0.00     0.030 A 
HETATM   16  N   UNK N   1      23.135  14.163   7.933  0.00  0.00    -0.354 N 
HETATM   17  H   UNK N   1      22.456  14.575   7.354  0.00  0.00     0.166 HD
ENDBRANCH   5   8
BRANCH   3  18
HETATM   18  O   UNK N   1      25.500  16.490   3.481  0.00  0.00    -0.354 OA
HETATM   19  C   UNK N   1      25.884  15.720   2.408  0.00  0.00     0.210 C 
ENDBRANCH   3  18
BRANCH   1  20
HETATM   20  C   UNK N   1      28.735  17.279   6.619  0.00  0.00     0.040 A 
HETATM   21  N   UNK N   1      28.412  17.889   7.775  0.00  0.00    -0.359 N 
HETATM   22  C   UNK N   1      29.550  17.992   8.490  0.00  0.00     0.006 A 
HETATM   23  H   UNK N   1      27.518  18.201   8.046  0.00  0.00     0.166 HD
HETATM   24  C   UNK N   1      30.621  17.455   7.816  0.00  0.00     0.033 A 
HETATM   25  C   UNK N   1      29.624  18.611   9.838  0.00  0.00     0.068 C 
HETATM   26  C   UNK N   1      30.112  16.998   6.623  0.00  0.00    -0.033 A 
HETATM   27  C   UNK N   1      30.984  16.343   5.612  0.00  0.00     0.050 C 
ENDBRANCH   1  20
TORSDOF 3
ENDMDL
