MODEL 1
REMARK VINA RESULT:      -6.3      0.000      0.000
REMARK  5 active torsions:
REMARK  status: ('A' for Active; 'I' for Inactive)
REMARK    1  A    between atoms: C_2  and  C_12 
REMARK    2  A    between atoms: C_12  and  N_13 
REMARK    3  A    between atoms: C_15  and  C_19 
REMARK    4  A    between atoms: C_16  and  O_18 
REMARK    5  A    between atoms: C_19  and  O_20 
ROOT
HETATM    1  C   UNK N   1      22.780  16.043   5.972  0.00  0.00     0.099 A 
HETATM    2  C   UNK N   1      21.832  17.038   6.216  0.00  0.00     0.015 A 
HETATM    3  C   UNK N   1      21.050  16.566   7.240  0.00  0.00     0.075 A 
HETATM    4  C   UNK N   1      21.525  15.342   7.579  0.00  0.00     0.128 A 
HETATM    5  N   UNK N   1      22.585  15.003   6.825  0.00  0.00    -0.359 N 
HETATM    6  C   UNK N   1      20.907  14.609   8.580  0.00  0.00     0.275 A 
HETATM    7  O   UNK N   1      21.309  13.504   8.895  0.00  0.00    -0.266 OA
HETATM    8  N   UNK N   1      19.815  15.165   9.206  0.00  0.00    -0.318 N 
HETATM    9  C   UNK N   1      19.354  16.407   8.846  0.00  0.00     0.184 A 
HETATM   10  N   UNK N   1      19.973  17.118   7.850  0.00  0.00    -0.350 N 
ATOM     11  HN  UNK N   1      19.633  18.040   7.577  1.00  0.00     0.166 HD
HETATM   12  H   UNK N   1      23.111  14.174   6.878  0.00  0.00     0.165 HD
HETATM   13  H   UNK N   1      19.357  14.665   9.921  0.00  0.00     0.169 HD
ENDROOT
BRANCH   2  14
HETATM   14  C   UNK N   1      21.680  18.330   5.458  0.00  0.00     0.315 C 
BRANCH  14  15
HETATM   15  N   UNK N   1      21.575  18.112   4.015  0.00  0.00     0.095 N 
HETATM   16  C   UNK N   1      21.834  19.386   3.336  0.00  0.00     0.282 C 
HETATM   17  C   UNK N   1      20.542  19.814   2.656  0.00  0.00     0.068 C 
HETATM   18  C   UNK N   1      19.847  18.509   2.432  0.00  0.00     0.154 C 
HETATM   19  C   UNK N   1      20.188  17.770   3.690  0.00  0.00     0.304 C 
BRANCH  17  20
HETATM   20  C   UNK N   1      20.780  20.523   1.334  0.00  0.00     0.173 C 
BRANCH  20  21
HETATM   21  O   UNK N   1      20.529  19.659   0.270  0.00  0.00    -0.400 OA
HETATM   22  H   UNK N   1      20.653  19.870  -0.669  0.00  0.00     0.209 HD
ENDBRANCH  20  21
ENDBRANCH  17  20
BRANCH  18  23
HETATM   23  O   UNK N   1      18.468  18.691   2.322  0.00  0.00    -0.393 OA
HETATM   24  H   UNK N   1      17.957  19.400   1.901  0.00  0.00     0.210 HD
ENDBRANCH  18  23
ENDBRANCH  14  15
ENDBRANCH   2  14
TORSDOF 5
ENDMDL
MODEL 2
REMARK VINA RESULT:      -6.3      3.698      5.804
REMARK  5 active torsions:
REMARK  status: ('A' for Active; 'I' for Inactive)
REMARK    1  A    between atoms: C_2  and  C_12 
REMARK    2  A    between atoms: C_12  and  N_13 
REMARK    3  A    between atoms: C_15  and  C_19 
REMARK    4  A    between atoms: C_16  and  O_18 
REMARK    5  A    between atoms: C_19  and  O_20 
ROOT
HETATM    1  C   UNK N   1      20.696  12.425  10.677  0.00  0.00     0.099 A 
HETATM    2  C   UNK N   1      21.455  12.883   9.599  0.00  0.00     0.015 A 
HETATM    3  C   UNK N   1      22.765  12.786   9.997  0.00  0.00     0.075 A 
HETATM    4  C   UNK N   1      22.768  12.289  11.258  0.00  0.00     0.128 A 
HETATM    5  N   UNK N   1      21.518  12.054  11.693  0.00  0.00    -0.359 N 
HETATM    6  C   UNK N   1      23.966  12.105  11.930  0.00  0.00     0.275 A 
HETATM    7  O   UNK N   1      23.993  11.671  13.068  0.00  0.00    -0.266 OA
HETATM    8  N   UNK N   1      25.130  12.438  11.277  0.00  0.00    -0.318 N 
HETATM    9  C   UNK N   1      25.101  12.937   9.998  0.00  0.00     0.184 A 
HETATM   10  N   UNK N   1      23.907  13.118   9.348  0.00  0.00    -0.350 N 
ATOM     11  HN  UNK N   1      23.880  13.491   8.399  1.00  0.00     0.166 HD
HETATM   12  H   UNK N   1      21.252  11.688  12.567  0.00  0.00     0.165 HD
HETATM   13  H   UNK N   1      25.996  12.317  11.732  0.00  0.00     0.169 HD
ENDROOT
BRANCH   2  14
HETATM   14  C   UNK N   1      20.922  13.426   8.300  0.00  0.00     0.315 C 
BRANCH  14  15
HETATM   15  N   UNK N   1      21.420  14.773   8.020  0.00  0.00     0.095 N 
HETATM   16  C   UNK N   1      20.694  15.719   8.876  0.00  0.00     0.282 C 
HETATM   17  C   UNK N   1      19.851  16.602   7.969  0.00  0.00     0.068 C 
HETATM   18  C   UNK N   1      20.608  16.561   6.681  0.00  0.00     0.154 C 
HETATM   19  C   UNK N   1      21.060  15.131   6.646  0.00  0.00     0.304 C 
BRANCH  17  20
HETATM   20  C   UNK N   1      19.741  18.030   8.476  0.00  0.00     0.173 C 
BRANCH  20  21
HETATM   21  O   UNK N   1      20.587  18.867   7.749  0.00  0.00    -0.400 OA
HETATM   22  H   UNK N   1      21.362  19.331   8.104  0.00  0.00     0.209 HD
ENDBRANCH  20  21
ENDBRANCH  17  20
BRANCH  18  23
HETATM   23  O   UNK N   1      19.771  16.841   5.600  0.00  0.00    -0.393 OA
HETATM   24  H   UNK N   1      19.734  17.614   5.015  0.00  0.00     0.210 HD
ENDBRANCH  18  23
ENDBRANCH  14  15
ENDBRANCH   2  14
TORSDOF 5
ENDMDL
MODEL 3
REMARK VINA RESULT:      -6.0     14.032     15.655
REMARK  5 active torsions:
REMARK  status: ('A' for Active; 'I' for Inactive)
REMARK    1  A    between atoms: C_2  and  C_12 
REMARK    2  A    between atoms: C_12  and  N_13 
REMARK    3  A    between atoms: C_15  and  C_19 
REMARK    4  A    between atoms: C_16  and  O_18 
REMARK    5  A    between atoms: C_19  and  O_20 
ROOT
HETATM    1  C   UNK N   1      34.775  12.823  11.228  0.00  0.00     0.099 A 
HETATM    2  C   UNK N   1      35.546  13.972  11.411  0.00  0.00     0.015 A 
HETATM    3  C   UNK N   1      35.881  13.989  12.741  0.00  0.00     0.075 A 
HETATM    4  C   UNK N   1      35.326  12.892  13.312  0.00  0.00     0.128 A 
HETATM    5  N   UNK N   1      34.651  12.160  12.407  0.00  0.00    -0.359 N 
HETATM    6  C   UNK N   1      35.480  12.661  14.669  0.00  0.00     0.275 A 
HETATM    7  O   UNK N   1      34.982  11.687  15.205  0.00  0.00    -0.266 OA
HETATM    8  N   UNK N   1      36.208  13.571  15.400  0.00  0.00    -0.318 N 
HETATM    9  C   UNK N   1      36.762  14.674  14.799  0.00  0.00     0.184 A 
HETATM   10  N   UNK N   1      36.597  14.892  13.455  0.00  0.00    -0.350 N 
ATOM     11  HN  UNK N   1      37.004  15.711  13.005  1.00  0.00     0.166 HD
HETATM   12  H   UNK N   1      34.168  11.318  12.567  0.00  0.00     0.165 HD
HETATM   13  H   UNK N   1      36.334  13.430  16.367  0.00  0.00     0.169 HD
ENDROOT
BRANCH   2  14
HETATM   14  C   UNK N   1      35.878  14.999  10.360  0.00  0.00     0.315 C 
BRANCH  14  15
HETATM   15  N   UNK N   1      34.696  15.747   9.930  0.00  0.00     0.095 N 
HETATM   16  C   UNK N   1      34.431  15.419   8.524  0.00  0.00     0.282 C 
HETATM   17  C   UNK N   1      34.662  16.682   7.708  0.00  0.00     0.068 C 
HETATM   18  C   UNK N   1      34.406  17.764   8.707  0.00  0.00     0.154 C 
HETATM   19  C   UNK N   1      35.013  17.177   9.945  0.00  0.00     0.304 C 
BRANCH  17  20
HETATM   20  C   UNK N   1      33.706  16.806   6.533  0.00  0.00     0.173 C 
BRANCH  20  21
HETATM   21  O   UNK N   1      34.049  17.903   5.745  0.00  0.00    -0.400 OA
HETATM   22  H   UNK N   1      33.644  18.134   4.894  0.00  0.00     0.209 HD
ENDBRANCH  20  21
ENDBRANCH  17  20
BRANCH  18  23
HETATM   23  O   UNK N   1      35.061  18.942   8.345  0.00  0.00    -0.393 OA
HETATM   24  H   UNK N   1      35.900  19.079   7.877  0.00  0.00     0.210 HD
ENDBRANCH  18  23
ENDBRANCH  14  15
ENDBRANCH   2  14
TORSDOF 5
ENDMDL
MODEL 4
REMARK VINA RESULT:      -5.9      1.752      6.716
REMARK  5 active torsions:
REMARK  status: ('A' for Active; 'I' for Inactive)
REMARK    1  A    between atoms: C_2  and  C_12 
REMARK    2  A    between atoms: C_12  and  N_13 
REMARK    3  A    between atoms: C_15  and  C_19 
REMARK    4  A    between atoms: C_16  and  O_18 
REMARK    5  A    between atoms: C_19  and  O_20 
ROOT
HETATM    1  C   UNK N   1      23.155  18.003   4.727  0.00  0.00     0.099 A 
HETATM    2  C   UNK N   1      21.941  17.315   4.697  0.00  0.00     0.015 A 
HETATM    3  C   UNK N   1      21.133  18.020   3.842  0.00  0.00     0.075 A 
HETATM    4  C   UNK N   1      21.849  19.079   3.390  0.00  0.00     0.128 A 
HETATM    5  N   UNK N   1      23.089  19.087   3.910  0.00  0.00    -0.359 N 
HETATM    6  C   UNK N   1      21.271  19.989   2.520  0.00  0.00     0.275 A 
HETATM    7  O   UNK N   1      21.892  20.954   2.109  0.00  0.00    -0.266 OA
HETATM    8  N   UNK N   1      19.967  19.778   2.137  0.00  0.00    -0.318 N 
HETATM    9  C   UNK N   1      19.263  18.696   2.607  0.00  0.00     0.184 A 
HETATM   10  N   UNK N   1      19.847  17.806   3.471  0.00  0.00    -0.350 N 
ATOM     11  HN  UNK N   1      19.327  17.004   3.825  1.00  0.00     0.166 HD
HETATM   12  H   UNK N   1      23.802  19.742   3.735  0.00  0.00     0.165 HD
HETATM   13  H   UNK N   1      19.532  20.409   1.519  0.00  0.00     0.169 HD
ENDROOT
BRANCH   2  14
HETATM   14  C   UNK N   1      21.593  16.087   5.496  0.00  0.00     0.315 C 
BRANCH  14  15
HETATM   15  N   UNK N   1      21.664  16.329   6.937  0.00  0.00     0.095 N 
HETATM   16  C   UNK N   1      21.878  15.044   7.611  0.00  0.00     0.282 C 
HETATM   17  C   UNK N   1      20.634  14.744   8.432  0.00  0.00     0.068 C 
HETATM   18  C   UNK N   1      20.088  16.109   8.702  0.00  0.00     0.154 C 
HETATM   19  C   UNK N   1      20.356  16.801   7.399  0.00  0.00     0.304 C 
BRANCH  17  20
HETATM   20  C   UNK N   1      20.948  14.030   9.736  0.00  0.00     0.173 C 
BRANCH  20  21
HETATM   21  O   UNK N   1      19.803  13.414  10.238  0.00  0.00    -0.400 OA
HETATM   22  H   UNK N   1      19.143  13.834  10.813  0.00  0.00     0.209 HD
ENDBRANCH  20  21
ENDBRANCH  17  20
BRANCH  18  23
HETATM   23  O   UNK N   1      18.717  16.055   8.961  0.00  0.00    -0.393 OA
HETATM   24  H   UNK N   1      18.085  15.326   8.865  0.00  0.00     0.210 HD
ENDBRANCH  18  23
ENDBRANCH  14  15
ENDBRANCH   2  14
TORSDOF 5
ENDMDL
MODEL 5
REMARK VINA RESULT:      -5.9     10.092     11.830
REMARK  5 active torsions:
REMARK  status: ('A' for Active; 'I' for Inactive)
REMARK    1  A    between atoms: C_2  and  C_12 
REMARK    2  A    between atoms: C_12  and  N_13 
REMARK    3  A    between atoms: C_15  and  C_19 
REMARK    4  A    between atoms: C_16  and  O_18 
REMARK    5  A    between atoms: C_19  and  O_20 
ROOT
HETATM    1  C   UNK N   1      33.587  17.894   7.193  0.00  0.00     0.099 A 
HETATM    2  C   UNK N   1      32.727  16.853   7.546  0.00  0.00     0.015 A 
HETATM    3  C   UNK N   1      33.218  16.345   8.722  0.00  0.00     0.075 A 
HETATM    4  C   UNK N   1      34.322  17.064   9.043  0.00  0.00     0.128 A 
HETATM    5  N   UNK N   1      34.564  18.020   8.129  0.00  0.00    -0.359 N 
HETATM    6  C   UNK N   1      35.046  16.754  10.183  0.00  0.00     0.275 A 
HETATM    7  O   UNK N   1      36.047  17.379  10.485  0.00  0.00    -0.266 OA
HETATM    8  N   UNK N   1      34.607  15.709  10.963  0.00  0.00    -0.318 N 
HETATM    9  C   UNK N   1      33.484  14.997  10.617  0.00  0.00     0.184 A 
HETATM   10  N   UNK N   1      32.780  15.313   9.484  0.00  0.00    -0.350 N 
ATOM     11  HN  UNK N   1      31.948  14.786   9.222  1.00  0.00     0.166 HD
HETATM   12  H   UNK N   1      35.297  18.676   8.136  0.00  0.00     0.165 HD
HETATM   13  H   UNK N   1      35.103  15.468  11.779  0.00  0.00     0.169 HD
ENDROOT
BRANCH   2  14
HETATM   14  C   UNK N   1      31.545  16.365   6.750  0.00  0.00     0.315 C 
BRANCH  14  15
HETATM   15  N   UNK N   1      30.484  17.369   6.671  0.00  0.00     0.095 N 
HETATM   16  C   UNK N   1      30.187  17.834   8.031  0.00  0.00     0.282 C 
HETATM   17  C   UNK N   1      28.774  17.385   8.369  0.00  0.00     0.068 C 
HETATM   18  C   UNK N   1      28.134  17.282   7.022  0.00  0.00     0.154 C 
HETATM   19  C   UNK N   1      29.257  16.721   6.202  0.00  0.00     0.304 C 
BRANCH  17  20
HETATM   20  C   UNK N   1      28.029  18.388   9.235  0.00  0.00     0.173 C 
BRANCH  20  21
HETATM   21  O   UNK N   1      27.296  19.264   8.437  0.00  0.00    -0.400 OA
HETATM   22  H   UNK N   1      26.331  19.361   8.447  0.00  0.00     0.209 HD
ENDBRANCH  20  21
ENDBRANCH  17  20
BRANCH  18  23
HETATM   23  O   UNK N   1      27.052  16.402   7.049  0.00  0.00    -0.393 OA
HETATM   24  H   UNK N   1      26.806  15.725   7.698  0.00  0.00     0.210 HD
ENDBRANCH  18  23
ENDBRANCH  14  15
ENDBRANCH   2  14
TORSDOF 5
ENDMDL
MODEL 6
REMARK VINA RESULT:      -5.8      3.363      4.949
REMARK  5 active torsions:
REMARK  status: ('A' for Active; 'I' for Inactive)
REMARK    1  A    between atoms: C_2  and  C_12 
REMARK    2  A    between atoms: C_12  and  N_13 
REMARK    3  A    between atoms: C_15  and  C_19 
REMARK    4  A    between atoms: C_16  and  O_18 
REMARK    5  A    between atoms: C_19  and  O_20 
ROOT
HETATM    1  C   UNK N   1      24.695  13.303   8.987  0.00  0.00     0.099 A 
HETATM    2  C   UNK N   1      23.344  13.318   8.634  0.00  0.00     0.015 A 
HETATM    3  C   UNK N   1      22.665  12.865   9.736  0.00  0.00     0.075 A 
HETATM    4  C   UNK N   1      23.585  12.596  10.696  0.00  0.00     0.128 A 
HETATM    5  N   UNK N   1      24.831  12.862  10.265  0.00  0.00    -0.359 N 
HETATM    6  C   UNK N   1      23.183  12.095  11.923  0.00  0.00     0.275 A 
HETATM    7  O   UNK N   1      23.993  11.836  12.796  0.00  0.00    -0.266 OA
HETATM    8  N   UNK N   1      21.839  11.887  12.127  0.00  0.00    -0.318 N 
HETATM    9  C   UNK N   1      20.926  12.168  11.141  0.00  0.00     0.184 A 
HETATM   10  N   UNK N   1      21.339  12.660   9.929  0.00  0.00    -0.350 N 
ATOM     11  HN  UNK N   1      20.665  12.868   9.192  1.00  0.00     0.166 HD
HETATM   12  H   UNK N   1      25.668  12.759  10.771  0.00  0.00     0.165 HD
HETATM   13  H   UNK N   1      21.526  11.531  12.991  0.00  0.00     0.169 HD
ENDROOT
BRANCH   2  14
HETATM   14  C   UNK N   1      22.778  13.699   7.292  0.00  0.00     0.315 C 
BRANCH  14  15
HETATM   15  N   UNK N   1      21.947  14.901   7.367  0.00  0.00     0.095 N 
HETATM   16  C   UNK N   1      20.609  14.568   6.865  0.00  0.00     0.282 C 
HETATM   17  C   UNK N   1      20.394  15.350   5.579  0.00  0.00     0.068 C 
HETATM   18  C   UNK N   1      21.296  16.529   5.762  0.00  0.00     0.154 C 
HETATM   19  C   UNK N   1      22.478  15.898   6.434  0.00  0.00     0.304 C 
BRANCH  17  20
HETATM   20  C   UNK N   1      18.956  15.805   5.400  0.00  0.00     0.173 C 
BRANCH  20  21
HETATM   21  O   UNK N   1      18.840  16.612   4.269  0.00  0.00    -0.400 OA
HETATM   22  H   UNK N   1      18.999  16.326   3.356  0.00  0.00     0.209 HD
ENDBRANCH  20  21
ENDBRANCH  17  20
BRANCH  18  23
HETATM   23  O   UNK N   1      21.659  17.076   4.531  0.00  0.00    -0.393 OA
HETATM   24  H   UNK N   1      21.204  17.722   3.968  0.00  0.00     0.210 HD
ENDBRANCH  18  23
ENDBRANCH  14  15
ENDBRANCH   2  14
TORSDOF 5
ENDMDL
MODEL 7
REMARK VINA RESULT:      -5.6      2.282      6.814
REMARK  5 active torsions:
REMARK  status: ('A' for Active; 'I' for Inactive)
REMARK    1  A    between atoms: C_2  and  C_12 
REMARK    2  A    between atoms: C_12  and  N_13 
REMARK    3  A    between atoms: C_15  and  C_19 
REMARK    4  A    between atoms: C_16  and  O_18 
REMARK    5  A    between atoms: C_19  and  O_20 
ROOT
HETATM    1  C   UNK N   1      20.800  18.316   3.838  0.00  0.00     0.099 A 
HETATM    2  C   UNK N   1      21.679  17.603   4.654  0.00  0.00     0.015 A 
HETATM    3  C   UNK N   1      22.888  18.243   4.550  0.00  0.00     0.075 A 
HETATM    4  C   UNK N   1      22.720  19.290   3.705  0.00  0.00     0.128 A 
HETATM    5  N   UNK N   1      21.452  19.360   3.262  0.00  0.00    -0.359 N 
HETATM    6  C   UNK N   1      23.792  20.109   3.390  0.00  0.00     0.275 A 
HETATM    7  O   UNK N   1      23.666  21.048   2.625  0.00  0.00    -0.266 OA
HETATM    8  N   UNK N   1      25.011  19.824   3.961  0.00  0.00    -0.318 N 
HETATM    9  C   UNK N   1      25.156  18.760   4.816  0.00  0.00     0.184 A 
HETATM   10  N   UNK N   1      24.086  17.955   5.115  0.00  0.00    -0.350 N 
ATOM     11  HN  UNK N   1      24.190  17.162   5.747  1.00  0.00     0.166 HD
HETATM   12  H   UNK N   1      21.074  20.029   2.648  0.00  0.00     0.165 HD
HETATM   13  H   UNK N   1      25.790  20.391   3.754  0.00  0.00     0.169 HD
ENDROOT
BRANCH   2  14
HETATM   14  C   UNK N   1      21.358  16.354   5.433  0.00  0.00     0.315 C 
BRANCH  14  15
HETATM   15  N   UNK N   1      21.495  16.556   6.876  0.00  0.00     0.095 N 
HETATM   16  C   UNK N   1      21.795  15.260   7.495  0.00  0.00     0.282 C 
HETATM   17  C   UNK N   1      20.608  14.885   8.369  0.00  0.00     0.068 C 
HETATM   18  C   UNK N   1      20.024  16.217   8.711  0.00  0.00     0.154 C 
HETATM   19  C   UNK N   1      20.197  16.959   7.420  0.00  0.00     0.304 C 
BRANCH  17  20
HETATM   20  C   UNK N   1      21.017  14.144   9.631  0.00  0.00     0.173 C 
BRANCH  20  21
HETATM   21  O   UNK N   1      19.909  13.528  10.211  0.00  0.00    -0.400 OA
HETATM   22  H   UNK N   1      19.893  12.630  10.578  0.00  0.00     0.209 HD
ENDBRANCH  20  21
ENDBRANCH  17  20
BRANCH  18  23
HETATM   23  O   UNK N   1      18.672  16.101   9.038  0.00  0.00    -0.393 OA
HETATM   24  H   UNK N   1      17.894  15.983   8.470  0.00  0.00     0.210 HD
ENDBRANCH  18  23
ENDBRANCH  14  15
ENDBRANCH   2  14
TORSDOF 5
ENDMDL
MODEL 8
REMARK VINA RESULT:      -5.5      9.070     11.398
REMARK  5 active torsions:
REMARK  status: ('A' for Active; 'I' for Inactive)
REMARK    1  A    between atoms: C_2  and  C_12 
REMARK    2  A    between atoms: C_12  and  N_13 
REMARK    3  A    between atoms: C_15  and  C_19 
REMARK    4  A    between atoms: C_16  and  O_18 
REMARK    5  A    between atoms: C_19  and  O_20 
ROOT
HETATM    1  C   UNK N   1      28.691  18.320   8.717  0.00  0.00     0.099 A 
HETATM    2  C   UNK N   1      29.255  17.906   7.508  0.00  0.00     0.015 A 
HETATM    3  C   UNK N   1      28.626  18.637   6.533  0.00  0.00     0.075 A 
HETATM    4  C   UNK N   1      27.730  19.447   7.150  0.00  0.00     0.128 A 
HETATM    5  N   UNK N   1      27.756  19.277   8.483  0.00  0.00    -0.359 N 
HETATM    6  C   UNK N   1      26.925  20.291   6.402  0.00  0.00     0.275 A 
HETATM    7  O   UNK N   1      26.107  21.020   6.933  0.00  0.00    -0.266 OA
HETATM    8  N   UNK N   1      27.071  20.277   5.034  0.00  0.00    -0.318 N 
HETATM    9  C   UNK N   1      27.986  19.449   4.432  0.00  0.00     0.184 A 
HETATM   10  N   UNK N   1      28.773  18.616   5.186  0.00  0.00    -0.350 N 
ATOM     11  HN  UNK N   1      29.452  17.997   4.744  1.00  0.00     0.166 HD
HETATM   12  H   UNK N   1      27.211  19.749   9.153  0.00  0.00     0.165 HD
HETATM   13  H   UNK N   1      26.511  20.867   4.478  0.00  0.00     0.169 HD
ENDROOT
BRANCH   2  14
HETATM   14  C   UNK N   1      30.295  16.831   7.332  0.00  0.00     0.315 C 
BRANCH  14  15
HETATM   15  N   UNK N   1      31.202  16.750   8.476  0.00  0.00     0.095 N 
HETATM   16  C   UNK N   1      32.237  17.777   8.318  0.00  0.00     0.282 C 
HETATM   17  C   UNK N   1      33.563  17.062   8.109  0.00  0.00     0.068 C 
HETATM   18  C   UNK N   1      33.336  15.752   8.792  0.00  0.00     0.154 C 
HETATM   19  C   UNK N   1      31.910  15.468   8.425  0.00  0.00     0.304 C 
BRANCH  17  20
HETATM   20  C   UNK N   1      34.733  17.796   8.744  0.00  0.00     0.173 C 
BRANCH  20  21
HETATM   21  O   UNK N   1      34.802  19.102   8.263  0.00  0.00    -0.400 OA
HETATM   22  H   UNK N   1      35.292  19.830   8.678  0.00  0.00     0.209 HD
ENDBRANCH  20  21
ENDBRANCH  17  20
BRANCH  18  23
HETATM   23  O   UNK N   1      34.184  14.769   8.280  0.00  0.00    -0.393 OA
HETATM   24  H   UNK N   1      34.331  14.476   7.367  0.00  0.00     0.210 HD
ENDBRANCH  18  23
ENDBRANCH  14  15
ENDBRANCH   2  14
TORSDOF 5
ENDMDL
MODEL 9
REMARK VINA RESULT:      -5.5      1.904      3.085
REMARK  5 active torsions:
REMARK  status: ('A' for Active; 'I' for Inactive)
REMARK    1  A    between atoms: C_2  and  C_12 
REMARK    2  A    between atoms: C_12  and  N_13 
REMARK    3  A    between atoms: C_15  and  C_19 
REMARK    4  A    between atoms: C_16  and  O_18 
REMARK    5  A    between atoms: C_19  and  O_20 
ROOT
HETATM    1  C   UNK N   1      21.420  15.243   7.073  0.00  0.00     0.099 A 
HETATM    2  C   UNK N   1      21.940  16.291   6.311  0.00  0.00     0.015 A 
HETATM    3  C   UNK N   1      23.287  16.050   6.215  0.00  0.00     0.075 A 
HETATM    4  C   UNK N   1      23.543  14.905   6.894  0.00  0.00     0.128 A 
HETATM    5  N   UNK N   1      22.418  14.389   7.421  0.00  0.00    -0.359 N 
HETATM    6  C   UNK N   1      24.840  14.426   6.988  0.00  0.00     0.275 A 
HETATM    7  O   UNK N   1      25.094  13.405   7.602  0.00  0.00    -0.266 OA
HETATM    8  N   UNK N   1      25.839  15.144   6.373  0.00  0.00    -0.318 N 
HETATM    9  C   UNK N   1      25.555  16.300   5.688  0.00  0.00     0.184 A 
HETATM   10  N   UNK N   1      24.267  16.764   5.608  0.00  0.00    -0.350 N 
ATOM     11  HN  UNK N   1      24.051  17.624   5.103  1.00  0.00     0.166 HD
HETATM   12  H   UNK N   1      22.335  13.564   7.950  0.00  0.00     0.165 HD
HETATM   13  H   UNK N   1      26.770  14.826   6.424  0.00  0.00     0.169 HD
ENDROOT
BRANCH   2  14
HETATM   14  C   UNK N   1      21.170  17.466   5.768  0.00  0.00     0.315 C 
BRANCH  14  15
HETATM   15  N   UNK N   1      21.260  17.556   4.311  0.00  0.00     0.095 N 
HETATM   16  C   UNK N   1      21.664  18.922   3.958  0.00  0.00     0.282 C 
HETATM   17  C   UNK N   1      20.500  19.570   3.226  0.00  0.00     0.068 C 
HETATM   18  C   UNK N   1      19.790  18.391   2.641  0.00  0.00     0.154 C 
HETATM   19  C   UNK N   1      19.920  17.386   3.746  0.00  0.00     0.304 C 
BRANCH  17  20
HETATM   20  C   UNK N   1      20.950  20.517   2.126  0.00  0.00     0.173 C 
BRANCH  20  21
HETATM   21  O   UNK N   1      21.471  21.686   2.679  0.00  0.00    -0.400 OA
HETATM   22  H   UNK N   1      20.951  22.456   2.960  0.00  0.00     0.209 HD
ENDBRANCH  20  21
ENDBRANCH  17  20
BRANCH  18  23
HETATM   23  O   UNK N   1      18.448  18.688   2.396  0.00  0.00    -0.393 OA
HETATM   24  H   UNK N   1      17.938  19.494   2.572  0.00  0.00     0.210 HD
ENDBRANCH  18  23
ENDBRANCH  14  15
ENDBRANCH   2  14
TORSDOF 5
ENDMDL
