MODEL 1
REMARK VINA RESULT:      -6.4      0.000      0.000
REMARK  11 active torsions:
REMARK  status: ('A' for Active; 'I' for Inactive)
REMARK    1  A    between atoms: C_12  and  C_9 
REMARK    2  A    between atoms: C_13  and  C_9 
REMARK    3  A    between atoms: C_14  and  C_10 
REMARK    4  A    between atoms: C_15  and  C_10 
REMARK    5  A    between atoms: C_16  and  C_11 
REMARK    6  A    between atoms: C_17  and  C_11 
REMARK    7  A    between atoms: C_23  and  C_13 
REMARK    8  A    between atoms: C_24  and  C_15 
REMARK    9  A    between atoms: C_25  and  C_17 
REMARK   10  A    between atoms: C_21  and  C_20 
REMARK   11  A    between atoms: C_27  and  C_21 
ROOT
HETATM    1  C   UNK N   1      25.581  24.975  -4.938  0.00  0.00     0.043 C 
HETATM    2  C   UNK N   1      27.556  25.062  -3.430  0.00  0.00    -0.020 C 
HETATM    3  C   UNK N   1      26.519  25.687  -4.009  0.00  0.00    -0.087 C 
ENDROOT
BRANCH   3   4
HETATM    4  C   UNK N   1      26.173  27.055  -3.570  0.00  0.00     0.037 C 
BRANCH   4   5
HETATM    5  C   UNK N   1      25.816  27.752  -4.873  0.00  0.00     0.031 C 
BRANCH   5   6
HETATM    6  C   UNK N   1      26.756  28.855  -5.189  0.00  0.00    -0.024 C 
HETATM    7  C   UNK N   1      27.665  28.724  -6.162  0.00  0.00    -0.087 C 
HETATM    8  C   UNK N   1      27.786  27.448  -6.936  0.00  0.00     0.043 C 
BRANCH   7   9
HETATM    9  C   UNK N   1      28.562  29.863  -6.504  0.00  0.00     0.037 C 
BRANCH   9  10
HETATM   10  C   UNK N   1      29.237  30.383  -5.242  0.00  0.00     0.031 C 
BRANCH  10  11
HETATM   11  C   UNK N   1      30.220  29.373  -4.729  0.00  0.00    -0.024 C 
HETATM   12  C   UNK N   1      30.155  28.871  -3.473  0.00  0.00    -0.087 C 
HETATM   13  C   UNK N   1      29.077  29.290  -2.530  0.00  0.00     0.043 C 
BRANCH  12  14
HETATM   14  C   UNK N   1      31.136  27.866  -2.938  0.00  0.00     0.037 C 
BRANCH  14  15
HETATM   15  C   UNK N   1      30.910  26.409  -3.313  0.00  0.00     0.031 C 
BRANCH  15  16
HETATM   16  C   UNK N   1      30.742  26.144  -4.793  0.00  0.00    -0.024 C 
HETATM   17  C   UNK N   1      31.575  25.514  -5.644  0.00  0.00    -0.091 C 
HETATM   18  C   UNK N   1      31.164  25.384  -7.068  0.00  0.00     0.042 C 
HETATM   19  C   UNK N   1      32.900  24.946  -5.248  0.00  0.00     0.042 C 
ENDBRANCH  15  16
ENDBRANCH  14  15
ENDBRANCH  12  14
ENDBRANCH  10  11
ENDBRANCH   9  10
ENDBRANCH   7   9
ENDBRANCH   5   6
ENDBRANCH   4   5
ENDBRANCH   3   4
BRANCH   2  20
HETATM   20  C   UNK N   1      27.707  23.596  -3.620  0.00  0.00     0.070 C 
BRANCH  20  21
HETATM   21  C   UNK N   1      29.030  23.052  -4.057  0.00  0.00     0.006 A 
HETATM   22  C   UNK N   1      29.174  22.689  -5.347  0.00  0.00    -0.001 A 
HETATM   23  C   UNK N   1      28.069  22.929  -6.340  0.00  0.00     0.053 C 
HETATM   24  C   UNK N   1      30.399  21.992  -5.807  0.00  0.00     0.189 A 
HETATM   25  C   UNK N   1      31.451  21.639  -4.830  0.00  0.00     0.029 A 
HETATM   26  O   UNK N   1      30.506  21.660  -6.975  0.00  0.00    -0.287 OA
HETATM   27  C   UNK N   1      32.564  20.888  -5.233  0.00  0.00     0.016 A 
HETATM   28  C   UNK N   1      31.322  22.037  -3.490  0.00  0.00     0.029 A 
HETATM   29  C   UNK N   1      33.545  20.535  -4.303  0.00  0.00     0.001 A 
HETATM   30  C   UNK N   1      33.424  20.938  -2.971  0.00  0.00     0.001 A 
HETATM   31  C   UNK N   1      32.316  21.687  -2.562  0.00  0.00     0.016 A 
HETATM   32  C   UNK N   1      30.116  22.790  -3.063  0.00  0.00     0.190 A 
HETATM   33  O   UNK N   1      29.995  23.149  -1.903  0.00  0.00    -0.287 OA
ENDBRANCH  20  21
ENDBRANCH   2  20
TORSDOF 11
ENDMDL
MODEL 2
REMARK VINA RESULT:      -6.3      1.199      2.838
REMARK  11 active torsions:
REMARK  status: ('A' for Active; 'I' for Inactive)
REMARK    1  A    between atoms: C_12  and  C_9 
REMARK    2  A    between atoms: C_13  and  C_9 
REMARK    3  A    between atoms: C_14  and  C_10 
REMARK    4  A    between atoms: C_15  and  C_10 
REMARK    5  A    between atoms: C_16  and  C_11 
REMARK    6  A    between atoms: C_17  and  C_11 
REMARK    7  A    between atoms: C_23  and  C_13 
REMARK    8  A    between atoms: C_24  and  C_15 
REMARK    9  A    between atoms: C_25  and  C_17 
REMARK   10  A    between atoms: C_21  and  C_20 
REMARK   11  A    between atoms: C_27  and  C_21 
ROOT
HETATM    1  C   UNK N   1      27.414  23.556  -8.438  0.00  0.00     0.043 C 
HETATM    2  C   UNK N   1      28.469  24.560  -6.422  0.00  0.00    -0.020 C 
HETATM    3  C   UNK N   1      28.043  24.693  -7.688  0.00  0.00    -0.087 C 
ENDROOT
BRANCH   3   4
HETATM    4  C   UNK N   1      28.011  26.041  -8.294  0.00  0.00     0.037 C 
BRANCH   4   5
HETATM    5  C   UNK N   1      26.626  26.548  -7.928  0.00  0.00     0.031 C 
BRANCH   5   6
HETATM    6  C   UNK N   1      26.669  27.532  -6.819  0.00  0.00    -0.024 C 
HETATM    7  C   UNK N   1      26.038  27.293  -5.665  0.00  0.00    -0.087 C 
HETATM    8  C   UNK N   1      25.239  26.041  -5.469  0.00  0.00     0.043 C 
BRANCH   7   9
HETATM    9  C   UNK N   1      26.138  28.267  -4.541  0.00  0.00     0.037 C 
BRANCH   9  10
HETATM   10  C   UNK N   1      26.990  27.676  -3.425  0.00  0.00     0.031 C 
BRANCH  10  11
HETATM   11  C   UNK N   1      28.365  27.363  -3.935  0.00  0.00    -0.024 C 
HETATM   12  C   UNK N   1      29.460  28.053  -3.539  0.00  0.00    -0.087 C 
HETATM   13  C   UNK N   1      29.354  29.164  -2.549  0.00  0.00     0.043 C 
BRANCH  12  14
HETATM   14  C   UNK N   1      30.844  27.760  -4.046  0.00  0.00     0.037 C 
BRANCH  14  15
HETATM   15  C   UNK N   1      31.294  26.306  -4.032  0.00  0.00     0.031 C 
BRANCH  15  16
HETATM   16  C   UNK N   1      31.412  25.657  -5.395  0.00  0.00    -0.024 C 
HETATM   17  C   UNK N   1      32.371  24.834  -5.863  0.00  0.00    -0.091 C 
HETATM   18  C   UNK N   1      32.247  24.327  -7.256  0.00  0.00     0.042 C 
HETATM   19  C   UNK N   1      33.566  24.408  -5.071  0.00  0.00     0.042 C 
ENDBRANCH  15  16
ENDBRANCH  14  15
ENDBRANCH  12  14
ENDBRANCH  10  11
ENDBRANCH   9  10
ENDBRANCH   7   9
ENDBRANCH   5   6
ENDBRANCH   4   5
ENDBRANCH   3   4
BRANCH   2  20
HETATM   20  C   UNK N   1      28.199  23.287  -5.705  0.00  0.00     0.070 C 
BRANCH  20  21
HETATM   21  C   UNK N   1      29.294  22.659  -4.902  0.00  0.00     0.006 A 
HETATM   22  C   UNK N   1      29.421  23.019  -3.609  0.00  0.00    -0.001 A 
HETATM   23  C   UNK N   1      28.422  23.943  -2.968  0.00  0.00     0.053 C 
HETATM   24  C   UNK N   1      30.580  22.563  -2.805  0.00  0.00     0.189 A 
HETATM   25  C   UNK N   1      31.638  21.749  -3.442  0.00  0.00     0.029 A 
HETATM   26  O   UNK N   1      30.686  22.908  -1.641  0.00  0.00    -0.287 OA
HETATM   27  C   UNK N   1      32.789  21.400  -2.721  0.00  0.00     0.016 A 
HETATM   28  C   UNK N   1      31.500  21.347  -4.780  0.00  0.00     0.029 A 
HETATM   29  C   UNK N   1      33.798  20.653  -3.332  0.00  0.00     0.001 A 
HETATM   30  C   UNK N   1      33.659  20.242  -4.660  0.00  0.00     0.001 A 
HETATM   31  C   UNK N   1      32.514  20.587  -5.385  0.00  0.00     0.016 A 
HETATM   32  C   UNK N   1      30.301  21.762  -5.549  0.00  0.00     0.190 A 
HETATM   33  O   UNK N   1      30.164  21.412  -6.710  0.00  0.00    -0.287 OA
ENDBRANCH  20  21
ENDBRANCH   2  20
TORSDOF 11
ENDMDL
MODEL 3
REMARK VINA RESULT:      -6.2      2.329      6.366
REMARK  11 active torsions:
REMARK  status: ('A' for Active; 'I' for Inactive)
REMARK    1  A    between atoms: C_12  and  C_9 
REMARK    2  A    between atoms: C_13  and  C_9 
REMARK    3  A    between atoms: C_14  and  C_10 
REMARK    4  A    between atoms: C_15  and  C_10 
REMARK    5  A    between atoms: C_16  and  C_11 
REMARK    6  A    between atoms: C_17  and  C_11 
REMARK    7  A    between atoms: C_23  and  C_13 
REMARK    8  A    between atoms: C_24  and  C_15 
REMARK    9  A    between atoms: C_25  and  C_17 
REMARK   10  A    between atoms: C_21  and  C_20 
REMARK   11  A    between atoms: C_27  and  C_21 
ROOT
HETATM    1  C   UNK N   1      25.968  25.302  -7.877  0.00  0.00     0.043 C 
HETATM    2  C   UNK N   1      25.400  25.923  -5.536  0.00  0.00    -0.020 C 
HETATM    3  C   UNK N   1      25.663  24.971  -6.446  0.00  0.00    -0.087 C 
ENDROOT
BRANCH   3   4
HETATM    4  C   UNK N   1      25.850  23.578  -5.989  0.00  0.00     0.037 C 
BRANCH   4   5
HETATM    5  C   UNK N   1      27.362  23.434  -5.939  0.00  0.00     0.031 C 
BRANCH   5   6
HETATM    6  C   UNK N   1      27.961  24.236  -4.845  0.00  0.00    -0.024 C 
HETATM    7  C   UNK N   1      29.000  25.046  -5.078  0.00  0.00    -0.087 C 
HETATM    8  C   UNK N   1      29.611  25.142  -6.442  0.00  0.00     0.043 C 
BRANCH   7   9
HETATM    9  C   UNK N   1      29.553  25.887  -3.979  0.00  0.00     0.037 C 
BRANCH   9  10
HETATM   10  C   UNK N   1      30.905  25.338  -3.543  0.00  0.00     0.031 C 
BRANCH  10  11
HETATM   11  C   UNK N   1      30.770  23.903  -3.128  0.00  0.00    -0.024 C 
HETATM   12  C   UNK N   1      31.546  22.922  -3.646  0.00  0.00    -0.087 C 
HETATM   13  C   UNK N   1      32.600  23.226  -4.658  0.00  0.00     0.043 C 
BRANCH  12  14
HETATM   14  C   UNK N   1      31.419  21.478  -3.249  0.00  0.00     0.037 C 
BRANCH  14  15
HETATM   15  C   UNK N   1      31.320  20.456  -4.372  0.00  0.00     0.031 C 
BRANCH  15  16
HETATM   16  C   UNK N   1      30.265  20.750  -5.418  0.00  0.00    -0.024 C 
HETATM   17  C   UNK N   1      30.283  20.487  -6.739  0.00  0.00    -0.091 C 
HETATM   18  C   UNK N   1      29.101  20.881  -7.553  0.00  0.00     0.042 C 
HETATM   19  C   UNK N   1      31.427  19.832  -7.445  0.00  0.00     0.042 C 
ENDBRANCH  15  16
ENDBRANCH  14  15
ENDBRANCH  12  14
ENDBRANCH  10  11
ENDBRANCH   9  10
ENDBRANCH   7   9
ENDBRANCH   5   6
ENDBRANCH   4   5
ENDBRANCH   3   4
BRANCH   2  20
HETATM   20  C   UNK N   1      25.536  27.348  -5.933  0.00  0.00     0.070 C 
BRANCH  20  21
HETATM   21  C   UNK N   1      26.617  28.176  -5.312  0.00  0.00     0.006 A 
HETATM   22  C   UNK N   1      27.693  28.483  -6.063  0.00  0.00    -0.001 A 
HETATM   23  C   UNK N   1      27.751  28.096  -7.515  0.00  0.00     0.053 C 
HETATM   24  C   UNK N   1      28.870  29.156  -5.462  0.00  0.00     0.189 A 
HETATM   25  C   UNK N   1      28.888  29.443  -4.012  0.00  0.00     0.029 A 
HETATM   26  O   UNK N   1      29.840  29.415  -6.153  0.00  0.00    -0.287 OA
HETATM   27  C   UNK N   1      30.036  29.982  -3.414  0.00  0.00     0.016 A 
HETATM   28  C   UNK N   1      27.760  29.151  -3.227  0.00  0.00     0.029 A 
HETATM   29  C   UNK N   1      30.059  30.230  -2.040  0.00  0.00     0.001 A 
HETATM   30  C   UNK N   1      28.935  29.950  -1.259  0.00  0.00     0.001 A 
HETATM   31  C   UNK N   1      27.787  29.412  -1.848  0.00  0.00     0.016 A 
HETATM   32  C   UNK N   1      26.568  28.536  -3.861  0.00  0.00     0.190 A 
HETATM   33  O   UNK N   1      25.578  28.285  -3.193  0.00  0.00    -0.287 OA
ENDBRANCH  20  21
ENDBRANCH   2  20
TORSDOF 11
ENDMDL
MODEL 4
REMARK VINA RESULT:      -6.2      2.689      7.548
REMARK  11 active torsions:
REMARK  status: ('A' for Active; 'I' for Inactive)
REMARK    1  A    between atoms: C_12  and  C_9 
REMARK    2  A    between atoms: C_13  and  C_9 
REMARK    3  A    between atoms: C_14  and  C_10 
REMARK    4  A    between atoms: C_15  and  C_10 
REMARK    5  A    between atoms: C_16  and  C_11 
REMARK    6  A    between atoms: C_17  and  C_11 
REMARK    7  A    between atoms: C_23  and  C_13 
REMARK    8  A    between atoms: C_24  and  C_15 
REMARK    9  A    between atoms: C_25  and  C_17 
REMARK   10  A    between atoms: C_21  and  C_20 
REMARK   11  A    between atoms: C_27  and  C_21 
ROOT
HETATM    1  C   UNK N   1      26.765  23.257  -9.346  0.00  0.00     0.043 C 
HETATM    2  C   UNK N   1      26.114  24.161  -7.123  0.00  0.00    -0.020 C 
HETATM    3  C   UNK N   1      26.630  23.161  -7.855  0.00  0.00    -0.087 C 
ENDROOT
BRANCH   3   4
HETATM    4  C   UNK N   1      27.260  22.019  -7.161  0.00  0.00     0.037 C 
BRANCH   4   5
HETATM    5  C   UNK N   1      27.449  21.004  -8.276  0.00  0.00     0.031 C 
BRANCH   5   6
HETATM    6  C   UNK N   1      28.509  20.017  -7.956  0.00  0.00    -0.024 C 
HETATM    7  C   UNK N   1      29.743  20.149  -8.456  0.00  0.00    -0.087 C 
HETATM    8  C   UNK N   1      30.082  21.277  -9.382  0.00  0.00     0.043 C 
BRANCH   7   9
HETATM    9  C   UNK N   1      30.811  19.181  -8.079  0.00  0.00     0.037 C 
BRANCH   9  10
HETATM   10  C   UNK N   1      31.864  19.882  -7.231  0.00  0.00     0.031 C 
BRANCH  10  11
HETATM   11  C   UNK N   1      31.351  20.090  -5.837  0.00  0.00    -0.024 C 
HETATM   12  C   UNK N   1      31.137  21.323  -5.320  0.00  0.00    -0.087 C 
HETATM   13  C   UNK N   1      31.388  22.552  -6.127  0.00  0.00     0.043 C 
BRANCH  12  14
HETATM   14  C   UNK N   1      30.632  21.551  -3.923  0.00  0.00     0.037 C 
BRANCH  14  15
HETATM   15  C   UNK N   1      30.356  22.990  -3.512  0.00  0.00     0.031 C 
BRANCH  15  16
HETATM   16  C   UNK N   1      28.891  23.352  -3.386  0.00  0.00    -0.024 C 
HETATM   17  C   UNK N   1      28.215  24.369  -3.955  0.00  0.00    -0.091 C 
HETATM   18  C   UNK N   1      26.762  24.501  -3.666  0.00  0.00     0.042 C 
HETATM   19  C   UNK N   1      28.841  25.388  -4.853  0.00  0.00     0.042 C 
ENDBRANCH  15  16
ENDBRANCH  14  15
ENDBRANCH  12  14
ENDBRANCH  10  11
ENDBRANCH   9  10
ENDBRANCH   7   9
ENDBRANCH   5   6
ENDBRANCH   4   5
ENDBRANCH   3   4
BRANCH   2  20
HETATM   20  C   UNK N   1      25.782  25.444  -7.795  0.00  0.00     0.070 C 
BRANCH  20  21
HETATM   21  C   UNK N   1      26.289  26.724  -7.210  0.00  0.00     0.006 A 
HETATM   22  C   UNK N   1      27.358  27.308  -7.787  0.00  0.00    -0.001 A 
HETATM   23  C   UNK N   1      27.953  26.743  -9.048  0.00  0.00     0.053 C 
HETATM   24  C   UNK N   1      28.010  28.483  -7.162  0.00  0.00     0.189 A 
HETATM   25  C   UNK N   1      27.519  28.988  -5.862  0.00  0.00     0.029 A 
HETATM   26  O   UNK N   1      28.984  28.990  -7.692  0.00  0.00    -0.287 OA
HETATM   27  C   UNK N   1      28.192  30.031  -5.211  0.00  0.00     0.016 A 
HETATM   28  C   UNK N   1      26.389  28.403  -5.267  0.00  0.00     0.029 A 
HETATM   29  C   UNK N   1      27.740  30.490  -3.972  0.00  0.00     0.001 A 
HETATM   30  C   UNK N   1      26.611  29.918  -3.382  0.00  0.00     0.001 A 
HETATM   31  C   UNK N   1      25.934  28.876  -4.027  0.00  0.00     0.016 A 
HETATM   32  C   UNK N   1      25.712  27.268  -5.941  0.00  0.00     0.190 A 
HETATM   33  O   UNK N   1      24.725  26.756  -5.440  0.00  0.00    -0.287 OA
ENDBRANCH  20  21
ENDBRANCH   2  20
TORSDOF 11
ENDMDL
MODEL 5
REMARK VINA RESULT:      -6.1      2.504      6.845
REMARK  11 active torsions:
REMARK  status: ('A' for Active; 'I' for Inactive)
REMARK    1  A    between atoms: C_12  and  C_9 
REMARK    2  A    between atoms: C_13  and  C_9 
REMARK    3  A    between atoms: C_14  and  C_10 
REMARK    4  A    between atoms: C_15  and  C_10 
REMARK    5  A    between atoms: C_16  and  C_11 
REMARK    6  A    between atoms: C_17  and  C_11 
REMARK    7  A    between atoms: C_23  and  C_13 
REMARK    8  A    between atoms: C_24  and  C_15 
REMARK    9  A    between atoms: C_25  and  C_17 
REMARK   10  A    between atoms: C_21  and  C_20 
REMARK   11  A    between atoms: C_27  and  C_21 
ROOT
HETATM    1  C   UNK N   1      27.551  23.158  -9.473  0.00  0.00     0.043 C 
HETATM    2  C   UNK N   1      25.815  23.878  -7.845  0.00  0.00    -0.020 C 
HETATM    3  C   UNK N   1      26.682  22.945  -8.269  0.00  0.00    -0.087 C 
ENDROOT
BRANCH   3   4
HETATM    4  C   UNK N   1      26.930  21.760  -7.421  0.00  0.00     0.037 C 
BRANCH   4   5
HETATM    5  C   UNK N   1      28.430  21.556  -7.548  0.00  0.00     0.031 C 
BRANCH   5   6
HETATM    6  C   UNK N   1      29.129  21.746  -6.254  0.00  0.00    -0.024 C 
HETATM    7  C   UNK N   1      30.255  21.078  -5.978  0.00  0.00    -0.087 C 
HETATM    8  C   UNK N   1      30.823  20.092  -6.952  0.00  0.00     0.043 C 
BRANCH   7   9
HETATM    9  C   UNK N   1      30.975  21.323  -4.697  0.00  0.00     0.037 C 
BRANCH   9  10
HETATM   10  C   UNK N   1      32.033  22.399  -4.901  0.00  0.00     0.031 C 
BRANCH  10  11
HETATM   11  C   UNK N   1      31.672  23.631  -4.126  0.00  0.00    -0.024 C 
HETATM   12  C   UNK N   1      31.962  24.877  -4.569  0.00  0.00    -0.087 C 
HETATM   13  C   UNK N   1      32.649  25.090  -5.877  0.00  0.00     0.043 C 
BRANCH  12  14
HETATM   14  C   UNK N   1      31.617  26.123  -3.802  0.00  0.00     0.037 C 
BRANCH  14  15
HETATM   15  C   UNK N   1      30.293  26.796  -4.132  0.00  0.00     0.031 C 
BRANCH  15  16
HETATM   16  C   UNK N   1      29.067  25.928  -3.943  0.00  0.00    -0.024 C 
HETATM   17  C   UNK N   1      28.465  25.105  -4.825  0.00  0.00    -0.091 C 
HETATM   18  C   UNK N   1      27.260  24.355  -4.380  0.00  0.00     0.042 C 
HETATM   19  C   UNK N   1      28.926  24.910  -6.234  0.00  0.00     0.042 C 
ENDBRANCH  15  16
ENDBRANCH  14  15
ENDBRANCH  12  14
ENDBRANCH  10  11
ENDBRANCH   9  10
ENDBRANCH   7   9
ENDBRANCH   5   6
ENDBRANCH   4   5
ENDBRANCH   3   4
BRANCH   2  20
HETATM   20  C   UNK N   1      25.805  25.204  -8.514  0.00  0.00     0.070 C 
BRANCH  20  21
HETATM   21  C   UNK N   1      26.225  26.413  -7.739  0.00  0.00     0.006 A 
HETATM   22  C   UNK N   1      27.260  27.139  -8.206  0.00  0.00    -0.001 A 
HETATM   23  C   UNK N   1      27.899  26.804  -9.526  0.00  0.00     0.053 C 
HETATM   24  C   UNK N   1      27.831  28.247  -7.405  0.00  0.00     0.189 A 
HETATM   25  C   UNK N   1      27.299  28.524  -6.053  0.00  0.00     0.029 A 
HETATM   26  O   UNK N   1      28.775  28.886  -7.837  0.00  0.00    -0.287 OA
HETATM   27  C   UNK N   1      27.899  29.499  -5.244  0.00  0.00     0.016 A 
HETATM   28  C   UNK N   1      26.204  27.790  -5.570  0.00  0.00     0.029 A 
HETATM   29  C   UNK N   1      27.410  29.742  -3.959  0.00  0.00     0.001 A 
HETATM   30  C   UNK N   1      26.314  29.021  -3.480  0.00  0.00     0.001 A 
HETATM   31  C   UNK N   1      25.710  28.046  -4.281  0.00  0.00     0.016 A 
HETATM   32  C   UNK N   1      25.605  26.727  -6.415  0.00  0.00     0.190 A 
HETATM   33  O   UNK N   1      24.648  26.087  -6.011  0.00  0.00    -0.287 OA
ENDBRANCH  20  21
ENDBRANCH   2  20
TORSDOF 11
ENDMDL
MODEL 6
REMARK VINA RESULT:      -5.9      2.448      7.050
REMARK  11 active torsions:
REMARK  status: ('A' for Active; 'I' for Inactive)
REMARK    1  A    between atoms: C_12  and  C_9 
REMARK    2  A    between atoms: C_13  and  C_9 
REMARK    3  A    between atoms: C_14  and  C_10 
REMARK    4  A    between atoms: C_15  and  C_10 
REMARK    5  A    between atoms: C_16  and  C_11 
REMARK    6  A    between atoms: C_17  and  C_11 
REMARK    7  A    between atoms: C_23  and  C_13 
REMARK    8  A    between atoms: C_24  and  C_15 
REMARK    9  A    between atoms: C_25  and  C_17 
REMARK   10  A    between atoms: C_21  and  C_20 
REMARK   11  A    between atoms: C_27  and  C_21 
ROOT
HETATM    1  C   UNK N   1      27.051  21.290  -9.994  0.00  0.00     0.043 C 
HETATM    2  C   UNK N   1      27.314  22.692  -7.956  0.00  0.00    -0.020 C 
HETATM    3  C   UNK N   1      27.395  21.489  -8.547  0.00  0.00    -0.087 C 
ENDROOT
BRANCH   3   4
HETATM    4  C   UNK N   1      28.025  20.372  -7.812  0.00  0.00     0.037 C 
BRANCH   4   5
HETATM    5  C   UNK N   1      29.483  20.468  -8.227  0.00  0.00     0.031 C 
BRANCH   5   6
HETATM    6  C   UNK N   1      30.402  20.272  -7.080  0.00  0.00    -0.024 C 
HETATM    7  C   UNK N   1      31.174  21.271  -6.640  0.00  0.00    -0.087 C 
HETATM    8  C   UNK N   1      31.161  22.609  -7.314  0.00  0.00     0.043 C 
BRANCH   7   9
HETATM    9  C   UNK N   1      32.050  21.072  -5.450  0.00  0.00     0.037 C 
BRANCH   9  10
HETATM   10  C   UNK N   1      31.214  20.588  -4.273  0.00  0.00     0.031 C 
BRANCH  10  11
HETATM   11  C   UNK N   1      29.987  21.439  -4.126  0.00  0.00    -0.024 C 
HETATM   12  C   UNK N   1      29.957  22.536  -3.334  0.00  0.00    -0.087 C 
HETATM   13  C   UNK N   1      31.164  22.970  -2.571  0.00  0.00     0.043 C 
BRANCH  12  14
HETATM   14  C   UNK N   1      28.735  23.395  -3.166  0.00  0.00     0.037 C 
BRANCH  14  15
HETATM   15  C   UNK N   1      28.212  24.106  -4.405  0.00  0.00     0.031 C 
BRANCH  15  16
HETATM   16  C   UNK N   1      29.274  24.722  -5.290  0.00  0.00    -0.024 C 
HETATM   17  C   UNK N   1      29.954  25.874  -5.125  0.00  0.00    -0.091 C 
HETATM   18  C   UNK N   1      30.960  26.253  -6.153  0.00  0.00     0.042 C 
HETATM   19  C   UNK N   1      29.749  26.807  -3.975  0.00  0.00     0.042 C 
ENDBRANCH  15  16
ENDBRANCH  14  15
ENDBRANCH  12  14
ENDBRANCH  10  11
ENDBRANCH   9  10
ENDBRANCH   7   9
ENDBRANCH   5   6
ENDBRANCH   4   5
ENDBRANCH   3   4
BRANCH   2  20
HETATM   20  C   UNK N   1      26.991  23.879  -8.789  0.00  0.00     0.070 C 
BRANCH  20  21
HETATM   21  C   UNK N   1      26.970  25.231  -8.150  0.00  0.00     0.006 A 
HETATM   22  C   UNK N   1      27.852  26.154  -8.584  0.00  0.00    -0.001 A 
HETATM   23  C   UNK N   1      28.755  25.862  -9.751  0.00  0.00     0.053 C 
HETATM   24  C   UNK N   1      27.996  27.453  -7.885  0.00  0.00     0.189 A 
HETATM   25  C   UNK N   1      27.204  27.720  -6.665  0.00  0.00     0.029 A 
HETATM   26  O   UNK N   1      28.807  28.270  -8.284  0.00  0.00    -0.287 OA
HETATM   27  C   UNK N   1      27.407  28.901  -5.937  0.00  0.00     0.016 A 
HETATM   28  C   UNK N   1      26.263  26.777  -6.222  0.00  0.00     0.029 A 
HETATM   29  C   UNK N   1      26.676  29.140  -4.772  0.00  0.00     0.001 A 
HETATM   30  C   UNK N   1      25.732  28.208  -4.334  0.00  0.00     0.001 A 
HETATM   31  C   UNK N   1      25.524  27.028  -5.056  0.00  0.00     0.016 A 
HETATM   32  C   UNK N   1      26.089  25.508  -6.973  0.00  0.00     0.190 A 
HETATM   33  O   UNK N   1      25.270  24.684  -6.604  0.00  0.00    -0.287 OA
ENDBRANCH  20  21
ENDBRANCH   2  20
TORSDOF 11
ENDMDL
MODEL 7
REMARK VINA RESULT:      -5.9      2.117      6.483
REMARK  11 active torsions:
REMARK  status: ('A' for Active; 'I' for Inactive)
REMARK    1  A    between atoms: C_12  and  C_9 
REMARK    2  A    between atoms: C_13  and  C_9 
REMARK    3  A    between atoms: C_14  and  C_10 
REMARK    4  A    between atoms: C_15  and  C_10 
REMARK    5  A    between atoms: C_16  and  C_11 
REMARK    6  A    between atoms: C_17  and  C_11 
REMARK    7  A    between atoms: C_23  and  C_13 
REMARK    8  A    between atoms: C_24  and  C_15 
REMARK    9  A    between atoms: C_25  and  C_17 
REMARK   10  A    between atoms: C_21  and  C_20 
REMARK   11  A    between atoms: C_27  and  C_21 
ROOT
HETATM    1  C   UNK N   1      31.895  20.384  -8.598  0.00  0.00     0.043 C 
HETATM    2  C   UNK N   1      30.691  20.382  -6.421  0.00  0.00    -0.020 C 
HETATM    3  C   UNK N   1      30.733  20.032  -7.716  0.00  0.00    -0.087 C 
ENDROOT
BRANCH   3   4
HETATM    4  C   UNK N   1      29.703  19.110  -8.241  0.00  0.00     0.037 C 
BRANCH   4   5
HETATM    5  C   UNK N   1      28.779  20.035  -9.015  0.00  0.00     0.031 C 
BRANCH   5   6
HETATM    6  C   UNK N   1      27.682  20.562  -8.166  0.00  0.00    -0.024 C 
HETATM    7  C   UNK N   1      26.599  21.123  -8.715  0.00  0.00    -0.087 C 
HETATM    8  C   UNK N   1      26.475  21.266 -10.201  0.00  0.00     0.043 C 
BRANCH   7   9
HETATM    9  C   UNK N   1      25.482  21.596  -7.850  0.00  0.00     0.037 C 
BRANCH   9  10
HETATM   10  C   UNK N   1      25.599  23.099  -7.637  0.00  0.00     0.031 C 
BRANCH  10  11
HETATM   11  C   UNK N   1      25.904  23.395  -6.198  0.00  0.00    -0.024 C 
HETATM   12  C   UNK N   1      27.130  23.792  -5.784  0.00  0.00    -0.087 C 
HETATM   13  C   UNK N   1      28.250  23.974  -6.754  0.00  0.00     0.043 C 
BRANCH  12  14
HETATM   14  C   UNK N   1      27.458  24.084  -4.347  0.00  0.00     0.037 C 
BRANCH  14  15
HETATM   15  C   UNK N   1      26.793  25.299  -3.717  0.00  0.00     0.031 C 
BRANCH  15  16
HETATM   16  C   UNK N   1      27.169  26.629  -4.334  0.00  0.00    -0.024 C 
HETATM   17  C   UNK N   1      26.476  27.387  -5.207  0.00  0.00    -0.091 C 
HETATM   18  C   UNK N   1      27.078  28.670  -5.660  0.00  0.00     0.042 C 
HETATM   19  C   UNK N   1      25.141  27.010  -5.763  0.00  0.00     0.042 C 
ENDBRANCH  15  16
ENDBRANCH  14  15
ENDBRANCH  12  14
ENDBRANCH  10  11
ENDBRANCH   9  10
ENDBRANCH   7   9
ENDBRANCH   5   6
ENDBRANCH   4   5
ENDBRANCH   3   4
BRANCH   2  20
HETATM   20  C   UNK N   1      31.884  21.028  -5.816  0.00  0.00     0.070 C 
BRANCH  20  21
HETATM   21  C   UNK N   1      31.739  22.378  -5.186  0.00  0.00     0.006 A 
HETATM   22  C   UNK N   1      31.335  22.440  -3.901  0.00  0.00    -0.001 A 
HETATM   23  C   UNK N   1      31.144  21.184  -3.096  0.00  0.00     0.053 C 
HETATM   24  C   UNK N   1      31.013  23.741  -3.270  0.00  0.00     0.189 A 
HETATM   25  C   UNK N   1      31.079  24.981  -4.073  0.00  0.00     0.029 A 
HETATM   26  O   UNK N   1      30.637  23.778  -2.111  0.00  0.00    -0.287 OA
HETATM   27  C   UNK N   1      30.676  26.204  -3.517  0.00  0.00     0.016 A 
HETATM   28  C   UNK N   1      31.525  24.929  -5.403  0.00  0.00     0.029 A 
HETATM   29  C   UNK N   1      30.717  27.370  -4.285  0.00  0.00     0.001 A 
HETATM   30  C   UNK N   1      31.169  27.323  -5.605  0.00  0.00     0.001 A 
HETATM   31  C   UNK N   1      31.573  26.106  -6.166  0.00  0.00     0.016 A 
HETATM   32  C   UNK N   1      31.904  23.624  -5.998  0.00  0.00     0.190 A 
HETATM   33  O   UNK N   1      32.300  23.565  -7.150  0.00  0.00    -0.287 OA
ENDBRANCH  20  21
ENDBRANCH   2  20
TORSDOF 11
ENDMDL
MODEL 8
REMARK VINA RESULT:      -5.7     13.660     16.247
REMARK  11 active torsions:
REMARK  status: ('A' for Active; 'I' for Inactive)
REMARK    1  A    between atoms: C_12  and  C_9 
REMARK    2  A    between atoms: C_13  and  C_9 
REMARK    3  A    between atoms: C_14  and  C_10 
REMARK    4  A    between atoms: C_15  and  C_10 
REMARK    5  A    between atoms: C_16  and  C_11 
REMARK    6  A    between atoms: C_17  and  C_11 
REMARK    7  A    between atoms: C_23  and  C_13 
REMARK    8  A    between atoms: C_24  and  C_15 
REMARK    9  A    between atoms: C_25  and  C_17 
REMARK   10  A    between atoms: C_21  and  C_20 
REMARK   11  A    between atoms: C_27  and  C_21 
ROOT
HETATM    1  C   UNK N   1      21.411  18.897   4.567  0.00  0.00     0.043 C 
HETATM    2  C   UNK N   1      21.249  16.427   4.801  0.00  0.00    -0.020 C 
HETATM    3  C   UNK N   1      21.073  17.529   4.055  0.00  0.00    -0.087 C 
ENDROOT
BRANCH   3   4
HETATM    4  C   UNK N   1      20.722  17.377   2.627  0.00  0.00     0.037 C 
BRANCH   4   5
HETATM    5  C   UNK N   1      20.683  15.869   2.443  0.00  0.00     0.031 C 
BRANCH   5   6
HETATM    6  C   UNK N   1      21.663  15.407   1.430  0.00  0.00    -0.024 C 
HETATM    7  C   UNK N   1      22.278  14.226   1.559  0.00  0.00    -0.087 C 
HETATM    8  C   UNK N   1      22.022  13.351   2.747  0.00  0.00     0.043 C 
BRANCH   7   9
HETATM    9  C   UNK N   1      23.217  13.752   0.503  0.00  0.00     0.037 C 
BRANCH   9  10
HETATM   10  C   UNK N   1      24.579  13.465   1.120  0.00  0.00     0.031 C 
BRANCH  10  11
HETATM   11  C   UNK N   1      25.156  14.719   1.707  0.00  0.00    -0.024 C 
HETATM   12  C   UNK N   1      25.620  14.778   2.977  0.00  0.00    -0.087 C 
HETATM   13  C   UNK N   1      25.596  13.576   3.863  0.00  0.00     0.043 C 
BRANCH  12  14
HETATM   14  C   UNK N   1      26.192  16.026   3.586  0.00  0.00     0.037 C 
BRANCH  14  15
HETATM   15  C   UNK N   1      25.226  16.948   4.315  0.00  0.00     0.031 C 
BRANCH  15  16
HETATM   16  C   UNK N   1      24.902  18.239   3.595  0.00  0.00    -0.024 C 
HETATM   17  C   UNK N   1      25.659  19.345   3.451  0.00  0.00    -0.091 C 
HETATM   18  C   UNK N   1      25.099  20.489   2.683  0.00  0.00     0.042 C 
HETATM   19  C   UNK N   1      27.029  19.499   4.030  0.00  0.00     0.042 C 
ENDBRANCH  15  16
ENDBRANCH  14  15
ENDBRANCH  12  14
ENDBRANCH  10  11
ENDBRANCH   9  10
ENDBRANCH   7   9
ENDBRANCH   5   6
ENDBRANCH   4   5
ENDBRANCH   3   4
BRANCH   2  20
HETATM   20  C   UNK N   1      21.912  16.557   6.124  0.00  0.00     0.070 C 
BRANCH  20  21
HETATM   21  C   UNK N   1      21.730  15.471   7.138  0.00  0.00     0.006 A 
HETATM   22  C   UNK N   1      20.586  15.449   7.849  0.00  0.00    -0.001 A 
HETATM   23  C   UNK N   1      19.480  16.425   7.552  0.00  0.00     0.053 C 
HETATM   24  C   UNK N   1      20.412  14.505   8.979  0.00  0.00     0.189 A 
HETATM   25  C   UNK N   1      21.527  13.616   9.367  0.00  0.00     0.029 A 
HETATM   26  O   UNK N   1      19.375  14.508   9.619  0.00  0.00    -0.287 OA
HETATM   27  C   UNK N   1      21.414  12.794  10.498  0.00  0.00     0.016 A 
HETATM   28  C   UNK N   1      22.713  13.612   8.615  0.00  0.00     0.029 A 
HETATM   29  C   UNK N   1      22.477  11.972  10.877  0.00  0.00     0.001 A 
HETATM   30  C   UNK N   1      23.654  11.959  10.125  0.00  0.00     0.001 A 
HETATM   31  C   UNK N   1      23.775  12.776   8.995  0.00  0.00     0.016 A 
HETATM   32  C   UNK N   1      22.843  14.520   7.449  0.00  0.00     0.190 A 
HETATM   33  O   UNK N   1      23.864  14.521   6.782  0.00  0.00    -0.287 OA
ENDBRANCH  20  21
ENDBRANCH   2  20
TORSDOF 11
ENDMDL
MODEL 9
REMARK VINA RESULT:      -5.6      1.857      6.404
REMARK  11 active torsions:
REMARK  status: ('A' for Active; 'I' for Inactive)
REMARK    1  A    between atoms: C_12  and  C_9 
REMARK    2  A    between atoms: C_13  and  C_9 
REMARK    3  A    between atoms: C_14  and  C_10 
REMARK    4  A    between atoms: C_15  and  C_10 
REMARK    5  A    between atoms: C_16  and  C_11 
REMARK    6  A    between atoms: C_17  and  C_11 
REMARK    7  A    between atoms: C_23  and  C_13 
REMARK    8  A    between atoms: C_24  and  C_15 
REMARK    9  A    between atoms: C_25  and  C_17 
REMARK   10  A    between atoms: C_21  and  C_20 
REMARK   11  A    between atoms: C_27  and  C_21 
ROOT
HETATM    1  C   UNK N   1      36.140  19.998  -6.141  0.00  0.00     0.043 C 
HETATM    2  C   UNK N   1      35.245  20.917  -4.010  0.00  0.00    -0.020 C 
HETATM    3  C   UNK N   1      36.171  20.949  -4.981  0.00  0.00    -0.087 C 
ENDROOT
BRANCH   3   4
HETATM    4  C   UNK N   1      37.133  22.071  -5.015  0.00  0.00     0.037 C 
BRANCH   4   5
HETATM    5  C   UNK N   1      36.541  22.996  -6.065  0.00  0.00     0.031 C 
BRANCH   5   6
HETATM    6  C   UNK N   1      35.744  24.089  -5.458  0.00  0.00    -0.024 C 
HETATM    7  C   UNK N   1      34.458  24.263  -5.784  0.00  0.00    -0.087 C 
HETATM    8  C   UNK N   1      33.794  23.382  -6.797  0.00  0.00     0.043 C 
BRANCH   7   9
HETATM    9  C   UNK N   1      33.657  25.331  -5.121  0.00  0.00     0.037 C 
BRANCH   9  10
HETATM   10  C   UNK N   1      32.285  24.786  -4.748  0.00  0.00     0.031 C 
BRANCH  10  11
HETATM   11  C   UNK N   1      31.341  25.915  -4.461  0.00  0.00    -0.024 C 
HETATM   12  C   UNK N   1      30.384  26.301  -5.337  0.00  0.00    -0.087 C 
HETATM   13  C   UNK N   1      30.207  25.601  -6.644  0.00  0.00     0.043 C 
BRANCH  12  14
HETATM   14  C   UNK N   1      29.435  27.435  -5.072  0.00  0.00     0.037 C 
BRANCH  14  15
HETATM   15  C   UNK N   1      28.330  27.192  -4.055  0.00  0.00     0.031 C 
BRANCH  15  16
HETATM   16  C   UNK N   1      26.926  27.459  -4.555  0.00  0.00    -0.024 C 
HETATM   17  C   UNK N   1      26.147  26.696  -5.348  0.00  0.00    -0.091 C 
HETATM   18  C   UNK N   1      24.788  27.195  -5.692  0.00  0.00     0.042 C 
HETATM   19  C   UNK N   1      26.570  25.380  -5.917  0.00  0.00     0.042 C 
ENDBRANCH  15  16
ENDBRANCH  14  15
ENDBRANCH  12  14
ENDBRANCH  10  11
ENDBRANCH   9  10
ENDBRANCH   7   9
ENDBRANCH   5   6
ENDBRANCH   4   5
ENDBRANCH   3   4
BRANCH   2  20
HETATM   20  C   UNK N   1      34.089  19.994  -4.153  0.00  0.00     0.070 C 
BRANCH  20  21
HETATM   21  C   UNK N   1      32.709  20.565  -4.239  0.00  0.00     0.006 A 
HETATM   22  C   UNK N   1      32.066  20.499  -5.422  0.00  0.00    -0.001 A 
HETATM   23  C   UNK N   1      32.679  19.774  -6.588  0.00  0.00     0.053 C 
HETATM   24  C   UNK N   1      30.770  21.189  -5.620  0.00  0.00     0.189 A 
HETATM   25  C   UNK N   1      30.201  22.007  -4.527  0.00  0.00     0.029 A 
HETATM   26  O   UNK N   1      30.208  21.129  -6.700  0.00  0.00    -0.287 OA
HETATM   27  C   UNK N   1      29.030  22.748  -4.737  0.00  0.00     0.016 A 
HETATM   28  C   UNK N   1      30.850  22.059  -3.283  0.00  0.00     0.029 A 
HETATM   29  C   UNK N   1      28.507  23.538  -3.711  0.00  0.00     0.001 A 
HETATM   30  C   UNK N   1      29.145  23.584  -2.469  0.00  0.00     0.001 A 
HETATM   31  C   UNK N   1      30.314  22.847  -2.252  0.00  0.00     0.016 A 
HETATM   32  C   UNK N   1      32.115  21.309  -3.085  0.00  0.00     0.190 A 
HETATM   33  O   UNK N   1      32.685  21.339  -2.007  0.00  0.00    -0.287 OA
ENDBRANCH  20  21
ENDBRANCH   2  20
TORSDOF 11
ENDMDL
