MODEL 1
REMARK VINA RESULT:      -5.3      0.000      0.000
REMARK  4 active torsions:
REMARK  status: ('A' for Active; 'I' for Inactive)
REMARK    1  A    between atoms: C_2  and  C_1 
REMARK    2  A    between atoms: N_12  and  C_1 
REMARK    3  A    between atoms: N_13  and  C_2 
REMARK    4  A    between atoms: N_14  and  C_9 
ROOT
HETATM    1  C   UNK N   1      32.071  17.213   8.340  0.00  0.00     0.144 A 
HETATM    2  C   UNK N   1      32.716  15.576   9.600  0.00  0.00     0.184 A 
HETATM    3  C   UNK N   1      33.445  17.217   8.421  0.00  0.00     0.192 A 
HETATM    4  N   UNK N   1      31.619  16.182   9.087  0.00  0.00    -0.358 N 
ATOM      5  HN  UNK N   1      30.646  15.913   9.236  1.00  0.00     0.166 HD
HETATM    6  N   UNK N   1      33.841  16.198   9.205  0.00  0.00    -0.322 N 
ENDROOT
BRANCH   6   7
HETATM    7  C   UNK N   1      35.204  15.777   9.493  0.00  0.00     0.162 C 
BRANCH   7   8
HETATM    8  C   UNK N   1      35.716  16.264  10.841  0.00  0.00     0.292 C 
BRANCH   8   9
HETATM    9  N   UNK N   1      36.508  15.191  11.426  0.00  0.00     0.094 N 
HETATM   10  C   UNK N   1      35.707  14.524  12.453  0.00  0.00     0.298 C 
HETATM   11  C   UNK N   1      36.524  13.369  13.032  0.00  0.00     0.198 C 
HETATM   12  O   UNK N   1      36.796  12.435  12.015  0.00  0.00    -0.388 OA
HETATM   13  C   UNK N   1      37.639  13.069  11.080  0.00  0.00     0.198 C 
HETATM   14  C   UNK N   1      36.883  14.219  10.399  0.00  0.00     0.298 C 
ENDBRANCH   8   9
ENDBRANCH   7   8
ENDBRANCH   6   7
BRANCH   3  15
HETATM   15  N   UNK N   1      34.310  18.136   7.760  0.00  0.00    -0.096 N 
HETATM   16  O   UNK N   1      34.475  18.057   6.581  0.00  0.00    -0.530 OA
HETATM   17  O   UNK N   1      34.861  18.998   8.373  0.00  0.00    -0.530 OA
ENDBRANCH   3  15
TORSDOF 4
ENDMDL
MODEL 2
REMARK VINA RESULT:      -5.1     13.781     14.949
REMARK  4 active torsions:
REMARK  status: ('A' for Active; 'I' for Inactive)
REMARK    1  A    between atoms: C_2  and  C_1 
REMARK    2  A    between atoms: N_12  and  C_1 
REMARK    3  A    between atoms: N_13  and  C_2 
REMARK    4  A    between atoms: N_14  and  C_9 
ROOT
HETATM    1  C   UNK N   1      19.994  18.009   2.238  0.00  0.00     0.144 A 
HETATM    2  C   UNK N   1      20.009  16.464   3.753  0.00  0.00     0.184 A 
HETATM    3  C   UNK N   1      20.534  18.516   3.399  0.00  0.00     0.192 A 
HETATM    4  N   UNK N   1      19.662  16.720   2.470  0.00  0.00    -0.358 N 
ATOM      5  HN  UNK N   1      19.235  16.069   1.811  1.00  0.00     0.166 HD
HETATM    6  N   UNK N   1      20.541  17.553   4.337  0.00  0.00    -0.322 N 
ENDROOT
BRANCH   6   7
HETATM    7  C   UNK N   1      21.101  17.624   5.678  0.00  0.00     0.162 C 
BRANCH   7   8
HETATM    8  C   UNK N   1      22.268  16.671   5.898  0.00  0.00     0.292 C 
BRANCH   8   9
HETATM    9  N   UNK N   1      21.936  15.821   7.032  0.00  0.00     0.094 N 
HETATM   10  C   UNK N   1      20.820  16.426   7.759  0.00  0.00     0.298 C 
HETATM   11  C   UNK N   1      20.444  15.508   8.922  0.00  0.00     0.198 C 
HETATM   12  O   UNK N   1      20.014  14.267   8.415  0.00  0.00    -0.388 OA
HETATM   13  C   UNK N   1      21.124  13.662   7.794  0.00  0.00     0.198 C 
HETATM   14  C   UNK N   1      21.546  14.489   6.571  0.00  0.00     0.298 C 
ENDBRANCH   8   9
ENDBRANCH   7   8
ENDBRANCH   6   7
BRANCH   3  15
HETATM   15  N   UNK N   1      21.031  19.840   3.570  0.00  0.00    -0.096 N 
HETATM   16  O   UNK N   1      20.291  20.718   3.895  0.00  0.00    -0.530 OA
HETATM   17  O   UNK N   1      22.189  20.079   3.406  0.00  0.00    -0.530 OA
ENDBRANCH   3  15
TORSDOF 4
ENDMDL
MODEL 3
REMARK VINA RESULT:      -5.0      1.673      5.934
REMARK  4 active torsions:
REMARK  status: ('A' for Active; 'I' for Inactive)
REMARK    1  A    between atoms: C_2  and  C_1 
REMARK    2  A    between atoms: N_12  and  C_1 
REMARK    3  A    between atoms: N_13  and  C_2 
REMARK    4  A    between atoms: N_14  and  C_9 
ROOT
HETATM    1  C   UNK N   1      37.562  12.865  11.547  0.00  0.00     0.144 A 
HETATM    2  C   UNK N   1      37.359  14.147   9.815  0.00  0.00     0.184 A 
HETATM    3  C   UNK N   1      36.641  13.852  11.818  0.00  0.00     0.192 A 
HETATM    4  N   UNK N   1      38.013  13.060  10.288  0.00  0.00    -0.358 N 
ATOM      5  HN  UNK N   1      38.707  12.501   9.792  1.00  0.00     0.166 HD
HETATM    6  N   UNK N   1      36.519  14.646  10.739  0.00  0.00    -0.322 N 
ENDROOT
BRANCH   6   7
HETATM    7  C   UNK N   1      35.595  15.755  10.554  0.00  0.00     0.162 C 
BRANCH   7   8
HETATM    8  C   UNK N   1      34.208  15.318  10.104  0.00  0.00     0.292 C 
BRANCH   8   9
HETATM    9  N   UNK N   1      33.833  16.144   8.964  0.00  0.00     0.094 N 
HETATM   10  C   UNK N   1      34.509  17.437   9.081  0.00  0.00     0.298 C 
HETATM   11  C   UNK N   1      34.150  18.284   7.861  0.00  0.00     0.198 C 
HETATM   12  O   UNK N   1      34.623  17.648   6.698  0.00  0.00    -0.388 OA
HETATM   13  C   UNK N   1      33.899  16.447   6.555  0.00  0.00     0.198 C 
HETATM   14  C   UNK N   1      34.237  15.500   7.715  0.00  0.00     0.298 C 
ENDBRANCH   8   9
ENDBRANCH   7   8
ENDBRANCH   6   7
BRANCH   3  15
HETATM   15  N   UNK N   1      35.914  13.993  13.035  0.00  0.00    -0.096 N 
HETATM   16  O   UNK N   1      34.841  13.484  13.152  0.00  0.00    -0.530 OA
HETATM   17  O   UNK N   1      36.377  14.604  13.950  0.00  0.00    -0.530 OA
ENDBRANCH   3  15
TORSDOF 4
ENDMDL
MODEL 4
REMARK VINA RESULT:      -4.9     15.563     18.571
REMARK  4 active torsions:
REMARK  status: ('A' for Active; 'I' for Inactive)
REMARK    1  A    between atoms: C_2  and  C_1 
REMARK    2  A    between atoms: N_12  and  C_1 
REMARK    3  A    between atoms: N_13  and  C_2 
REMARK    4  A    between atoms: N_14  and  C_9 
ROOT
HETATM    1  C   UNK N   1      30.561  21.520  -4.754  0.00  0.00     0.144 A 
HETATM    2  C   UNK N   1      28.997  22.856  -5.427  0.00  0.00     0.184 A 
HETATM    3  C   UNK N   1      30.284  22.432  -3.760  0.00  0.00     0.192 A 
HETATM    4  N   UNK N   1      29.751  21.795  -5.800  0.00  0.00    -0.358 N 
ATOM      5  HN  UNK N   1      29.715  21.303  -6.693  1.00  0.00     0.166 HD
HETATM    6  N   UNK N   1      29.313  23.260  -4.184  0.00  0.00    -0.322 N 
ENDROOT
BRANCH   6   7
HETATM    7  C   UNK N   1      28.653  24.314  -3.427  0.00  0.00     0.162 C 
BRANCH   7   8
HETATM    8  C   UNK N   1      27.142  24.338  -3.616  0.00  0.00     0.292 C 
BRANCH   8   9
HETATM    9  N   UNK N   1      26.803  25.576  -4.304  0.00  0.00     0.094 N 
HETATM   10  C   UNK N   1      25.751  25.295  -5.281  0.00  0.00     0.298 C 
HETATM   11  C   UNK N   1      25.365  26.604  -5.969  0.00  0.00     0.198 C 
HETATM   12  O   UNK N   1      24.847  27.497  -5.012  0.00  0.00    -0.388 OA
HETATM   13  C   UNK N   1      25.897  27.823  -4.132  0.00  0.00     0.198 C 
HETATM   14  C   UNK N   1      26.321  26.573  -3.349  0.00  0.00     0.298 C 
ENDBRANCH   8   9
ENDBRANCH   7   8
ENDBRANCH   6   7
BRANCH   3  15
HETATM   15  N   UNK N   1      30.908  22.475  -2.480  0.00  0.00    -0.096 N 
HETATM   16  O   UNK N   1      31.999  22.017  -2.332  0.00  0.00    -0.530 OA
HETATM   17  O   UNK N   1      30.353  22.983  -1.553  0.00  0.00    -0.530 OA
ENDBRANCH   3  15
TORSDOF 4
ENDMDL
MODEL 5
REMARK VINA RESULT:      -4.8     11.765     13.920
REMARK  4 active torsions:
REMARK  status: ('A' for Active; 'I' for Inactive)
REMARK    1  A    between atoms: C_2  and  C_1 
REMARK    2  A    between atoms: N_12  and  C_1 
REMARK    3  A    between atoms: N_13  and  C_2 
REMARK    4  A    between atoms: N_14  and  C_9 
ROOT
HETATM    1  C   UNK N   1      23.506  11.829  11.734  0.00  0.00     0.144 A 
HETATM    2  C   UNK N   1      21.385  12.131  11.424  0.00  0.00     0.184 A 
HETATM    3  C   UNK N   1      23.299  12.331  10.469  0.00  0.00     0.192 A 
HETATM    4  N   UNK N   1      22.298  11.701  12.327  0.00  0.00    -0.358 N 
ATOM      5  HN  UNK N   1      22.111  11.352  13.266  1.00  0.00     0.166 HD
HETATM    6  N   UNK N   1      21.980  12.516  10.281  0.00  0.00    -0.322 N 
ENDROOT
BRANCH   6   7
HETATM    7  C   UNK N   1      21.323  13.110   9.126  0.00  0.00     0.162 C 
BRANCH   7   8
HETATM    8  C   UNK N   1      20.609  14.417   9.442  0.00  0.00     0.292 C 
BRANCH   8   9
HETATM    9  N   UNK N   1      21.180  15.449   8.588  0.00  0.00     0.094 N 
HETATM   10  C   UNK N   1      21.911  14.802   7.498  0.00  0.00     0.298 C 
HETATM   11  C   UNK N   1      22.471  15.887   6.578  0.00  0.00     0.198 C 
HETATM   12  O   UNK N   1      21.405  16.617   6.018  0.00  0.00    -0.388 OA
HETATM   13  C   UNK N   1      20.767  17.301   7.071  0.00  0.00     0.198 C 
HETATM   14  C   UNK N   1      20.122  16.289   8.028  0.00  0.00     0.298 C 
ENDBRANCH   8   9
ENDBRANCH   7   8
ENDBRANCH   6   7
BRANCH   3  15
HETATM   15  N   UNK N   1      24.319  12.631   9.521  0.00  0.00    -0.096 N 
HETATM   16  O   UNK N   1      24.373  12.031   8.491  0.00  0.00    -0.530 OA
HETATM   17  O   UNK N   1      25.115  13.493   9.740  0.00  0.00    -0.530 OA
ENDBRANCH   3  15
TORSDOF 4
ENDMDL
MODEL 6
REMARK VINA RESULT:      -4.6      2.543      5.958
REMARK  4 active torsions:
REMARK  status: ('A' for Active; 'I' for Inactive)
REMARK    1  A    between atoms: C_2  and  C_1 
REMARK    2  A    between atoms: N_12  and  C_1 
REMARK    3  A    between atoms: N_13  and  C_2 
REMARK    4  A    between atoms: N_14  and  C_9 
ROOT
HETATM    1  C   UNK N   1      34.486  14.099  10.668  0.00  0.00     0.144 A 
HETATM    2  C   UNK N   1      33.625  14.153   8.683  0.00  0.00     0.184 A 
HETATM    3  C   UNK N   1      34.895  15.247  10.027  0.00  0.00     0.192 A 
HETATM    4  N   UNK N   1      33.692  13.414   9.816  0.00  0.00    -0.358 N 
ATOM      5  HN  UNK N   1      33.234  12.520   9.990  1.00  0.00     0.166 HD
HETATM    6  N   UNK N   1      34.358  15.275   8.794  0.00  0.00    -0.322 N 
ENDROOT
BRANCH   6   7
HETATM    7  C   UNK N   1      34.453  16.343   7.809  0.00  0.00     0.162 C 
BRANCH   7   8
HETATM    8  C   UNK N   1      33.461  17.473   8.045  0.00  0.00     0.292 C 
BRANCH   8   9
HETATM    9  N   UNK N   1      32.736  17.690   6.802  0.00  0.00     0.094 N 
HETATM   10  C   UNK N   1      33.603  17.317   5.683  0.00  0.00     0.298 C 
HETATM   11  C   UNK N   1      32.823  17.502   4.382  0.00  0.00     0.198 C 
HETATM   12  O   UNK N   1      31.710  16.640   4.379  0.00  0.00    -0.388 OA
HETATM   13  C   UNK N   1      30.847  17.069   5.407  0.00  0.00     0.198 C 
HETATM   14  C   UNK N   1      31.526  16.869   6.769  0.00  0.00     0.298 C 
ENDBRANCH   8   9
ENDBRANCH   7   8
ENDBRANCH   6   7
BRANCH   3  15
HETATM   15  N   UNK N   1      35.731  16.255  10.589  0.00  0.00    -0.096 N 
HETATM   16  O   UNK N   1      35.251  17.268  10.997  0.00  0.00    -0.530 OA
HETATM   17  O   UNK N   1      36.910  16.088  10.670  0.00  0.00    -0.530 OA
ENDBRANCH   3  15
TORSDOF 4
ENDMDL
MODEL 7
REMARK VINA RESULT:      -4.6      3.288      6.564
REMARK  4 active torsions:
REMARK  status: ('A' for Active; 'I' for Inactive)
REMARK    1  A    between atoms: C_2  and  C_1 
REMARK    2  A    between atoms: N_12  and  C_1 
REMARK    3  A    between atoms: N_13  and  C_2 
REMARK    4  A    between atoms: N_14  and  C_9 
ROOT
HETATM    1  C   UNK N   1      33.687  10.811  14.316  0.00  0.00     0.144 A 
HETATM    2  C   UNK N   1      34.615  11.409  12.455  0.00  0.00     0.184 A 
HETATM    3  C   UNK N   1      34.518  11.885  14.547  0.00  0.00     0.192 A 
HETATM    4  N   UNK N   1      33.758  10.514  13.000  0.00  0.00    -0.358 N 
ATOM      5  HN  UNK N   1      33.264   9.766  12.513  1.00  0.00     0.166 HD
HETATM    6  N   UNK N   1      35.092  12.252  13.388  0.00  0.00    -0.322 N 
ENDROOT
BRANCH   6   7
HETATM    7  C   UNK N   1      35.968  13.391  13.152  0.00  0.00     0.162 C 
BRANCH   7   8
HETATM    8  C   UNK N   1      36.800  13.261  11.884  0.00  0.00     0.292 C 
BRANCH   8   9
HETATM    9  N   UNK N   1      36.500  14.410  11.041  0.00  0.00     0.094 N 
HETATM   10  C   UNK N   1      35.642  13.971   9.940  0.00  0.00     0.298 C 
HETATM   11  C   UNK N   1      35.292  15.187   9.083  0.00  0.00     0.198 C 
HETATM   12  O   UNK N   1      34.568  16.111   9.860  0.00  0.00    -0.388 OA
HETATM   13  C   UNK N   1      35.437  16.587  10.862  0.00  0.00     0.198 C 
HETATM   14  C   UNK N   1      35.806  15.440  11.813  0.00  0.00     0.298 C 
ENDBRANCH   8   9
ENDBRANCH   7   8
ENDBRANCH   6   7
BRANCH   3  15
HETATM   15  N   UNK N   1      34.715  12.522  15.806  0.00  0.00    -0.096 N 
HETATM   16  O   UNK N   1      35.634  12.205  16.497  0.00  0.00    -0.530 OA
HETATM   17  O   UNK N   1      33.977  13.386  16.170  0.00  0.00    -0.530 OA
ENDBRANCH   3  15
TORSDOF 4
ENDMDL
MODEL 8
REMARK VINA RESULT:      -4.5      2.295      2.871
REMARK  4 active torsions:
REMARK  status: ('A' for Active; 'I' for Inactive)
REMARK    1  A    between atoms: C_2  and  C_1 
REMARK    2  A    between atoms: N_12  and  C_1 
REMARK    3  A    between atoms: N_13  and  C_2 
REMARK    4  A    between atoms: N_14  and  C_9 
ROOT
HETATM    1  C   UNK N   1      33.192  16.743   8.633  0.00  0.00     0.144 A 
HETATM    2  C   UNK N   1      34.928  16.665   9.923  0.00  0.00     0.184 A 
HETATM    3  C   UNK N   1      33.660  15.449   8.686  0.00  0.00     0.192 A 
HETATM    4  N   UNK N   1      33.997  17.502   9.409  0.00  0.00    -0.358 N 
ATOM      5  HN  UNK N   1      33.919  18.506   9.574  1.00  0.00     0.166 HD
HETATM    6  N   UNK N   1      34.738  15.406   9.489  0.00  0.00    -0.322 N 
ENDROOT
BRANCH   6   7
HETATM    7  C   UNK N   1      35.493  14.230   9.898  0.00  0.00     0.162 C 
BRANCH   7   8
HETATM    8  C   UNK N   1      36.554  14.529  10.948  0.00  0.00     0.292 C 
BRANCH   8   9
HETATM    9  N   UNK N   1      36.303  13.659  12.088  0.00  0.00     0.094 N 
HETATM   10  C   UNK N   1      36.199  14.484  13.293  0.00  0.00     0.298 C 
HETATM   11  C   UNK N   1      35.890  13.572  14.480  0.00  0.00     0.198 C 
HETATM   12  O   UNK N   1      34.649  12.942  14.272  0.00  0.00    -0.388 OA
HETATM   13  C   UNK N   1      34.795  12.087  13.162  0.00  0.00     0.198 C 
HETATM   14  C   UNK N   1      35.055  12.920  11.900  0.00  0.00     0.298 C 
ENDBRANCH   8   9
ENDBRANCH   7   8
ENDBRANCH   6   7
BRANCH   3  15
HETATM   15  N   UNK N   1      33.078  14.332   8.021  0.00  0.00    -0.096 N 
HETATM   16  O   UNK N   1      33.403  14.068   6.903  0.00  0.00    -0.530 OA
HETATM   17  O   UNK N   1      32.278  13.644   8.578  0.00  0.00    -0.530 OA
ENDBRANCH   3  15
TORSDOF 4
ENDMDL
MODEL 9
REMARK VINA RESULT:      -4.5     11.825     13.737
REMARK  4 active torsions:
REMARK  status: ('A' for Active; 'I' for Inactive)
REMARK    1  A    between atoms: C_2  and  C_1 
REMARK    2  A    between atoms: N_12  and  C_1 
REMARK    3  A    between atoms: N_13  and  C_2 
REMARK    4  A    between atoms: N_14  and  C_9 
ROOT
HETATM    1  C   UNK N   1      19.153  16.071   5.948  0.00  0.00     0.144 A 
HETATM    2  C   UNK N   1      20.342  14.268   6.087  0.00  0.00     0.184 A 
HETATM    3  C   UNK N   1      19.927  16.124   7.085  0.00  0.00     0.192 A 
HETATM    4  N   UNK N   1      19.415  14.899   5.328  0.00  0.00    -0.358 N 
ATOM      5  HN  UNK N   1      18.999  14.558   4.461  1.00  0.00     0.166 HD
HETATM    6  N   UNK N   1      20.663  15.001   7.167  0.00  0.00    -0.322 N 
ENDROOT
BRANCH   6   7
HETATM    7  C   UNK N   1      21.680  14.677   8.157  0.00  0.00     0.162 C 
BRANCH   7   8
HETATM    8  C   UNK N   1      21.173  13.772   9.271  0.00  0.00     0.292 C 
BRANCH   8   9
HETATM    9  N   UNK N   1      22.302  13.466  10.138  0.00  0.00     0.094 N 
HETATM   10  C   UNK N   1      21.947  12.326  10.984  0.00  0.00     0.298 C 
HETATM   11  C   UNK N   1      23.149  11.978  11.861  0.00  0.00     0.198 C 
HETATM   12  O   UNK N   1      24.228  11.597  11.042  0.00  0.00    -0.388 OA
HETATM   13  C   UNK N   1      24.612  12.731  10.299  0.00  0.00     0.198 C 
HETATM   14  C   UNK N   1      23.480  13.127   9.341  0.00  0.00     0.298 C 
ENDBRANCH   8   9
ENDBRANCH   7   8
ENDBRANCH   6   7
BRANCH   3  15
HETATM   15  N   UNK N   1      19.963  17.206   8.012  0.00  0.00    -0.096 N 
HETATM   16  O   UNK N   1      20.670  18.144   7.807  0.00  0.00    -0.530 OA
HETATM   17  O   UNK N   1      19.276  17.190   8.988  0.00  0.00    -0.530 OA
ENDBRANCH   3  15
TORSDOF 4
ENDMDL
