MODEL 1
REMARK VINA RESULT:      -7.5      0.000      0.000
REMARK  15 active torsions:
REMARK  status: ('A' for Active; 'I' for Inactive)
REMARK    1  A    between atoms: C_5  and  C_7 
REMARK    2  A    between atoms: C_7  and  O_8 
REMARK    3  A    between atoms: O_8  and  C_9 
REMARK    4  A    between atoms: C_9  and  C_11 
REMARK    5  A    between atoms: C_11  and  C_12 
REMARK    6  A    between atoms: C_12  and  C_13 
REMARK    7  A    between atoms: C_16  and  O_19 
REMARK    8  A    between atoms: O_19  and  C_20 
REMARK    9  A    between atoms: C_20  and  C_21 
REMARK   10  A    between atoms: C_21  and  C_22 
REMARK   11  A    between atoms: C_21  and  O_35 
REMARK   12  A    between atoms: C_22  and  N_23 
REMARK   13  A    between atoms: N_23  and  C_24 
REMARK   14  A    between atoms: C_24  and  C_25 
REMARK   15  A    between atoms: C_25  and  N_26 
REMARK       I    between atoms: N_26  and  C_27 
REMARK       I    between atoms: C_27  and  N_29 
ROOT
HETATM    1  O   UNK N   1      35.782  14.076  11.943  0.00  0.00    -0.349 OA
ENDROOT
BRANCH   1   2
HETATM    2  C   UNK N   1      35.754  13.707  13.245  0.00  0.00     0.068 A 
HETATM    3  C   UNK N   1      36.523  14.379  14.212  0.00  0.00     0.037 A 
HETATM    4  C   UNK N   1      36.416  14.034  15.557  0.00  0.00     0.010 A 
HETATM    5  C   UNK N   1      35.544  13.016  15.948  0.00  0.00    -0.058 A 
HETATM    6  C   UNK N   1      34.801  12.320  14.987  0.00  0.00     0.010 A 
HETATM    7  C   UNK N   1      34.921  12.653  13.636  0.00  0.00     0.037 A 
BRANCH   5   8
HETATM    8  C   UNK N   1      35.231  12.861  17.401  0.00  0.00     0.048 C 
BRANCH   8   9
HETATM    9  C   UNK N   1      35.263  11.365  17.773  0.00  0.00     0.116 C 
BRANCH   9  10
HETATM   10  C   UNK N   1      35.233  11.177  19.267  0.00  0.00     0.259 C 
HETATM   11  O   UNK N   1      35.916  11.901  19.977  0.00  0.00    -0.265 OA
BRANCH  10  12
HETATM   12  O   UNK N   1      34.553  10.128  19.795  0.00  0.00    -0.319 OA
BRANCH  12  13
HETATM   13  C   UNK N   1      34.036  10.121  21.077  0.00  0.00     0.213 C 
BRANCH  13  14
HETATM   14  C   UNK N   1      33.471   8.767  21.489  0.00  0.00     0.173 C 
HETATM   15  C   UNK N   1      32.345   8.920  22.451  0.00  0.00     0.205 C 
HETATM   16  O   UNK N   1      31.558   7.794  22.247  0.00  0.00    -0.353 OA
HETATM   17  C   UNK N   1      31.793   7.434  20.905  0.00  0.00     0.157 C 
HETATM   18  C   UNK N   1      30.592   7.831  20.064  0.00  0.00     0.078 C 
HETATM   19  O   UNK N   1      32.948   8.068  20.403  0.00  0.00    -0.346 OA
HETATM   20  C   UNK N   1      31.985   5.932  20.825  0.00  0.00     0.078 C 
ENDBRANCH  13  14
ENDBRANCH  12  13
ENDBRANCH  10  12
ENDBRANCH   9  10
ENDBRANCH   8   9
ENDBRANCH   5   8
ENDBRANCH   1   2
BRANCH   1  21
HETATM   21  C   UNK N   1      34.804  14.870  11.384  0.00  0.00     0.209 C 
BRANCH  21  22
HETATM   22  C   UNK N   1      35.396  16.166  10.875  0.00  0.00     0.159 C 
BRANCH  22  23
HETATM   23  C   UNK N   1      34.913  16.427   9.465  0.00  0.00     0.147 C 
BRANCH  23  24
HETATM   24  N   UNK N   1      34.877  17.860   9.234  0.00  0.00    -0.417 N 
HETATM   25  H   UNK N   1      35.394  18.571   9.751  0.00  0.00     0.153 HD
BRANCH  24  26
HETATM   26  C   UNK N   1      33.961  18.089   8.125  0.00  0.00     0.133 C 
BRANCH  26  27
HETATM   27  C   UNK N   1      32.639  17.314   8.254  0.00  0.00     0.143 C 
BRANCH  27  28
HETATM   28  N   UNK N   1      31.672  17.969   9.109  0.00  0.00    -0.341 N 
HETATM   29  C   UNK N   1      30.340  18.139   8.855  0.00  0.00     0.318 C 
HETATM   30  O   UNK N   1      29.682  18.767   9.673  0.00  0.00    -0.247 OA
HETATM   31  N   UNK N   1      29.715  17.642   7.735  0.00  0.00    -0.330 N 
HETATM   32  C   UNK N   1      28.302  17.920   7.532  0.00  0.00     0.153 C 
HETATM   33  C   UNK N   1      30.412  16.846   6.733  0.00  0.00     0.153 C 
HETATM   34  C   UNK N   1      28.008  18.270   6.058  0.00  0.00     0.187 C 
HETATM   35  O   UNK N   1      29.146  18.168   5.231  0.00  0.00    -0.388 OA
HETATM   36  C   UNK N   1      29.657  16.873   5.409  0.00  0.00     0.187 C 
HETATM   37  H   UNK N   1      32.008  18.330   9.961  0.00  0.00     0.164 HD
ENDBRANCH  27  28
ENDBRANCH  26  27
ENDBRANCH  24  26
ENDBRANCH  23  24
ENDBRANCH  22  23
BRANCH  22  38
HETATM   38  O   UNK N   1      36.785  16.062  10.869  0.00  0.00    -0.392 OA
HETATM   39  H   UNK N   1      37.407  15.677  11.505  0.00  0.00     0.210 HD
ENDBRANCH  22  38
ENDBRANCH  21  22
ENDBRANCH   1  21
TORSDOF 15
ENDMDL
MODEL 2
REMARK VINA RESULT:      -7.4      7.350     16.043
REMARK  15 active torsions:
REMARK  status: ('A' for Active; 'I' for Inactive)
REMARK    1  A    between atoms: C_5  and  C_7 
REMARK    2  A    between atoms: C_7  and  O_8 
REMARK    3  A    between atoms: O_8  and  C_9 
REMARK    4  A    between atoms: C_9  and  C_11 
REMARK    5  A    between atoms: C_11  and  C_12 
REMARK    6  A    between atoms: C_12  and  C_13 
REMARK    7  A    between atoms: C_16  and  O_19 
REMARK    8  A    between atoms: O_19  and  C_20 
REMARK    9  A    between atoms: C_20  and  C_21 
REMARK   10  A    between atoms: C_21  and  C_22 
REMARK   11  A    between atoms: C_21  and  O_35 
REMARK   12  A    between atoms: C_22  and  N_23 
REMARK   13  A    between atoms: N_23  and  C_24 
REMARK   14  A    between atoms: C_24  and  C_25 
REMARK   15  A    between atoms: C_25  and  N_26 
REMARK       I    between atoms: N_26  and  C_27 
REMARK       I    between atoms: C_27  and  N_29 
ROOT
HETATM    1  O   UNK N   1      27.561  17.695   6.582  0.00  0.00    -0.349 OA
ENDROOT
BRANCH   1   2
HETATM    2  C   UNK N   1      26.858  18.364   5.639  0.00  0.00     0.068 A 
HETATM    3  C   UNK N   1      26.182  17.683   4.611  0.00  0.00     0.037 A 
HETATM    4  C   UNK N   1      25.398  18.388   3.700  0.00  0.00     0.010 A 
HETATM    5  C   UNK N   1      25.285  19.775   3.805  0.00  0.00    -0.058 A 
HETATM    6  C   UNK N   1      25.982  20.463   4.805  0.00  0.00     0.010 A 
HETATM    7  C   UNK N   1      26.782  19.759   5.708  0.00  0.00     0.037 A 
BRANCH   5   8
HETATM    8  C   UNK N   1      24.225  20.469   3.012  0.00  0.00     0.048 C 
BRANCH   8   9
HETATM    9  C   UNK N   1      22.880  19.744   3.215  0.00  0.00     0.116 C 
BRANCH   9  10
HETATM   10  C   UNK N   1      21.756  20.489   2.542  0.00  0.00     0.259 C 
HETATM   11  O   UNK N   1      21.735  21.710   2.586  0.00  0.00    -0.265 OA
BRANCH  10  12
HETATM   12  O   UNK N   1      20.718  19.795   2.011  0.00  0.00    -0.319 OA
BRANCH  12  13
HETATM   13  C   UNK N   1      19.669  19.298   2.761  0.00  0.00     0.213 C 
BRANCH  13  14
HETATM   14  C   UNK N   1      19.594  17.775   2.753  0.00  0.00     0.173 C 
HETATM   15  C   UNK N   1      20.129  17.214   1.482  0.00  0.00     0.205 C 
HETATM   16  O   UNK N   1      20.592  15.951   1.826  0.00  0.00    -0.353 OA
HETATM   17  C   UNK N   1      20.932  16.057   3.190  0.00  0.00     0.157 C 
HETATM   18  C   UNK N   1      22.443  16.118   3.324  0.00  0.00     0.078 C 
HETATM   19  O   UNK N   1      20.363  17.210   3.768  0.00  0.00    -0.346 OA
HETATM   20  C   UNK N   1      20.413  14.835   3.923  0.00  0.00     0.078 C 
ENDBRANCH  13  14
ENDBRANCH  12  13
ENDBRANCH  10  12
ENDBRANCH   9  10
ENDBRANCH   8   9
ENDBRANCH   5   8
ENDBRANCH   1   2
BRANCH   1  21
HETATM   21  C   UNK N   1      28.610  18.273   7.264  0.00  0.00     0.209 C 
BRANCH  21  22
HETATM   22  C   UNK N   1      28.432  18.105   8.757  0.00  0.00     0.159 C 
BRANCH  22  23
HETATM   23  C   UNK N   1      29.699  17.540   9.360  0.00  0.00     0.147 C 
BRANCH  23  24
HETATM   24  N   UNK N   1      30.717  17.451   8.328  0.00  0.00    -0.417 N 
HETATM   25  H   UNK N   1      30.779  18.024   7.487  0.00  0.00     0.153 HD
BRANCH  24  26
HETATM   26  C   UNK N   1      31.632  16.388   8.723  0.00  0.00     0.133 C 
BRANCH  26  27
HETATM   27  C   UNK N   1      33.105  16.701   8.408  0.00  0.00     0.143 C 
BRANCH  27  28
HETATM   28  N   UNK N   1      33.852  17.159   9.560  0.00  0.00    -0.341 N 
HETATM   29  C   UNK N   1      34.957  16.568  10.103  0.00  0.00     0.318 C 
HETATM   30  O   UNK N   1      35.430  17.068  11.115  0.00  0.00    -0.247 OA
HETATM   31  N   UNK N   1      35.554  15.448   9.572  0.00  0.00    -0.330 N 
HETATM   32  C   UNK N   1      36.698  14.865  10.255  0.00  0.00     0.153 C 
HETATM   33  C   UNK N   1      35.085  14.813   8.347  0.00  0.00     0.153 C 
HETATM   34  C   UNK N   1      36.610  13.324  10.277  0.00  0.00     0.187 C 
HETATM   35  O   UNK N   1      35.494  12.827   9.570  0.00  0.00    -0.388 OA
HETATM   36  C   UNK N   1      35.564  13.368   8.277  0.00  0.00     0.187 C 
HETATM   37  H   UNK N   1      33.532  17.981   9.997  0.00  0.00     0.164 HD
ENDBRANCH  27  28
ENDBRANCH  26  27
ENDBRANCH  24  26
ENDBRANCH  23  24
ENDBRANCH  22  23
BRANCH  22  38
HETATM   38  O   UNK N   1      27.381  17.222   8.995  0.00  0.00    -0.392 OA
HETATM   39  H   UNK N   1      26.661  16.906   8.429  0.00  0.00     0.210 HD
ENDBRANCH  22  38
ENDBRANCH  21  22
ENDBRANCH   1  21
TORSDOF 15
ENDMDL
MODEL 3
REMARK VINA RESULT:      -7.4      9.240     14.821
REMARK  15 active torsions:
REMARK  status: ('A' for Active; 'I' for Inactive)
REMARK    1  A    between atoms: C_5  and  C_7 
REMARK    2  A    between atoms: C_7  and  O_8 
REMARK    3  A    between atoms: O_8  and  C_9 
REMARK    4  A    between atoms: C_9  and  C_11 
REMARK    5  A    between atoms: C_11  and  C_12 
REMARK    6  A    between atoms: C_12  and  C_13 
REMARK    7  A    between atoms: C_16  and  O_19 
REMARK    8  A    between atoms: O_19  and  C_20 
REMARK    9  A    between atoms: C_20  and  C_21 
REMARK   10  A    between atoms: C_21  and  C_22 
REMARK   11  A    between atoms: C_21  and  O_35 
REMARK   12  A    between atoms: C_22  and  N_23 
REMARK   13  A    between atoms: N_23  and  C_24 
REMARK   14  A    between atoms: C_24  and  C_25 
REMARK   15  A    between atoms: C_25  and  N_26 
REMARK       I    between atoms: N_26  and  C_27 
REMARK       I    between atoms: C_27  and  N_29 
ROOT
HETATM    1  O   UNK N   1      23.426  20.653   2.468  0.00  0.00    -0.349 OA
ENDROOT
BRANCH   1   2
HETATM    2  C   UNK N   1      24.526  20.203   3.114  0.00  0.00     0.068 A 
HETATM    3  C   UNK N   1      25.808  20.688   2.800  0.00  0.00     0.037 A 
HETATM    4  C   UNK N   1      26.916  20.270   3.533  0.00  0.00     0.010 A 
HETATM    5  C   UNK N   1      26.755  19.364   4.584  0.00  0.00    -0.058 A 
HETATM    6  C   UNK N   1      25.486  18.851   4.880  0.00  0.00     0.010 A 
HETATM    7  C   UNK N   1      24.378  19.257   4.133  0.00  0.00     0.037 A 
BRANCH   5   8
HETATM    8  C   UNK N   1      27.891  19.156   5.531  0.00  0.00     0.048 C 
BRANCH   8   9
HETATM    9  C   UNK N   1      28.892  18.158   4.915  0.00  0.00     0.116 C 
BRANCH   9  10
HETATM   10  C   UNK N   1      29.125  16.986   5.832  0.00  0.00     0.259 C 
HETATM   11  O   UNK N   1      28.173  16.474   6.403  0.00  0.00    -0.265 OA
BRANCH  10  12
HETATM   12  O   UNK N   1      30.395  16.600   6.115  0.00  0.00    -0.319 OA
BRANCH  12  13
HETATM   13  C   UNK N   1      31.511  17.342   5.779  0.00  0.00     0.213 C 
BRANCH  13  14
HETATM   14  C   UNK N   1      32.721  17.037   6.654  0.00  0.00     0.173 C 
HETATM   15  C   UNK N   1      32.722  17.875   7.885  0.00  0.00     0.205 C 
HETATM   16  O   UNK N   1      33.412  17.116   8.822  0.00  0.00    -0.353 OA
HETATM   17  C   UNK N   1      33.201  15.780   8.422  0.00  0.00     0.157 C 
HETATM   18  C   UNK N   1      32.192  15.133   9.354  0.00  0.00     0.078 C 
HETATM   19  O   UNK N   1      32.724  15.716   7.096  0.00  0.00    -0.346 OA
HETATM   20  C   UNK N   1      34.515  15.029   8.506  0.00  0.00     0.078 C 
ENDBRANCH  13  14
ENDBRANCH  12  13
ENDBRANCH  10  12
ENDBRANCH   9  10
ENDBRANCH   8   9
ENDBRANCH   5   8
ENDBRANCH   1   2
BRANCH   1  21
HETATM   21  C   UNK N   1      22.155  20.477   2.971  0.00  0.00     0.209 C 
BRANCH  21  22
HETATM   22  C   UNK N   1      21.118  20.729   1.899  0.00  0.00     0.159 C 
BRANCH  22  23
HETATM   23  C   UNK N   1      20.046  19.664   1.968  0.00  0.00     0.147 C 
BRANCH  23  24
HETATM   24  N   UNK N   1      20.311  18.657   0.955  0.00  0.00    -0.417 N 
HETATM   25  H   UNK N   1      20.678  18.822   0.018  0.00  0.00     0.153 HD
BRANCH  24  26
HETATM   26  C   UNK N   1      19.951  17.369   1.531  0.00  0.00     0.133 C 
BRANCH  26  27
HETATM   27  C   UNK N   1      20.239  17.272   3.040  0.00  0.00     0.143 C 
BRANCH  27  28
HETATM   28  N   UNK N   1      19.137  16.717   3.799  0.00  0.00    -0.341 N 
HETATM   29  C   UNK N   1      19.189  16.227   5.072  0.00  0.00     0.318 C 
HETATM   30  O   UNK N   1      18.165  15.746   5.538  0.00  0.00    -0.247 OA
HETATM   31  N   UNK N   1      20.328  16.247   5.844  0.00  0.00    -0.330 N 
HETATM   32  C   UNK N   1      20.293  15.653   7.171  0.00  0.00     0.153 C 
HETATM   33  C   UNK N   1      21.578  16.838   5.387  0.00  0.00     0.153 C 
HETATM   34  C   UNK N   1      21.574  14.841   7.455  0.00  0.00     0.187 C 
HETATM   35  O   UNK N   1      22.516  14.919   6.407  0.00  0.00    -0.388 OA
HETATM   36  C   UNK N   1      22.754  16.283   6.181  0.00  0.00     0.187 C 
HETATM   37  H   UNK N   1      18.261  16.691   3.351  0.00  0.00     0.164 HD
ENDBRANCH  27  28
ENDBRANCH  26  27
ENDBRANCH  24  26
ENDBRANCH  23  24
ENDBRANCH  22  23
BRANCH  22  38
HETATM   38  O   UNK N   1      21.731  20.677   0.649  0.00  0.00    -0.392 OA
HETATM   39  H   UNK N   1      21.441  20.978  -0.226  0.00  0.00     0.210 HD
ENDBRANCH  22  38
ENDBRANCH  21  22
ENDBRANCH   1  21
TORSDOF 15
ENDMDL
MODEL 4
REMARK VINA RESULT:      -7.1      6.887     10.903
REMARK  15 active torsions:
REMARK  status: ('A' for Active; 'I' for Inactive)
REMARK    1  A    between atoms: C_5  and  C_7 
REMARK    2  A    between atoms: C_7  and  O_8 
REMARK    3  A    between atoms: O_8  and  C_9 
REMARK    4  A    between atoms: C_9  and  C_11 
REMARK    5  A    between atoms: C_11  and  C_12 
REMARK    6  A    between atoms: C_12  and  C_13 
REMARK    7  A    between atoms: C_16  and  O_19 
REMARK    8  A    between atoms: O_19  and  C_20 
REMARK    9  A    between atoms: C_20  and  C_21 
REMARK   10  A    between atoms: C_21  and  C_22 
REMARK   11  A    between atoms: C_21  and  O_35 
REMARK   12  A    between atoms: C_22  and  N_23 
REMARK   13  A    between atoms: N_23  and  C_24 
REMARK   14  A    between atoms: C_24  and  C_25 
REMARK   15  A    between atoms: C_25  and  N_26 
REMARK       I    between atoms: N_26  and  C_27 
REMARK       I    between atoms: C_27  and  N_29 
ROOT
HETATM    1  O   UNK N   1      28.885  17.879   5.173  0.00  0.00    -0.349 OA
ENDROOT
BRANCH   1   2
HETATM    2  C   UNK N   1      30.144  17.589   5.575  0.00  0.00     0.068 A 
HETATM    3  C   UNK N   1      31.212  17.554   4.661  0.00  0.00     0.037 A 
HETATM    4  C   UNK N   1      32.513  17.333   5.110  0.00  0.00     0.010 A 
HETATM    5  C   UNK N   1      32.757  17.144   6.471  0.00  0.00    -0.058 A 
HETATM    6  C   UNK N   1      31.694  17.145   7.383  0.00  0.00     0.010 A 
HETATM    7  C   UNK N   1      30.388  17.348   6.931  0.00  0.00     0.037 A 
BRANCH   5   8
HETATM    8  C   UNK N   1      34.168  17.200   6.960  0.00  0.00     0.048 C 
BRANCH   8   9
HETATM    9  C   UNK N   1      34.213  17.952   8.305  0.00  0.00     0.116 C 
BRANCH   9  10
HETATM   10  C   UNK N   1      34.806  17.091   9.389  0.00  0.00     0.259 C 
HETATM   11  O   UNK N   1      35.571  17.592  10.200  0.00  0.00    -0.265 OA
BRANCH  10  12
HETATM   12  O   UNK N   1      34.589  15.752   9.373  0.00  0.00    -0.319 OA
BRANCH  12  13
HETATM   13  C   UNK N   1      33.996  15.063  10.414  0.00  0.00     0.213 C 
BRANCH  13  14
HETATM   14  C   UNK N   1      34.794  13.842  10.858  0.00  0.00     0.173 C 
HETATM   15  C   UNK N   1      34.990  12.886   9.734  0.00  0.00     0.205 C 
HETATM   16  O   UNK N   1      36.172  12.225  10.041  0.00  0.00    -0.353 OA
HETATM   17  C   UNK N   1      36.903  13.148  10.816  0.00  0.00     0.157 C 
HETATM   18  C   UNK N   1      38.018  13.739   9.971  0.00  0.00     0.078 C 
HETATM   19  O   UNK N   1      36.073  14.185  11.289  0.00  0.00    -0.346 OA
HETATM   20  C   UNK N   1      37.506  12.424  12.004  0.00  0.00     0.078 C 
ENDBRANCH  13  14
ENDBRANCH  12  13
ENDBRANCH  10  12
ENDBRANCH   9  10
ENDBRANCH   8   9
ENDBRANCH   5   8
ENDBRANCH   1   2
BRANCH   1  21
HETATM   21  C   UNK N   1      28.043  16.922   4.648  0.00  0.00     0.209 C 
BRANCH  21  22
HETATM   22  C   UNK N   1      26.661  17.039   5.252  0.00  0.00     0.159 C 
BRANCH  22  23
HETATM   23  C   UNK N   1      26.138  18.445   5.058  0.00  0.00     0.147 C 
BRANCH  23  24
HETATM   24  N   UNK N   1      26.694  18.993   3.833  0.00  0.00    -0.417 N 
HETATM   25  H   UNK N   1      27.683  19.129   3.624  0.00  0.00     0.153 HD
BRANCH  24  26
HETATM   26  C   UNK N   1      25.571  19.313   2.962  0.00  0.00     0.133 C 
BRANCH  26  27
HETATM   27  C   UNK N   1      24.384  19.951   3.704  0.00  0.00     0.143 C 
BRANCH  27  28
HETATM   28  N   UNK N   1      23.488  20.680   2.831  0.00  0.00    -0.341 N 
HETATM   29  C   UNK N   1      22.153  20.453   2.657  0.00  0.00     0.318 C 
HETATM   30  O   UNK N   1      21.562  21.138   1.833  0.00  0.00    -0.247 OA
HETATM   31  N   UNK N   1      21.452  19.498   3.356  0.00  0.00    -0.330 N 
HETATM   32  C   UNK N   1      20.041  19.298   3.062  0.00  0.00     0.153 C 
HETATM   33  C   UNK N   1      22.064  18.667   4.385  0.00  0.00     0.153 C 
HETATM   34  C   UNK N   1      19.684  17.797   3.029  0.00  0.00     0.187 C 
HETATM   35  O   UNK N   1      20.773  16.966   3.365  0.00  0.00    -0.388 OA
HETATM   36  C   UNK N   1      21.243  17.404   4.612  0.00  0.00     0.187 C 
HETATM   37  H   UNK N   1      23.882  21.417   2.308  0.00  0.00     0.164 HD
ENDBRANCH  27  28
ENDBRANCH  26  27
ENDBRANCH  24  26
ENDBRANCH  23  24
ENDBRANCH  22  23
BRANCH  22  38
HETATM   38  O   UNK N   1      26.733  16.764   6.616  0.00  0.00    -0.392 OA
HETATM   39  H   UNK N   1      27.453  16.862   7.258  0.00  0.00     0.210 HD
ENDBRANCH  22  38
ENDBRANCH  21  22
ENDBRANCH   1  21
TORSDOF 15
ENDMDL
MODEL 5
REMARK VINA RESULT:      -7.1      8.191     11.596
REMARK  15 active torsions:
REMARK  status: ('A' for Active; 'I' for Inactive)
REMARK    1  A    between atoms: C_5  and  C_7 
REMARK    2  A    between atoms: C_7  and  O_8 
REMARK    3  A    between atoms: O_8  and  C_9 
REMARK    4  A    between atoms: C_9  and  C_11 
REMARK    5  A    between atoms: C_11  and  C_12 
REMARK    6  A    between atoms: C_12  and  C_13 
REMARK    7  A    between atoms: C_16  and  O_19 
REMARK    8  A    between atoms: O_19  and  C_20 
REMARK    9  A    between atoms: C_20  and  C_21 
REMARK   10  A    between atoms: C_21  and  C_22 
REMARK   11  A    between atoms: C_21  and  O_35 
REMARK   12  A    between atoms: C_22  and  N_23 
REMARK   13  A    between atoms: N_23  and  C_24 
REMARK   14  A    between atoms: C_24  and  C_25 
REMARK   15  A    between atoms: C_25  and  N_26 
REMARK       I    between atoms: N_26  and  C_27 
REMARK       I    between atoms: C_27  and  N_29 
ROOT
HETATM    1  O   UNK N   1      28.611  17.948   5.085  0.00  0.00    -0.349 OA
ENDROOT
BRANCH   1   2
HETATM    2  C   UNK N   1      29.887  17.669   5.439  0.00  0.00     0.068 A 
HETATM    3  C   UNK N   1      30.928  17.685   4.493  0.00  0.00     0.037 A 
HETATM    4  C   UNK N   1      32.245  17.474   4.895  0.00  0.00     0.010 A 
HETATM    5  C   UNK N   1      32.534  17.244   6.241  0.00  0.00    -0.058 A 
HETATM    6  C   UNK N   1      31.499  17.193   7.183  0.00  0.00     0.010 A 
HETATM    7  C   UNK N   1      30.177  17.387   6.778  0.00  0.00     0.037 A 
BRANCH   5   8
HETATM    8  C   UNK N   1      33.958  17.311   6.689  0.00  0.00     0.048 C 
BRANCH   8   9
HETATM    9  C   UNK N   1      34.035  18.057   8.035  0.00  0.00     0.116 C 
BRANCH   9  10
HETATM   10  C   UNK N   1      34.561  17.158   9.124  0.00  0.00     0.259 C 
HETATM   11  O   UNK N   1      35.384  17.595   9.916  0.00  0.00    -0.265 OA
BRANCH  10  12
HETATM   12  O   UNK N   1      34.215  15.846   9.134  0.00  0.00    -0.319 OA
BRANCH  12  13
HETATM   13  C   UNK N   1      35.107  14.825   9.400  0.00  0.00     0.213 C 
BRANCH  13  14
HETATM   14  C   UNK N   1      34.815  13.553   8.612  0.00  0.00     0.173 C 
HETATM   15  C   UNK N   1      33.566  12.897   9.086  0.00  0.00     0.205 C 
HETATM   16  O   UNK N   1      33.090  12.211   7.977  0.00  0.00    -0.353 OA
HETATM   17  C   UNK N   1      33.577  12.940   6.873  0.00  0.00     0.157 C 
HETATM   18  C   UNK N   1      32.441  13.741   6.263  0.00  0.00     0.078 C 
HETATM   19  O   UNK N   1      34.614  13.814   7.258  0.00  0.00    -0.346 OA
HETATM   20  C   UNK N   1      34.114  11.968   5.841  0.00  0.00     0.078 C 
ENDBRANCH  13  14
ENDBRANCH  12  13
ENDBRANCH  10  12
ENDBRANCH   9  10
ENDBRANCH   8   9
ENDBRANCH   5   8
ENDBRANCH   1   2
BRANCH   1  21
HETATM   21  C   UNK N   1      27.827  17.048   4.396  0.00  0.00     0.209 C 
BRANCH  21  22
HETATM   22  C   UNK N   1      26.409  17.063   4.923  0.00  0.00     0.159 C 
BRANCH  22  23
HETATM   23  C   UNK N   1      25.765  18.396   4.613  0.00  0.00     0.147 C 
BRANCH  23  24
HETATM   24  N   UNK N   1      26.545  19.074   3.592  0.00  0.00    -0.417 N 
HETATM   25  H   UNK N   1      27.538  18.942   3.401  0.00  0.00     0.153 HD
BRANCH  24  26
HETATM   26  C   UNK N   1      25.641  19.978   2.895  0.00  0.00     0.133 C 
BRANCH  26  27
HETATM   27  C   UNK N   1      24.252  20.078   3.550  0.00  0.00     0.143 C 
BRANCH  27  28
HETATM   28  N   UNK N   1      23.291  20.804   2.746  0.00  0.00    -0.341 N 
HETATM   29  C   UNK N   1      21.963  20.517   2.603  0.00  0.00     0.318 C 
HETATM   30  O   UNK N   1      21.310  21.212   1.837  0.00  0.00    -0.247 OA
HETATM   31  N   UNK N   1      21.336  19.491   3.273  0.00  0.00    -0.330 N 
HETATM   32  C   UNK N   1      19.928  19.234   3.013  0.00  0.00     0.153 C 
HETATM   33  C   UNK N   1      22.025  18.642   4.235  0.00  0.00     0.153 C 
HETATM   34  C   UNK N   1      19.645  17.720   2.911  0.00  0.00     0.187 C 
HETATM   35  O   UNK N   1      20.786  16.930   3.167  0.00  0.00    -0.388 OA
HETATM   36  C   UNK N   1      21.277  17.328   4.420  0.00  0.00     0.187 C 
HETATM   37  H   UNK N   1      23.628  21.586   2.252  0.00  0.00     0.164 HD
ENDBRANCH  27  28
ENDBRANCH  26  27
ENDBRANCH  24  26
ENDBRANCH  23  24
ENDBRANCH  22  23
BRANCH  22  38
HETATM   38  O   UNK N   1      26.433  16.879   6.304  0.00  0.00    -0.392 OA
HETATM   39  H   UNK N   1      27.104  17.086   6.972  0.00  0.00     0.210 HD
ENDBRANCH  22  38
ENDBRANCH  21  22
ENDBRANCH   1  21
TORSDOF 15
ENDMDL
MODEL 6
REMARK VINA RESULT:      -7.0      4.008      7.307
REMARK  15 active torsions:
REMARK  status: ('A' for Active; 'I' for Inactive)
REMARK    1  A    between atoms: C_5  and  C_7 
REMARK    2  A    between atoms: C_7  and  O_8 
REMARK    3  A    between atoms: O_8  and  C_9 
REMARK    4  A    between atoms: C_9  and  C_11 
REMARK    5  A    between atoms: C_11  and  C_12 
REMARK    6  A    between atoms: C_12  and  C_13 
REMARK    7  A    between atoms: C_16  and  O_19 
REMARK    8  A    between atoms: O_19  and  C_20 
REMARK    9  A    between atoms: C_20  and  C_21 
REMARK   10  A    between atoms: C_21  and  C_22 
REMARK   11  A    between atoms: C_21  and  O_35 
REMARK   12  A    between atoms: C_22  and  N_23 
REMARK   13  A    between atoms: N_23  and  C_24 
REMARK   14  A    between atoms: C_24  and  C_25 
REMARK   15  A    between atoms: C_25  and  N_26 
REMARK       I    between atoms: N_26  and  C_27 
REMARK       I    between atoms: C_27  and  N_29 
ROOT
HETATM    1  O   UNK N   1      30.469  17.711   7.551  0.00  0.00    -0.349 OA
ENDROOT
BRANCH   1   2
HETATM    2  C   UNK N   1      31.556  16.970   7.867  0.00  0.00     0.068 A 
HETATM    3  C   UNK N   1      32.649  17.533   8.551  0.00  0.00     0.037 A 
HETATM    4  C   UNK N   1      33.722  16.732   8.936  0.00  0.00     0.010 A 
HETATM    5  C   UNK N   1      33.715  15.367   8.642  0.00  0.00    -0.058 A 
HETATM    6  C   UNK N   1      32.646  14.808   7.931  0.00  0.00     0.010 A 
HETATM    7  C   UNK N   1      31.578  15.614   7.529  0.00  0.00     0.037 A 
BRANCH   5   8
HETATM    8  C   UNK N   1      34.720  14.486   9.308  0.00  0.00     0.048 C 
BRANCH   8   9
HETATM    9  C   UNK N   1      34.429  14.433  10.821  0.00  0.00     0.116 C 
BRANCH   9  10
HETATM   10  C   UNK N   1      35.639  14.838  11.621  0.00  0.00     0.259 C 
HETATM   11  O   UNK N   1      36.203  15.892  11.363  0.00  0.00    -0.265 OA
BRANCH  10  12
HETATM   12  O   UNK N   1      36.164  13.973  12.525  0.00  0.00    -0.319 OA
BRANCH  12  13
HETATM   13  C   UNK N   1      36.285  14.258  13.872  0.00  0.00     0.213 C 
BRANCH  13  14
HETATM   14  C   UNK N   1      36.307  13.011  14.749  0.00  0.00     0.173 C 
HETATM   15  C   UNK N   1      35.407  13.161  15.925  0.00  0.00     0.205 C 
HETATM   16  O   UNK N   1      35.027  11.863  16.241  0.00  0.00    -0.353 OA
HETATM   17  C   UNK N   1      35.104  11.164  15.019  0.00  0.00     0.157 C 
HETATM   18  C   UNK N   1      33.700  10.931  14.487  0.00  0.00     0.078 C 
HETATM   19  O   UNK N   1      35.853  11.886  14.067  0.00  0.00    -0.346 OA
HETATM   20  C   UNK N   1      35.776   9.827  15.259  0.00  0.00     0.078 C 
ENDBRANCH  13  14
ENDBRANCH  12  13
ENDBRANCH  10  12
ENDBRANCH   9  10
ENDBRANCH   8   9
ENDBRANCH   5   8
ENDBRANCH   1   2
BRANCH   1  21
HETATM   21  C   UNK N   1      29.633  18.235   8.513  0.00  0.00     0.209 C 
BRANCH  21  22
HETATM   22  C   UNK N   1      28.363  17.418   8.618  0.00  0.00     0.159 C 
BRANCH  22  23
HETATM   23  C   UNK N   1      27.792  17.186   7.237  0.00  0.00     0.147 C 
BRANCH  23  24
HETATM   24  N   UNK N   1      27.564  18.469   6.595  0.00  0.00    -0.417 N 
HETATM   25  H   UNK N   1      27.429  19.365   7.063  0.00  0.00     0.153 HD
BRANCH  24  26
HETATM   26  C   UNK N   1      27.565  18.233   5.158  0.00  0.00     0.133 C 
BRANCH  26  27
HETATM   27  C   UNK N   1      28.643  17.234   4.703  0.00  0.00     0.143 C 
BRANCH  27  28
HETATM   28  N   UNK N   1      29.950  17.836   4.545  0.00  0.00    -0.341 N 
HETATM   29  C   UNK N   1      31.099  17.204   4.161  0.00  0.00     0.318 C 
HETATM   30  O   UNK N   1      32.129  17.864   4.132  0.00  0.00    -0.247 OA
HETATM   31  N   UNK N   1      31.149  15.874   3.812  0.00  0.00    -0.330 N 
HETATM   32  C   UNK N   1      32.431  15.281   3.466  0.00  0.00     0.153 C 
HETATM   33  C   UNK N   1      29.965  15.025   3.776  0.00  0.00     0.153 C 
HETATM   34  C   UNK N   1      32.582  13.875   4.084  0.00  0.00     0.187 C 
HETATM   35  O   UNK N   1      31.426  13.451   4.773  0.00  0.00    -0.388 OA
HETATM   36  C   UNK N   1      30.358  13.556   3.869  0.00  0.00     0.187 C 
HETATM   37  H   UNK N   1      30.020  18.800   4.733  0.00  0.00     0.164 HD
ENDBRANCH  27  28
ENDBRANCH  26  27
ENDBRANCH  24  26
ENDBRANCH  23  24
ENDBRANCH  22  23
BRANCH  22  38
HETATM   38  O   UNK N   1      27.432  18.117   9.384  0.00  0.00    -0.392 OA
HETATM   39  H   UNK N   1      26.531  18.417   9.190  0.00  0.00     0.210 HD
ENDBRANCH  22  38
ENDBRANCH  21  22
ENDBRANCH   1  21
TORSDOF 15
ENDMDL
MODEL 7
REMARK VINA RESULT:      -7.0     10.115     12.764
REMARK  15 active torsions:
REMARK  status: ('A' for Active; 'I' for Inactive)
REMARK    1  A    between atoms: C_5  and  C_7 
REMARK    2  A    between atoms: C_7  and  O_8 
REMARK    3  A    between atoms: O_8  and  C_9 
REMARK    4  A    between atoms: C_9  and  C_11 
REMARK    5  A    between atoms: C_11  and  C_12 
REMARK    6  A    between atoms: C_12  and  C_13 
REMARK    7  A    between atoms: C_16  and  O_19 
REMARK    8  A    between atoms: O_19  and  C_20 
REMARK    9  A    between atoms: C_20  and  C_21 
REMARK   10  A    between atoms: C_21  and  C_22 
REMARK   11  A    between atoms: C_21  and  O_35 
REMARK   12  A    between atoms: C_22  and  N_23 
REMARK   13  A    between atoms: N_23  and  C_24 
REMARK   14  A    between atoms: C_24  and  C_25 
REMARK   15  A    between atoms: C_25  and  N_26 
REMARK       I    between atoms: N_26  and  C_27 
REMARK       I    between atoms: C_27  and  N_29 
ROOT
HETATM    1  O   UNK N   1      26.803  16.126   4.236  0.00  0.00    -0.349 OA
ENDROOT
BRANCH   1   2
HETATM    2  C   UNK N   1      28.147  16.002   4.330  0.00  0.00     0.068 A 
HETATM    3  C   UNK N   1      29.009  16.983   3.808  0.00  0.00     0.037 A 
HETATM    4  C   UNK N   1      30.386  16.874   3.987  0.00  0.00     0.010 A 
HETATM    5  C   UNK N   1      30.914  15.787   4.687  0.00  0.00    -0.058 A 
HETATM    6  C   UNK N   1      30.064  14.790   5.181  0.00  0.00     0.010 A 
HETATM    7  C   UNK N   1      28.684  14.890   4.985  0.00  0.00     0.037 A 
BRANCH   5   8
HETATM    8  C   UNK N   1      32.344  15.838   5.116  0.00  0.00     0.048 C 
BRANCH   8   9
HETATM    9  C   UNK N   1      32.782  17.309   5.261  0.00  0.00     0.116 C 
BRANCH   9  10
HETATM   10  C   UNK N   1      33.332  17.578   6.637  0.00  0.00     0.259 C 
HETATM   11  O   UNK N   1      34.461  18.033   6.752  0.00  0.00    -0.265 OA
BRANCH  10  12
HETATM   12  O   UNK N   1      32.624  17.193   7.728  0.00  0.00    -0.319 OA
BRANCH  12  13
HETATM   13  C   UNK N   1      31.911  18.070   8.524  0.00  0.00     0.213 C 
BRANCH  13  14
HETATM   14  C   UNK N   1      30.484  17.609   8.795  0.00  0.00     0.173 C 
HETATM   15  C   UNK N   1      29.728  18.622   9.582  0.00  0.00     0.205 C 
HETATM   16  O   UNK N   1      28.402  18.425   9.220  0.00  0.00    -0.353 OA
HETATM   17  C   UNK N   1      28.464  17.894   7.916  0.00  0.00     0.157 C 
HETATM   18  C   UNK N   1      28.072  18.971   6.920  0.00  0.00     0.078 C 
HETATM   19  O   UNK N   1      29.762  17.429   7.618  0.00  0.00    -0.346 OA
HETATM   20  C   UNK N   1      27.492  16.735   7.810  0.00  0.00     0.078 C 
ENDBRANCH  13  14
ENDBRANCH  12  13
ENDBRANCH  10  12
ENDBRANCH   9  10
ENDBRANCH   8   9
ENDBRANCH   5   8
ENDBRANCH   1   2
BRANCH   1  21
HETATM   21  C   UNK N   1      26.166  16.323   3.030  0.00  0.00     0.209 C 
BRANCH  21  22
HETATM   22  C   UNK N   1      25.664  15.010   2.471  0.00  0.00     0.159 C 
BRANCH  22  23
HETATM   23  C   UNK N   1      25.137  14.146   3.596  0.00  0.00     0.147 C 
BRANCH  23  24
HETATM   24  N   UNK N   1      23.839  14.649   4.012  0.00  0.00    -0.417 N 
HETATM   25  H   UNK N   1      23.103  15.004   3.402  0.00  0.00     0.153 HD
BRANCH  24  26
HETATM   26  C   UNK N   1      23.789  14.549   5.464  0.00  0.00     0.133 C 
BRANCH  26  27
HETATM   27  C   UNK N   1      23.313  15.842   6.149  0.00  0.00     0.143 C 
BRANCH  27  28
HETATM   28  N   UNK N   1      24.023  17.022   5.703  0.00  0.00    -0.341 N 
HETATM   29  C   UNK N   1      23.512  18.049   4.961  0.00  0.00     0.318 C 
HETATM   30  O   UNK N   1      24.277  18.945   4.629  0.00  0.00    -0.247 OA
HETATM   31  N   UNK N   1      22.194  18.121   4.575  0.00  0.00    -0.330 N 
HETATM   32  C   UNK N   1      21.760  19.232   3.743  0.00  0.00     0.153 C 
HETATM   33  C   UNK N   1      21.205  17.123   4.962  0.00  0.00     0.153 C 
HETATM   34  C   UNK N   1      20.799  18.757   2.632  0.00  0.00     0.187 C 
HETATM   35  O   UNK N   1      20.499  17.381   2.718  0.00  0.00    -0.388 OA
HETATM   36  C   UNK N   1      20.013  17.155   4.014  0.00  0.00     0.187 C 
HETATM   37  H   UNK N   1      24.971  17.092   5.959  0.00  0.00     0.164 HD
ENDBRANCH  27  28
ENDBRANCH  26  27
ENDBRANCH  24  26
ENDBRANCH  23  24
ENDBRANCH  22  23
BRANCH  22  38
HETATM   38  O   UNK N   1      26.717  14.347   1.844  0.00  0.00    -0.392 OA
HETATM   39  H   UNK N   1      26.734  13.694   1.128  0.00  0.00     0.210 HD
ENDBRANCH  22  38
ENDBRANCH  21  22
ENDBRANCH   1  21
TORSDOF 15
ENDMDL
MODEL 8
REMARK VINA RESULT:      -6.9      4.760      9.440
REMARK  15 active torsions:
REMARK  status: ('A' for Active; 'I' for Inactive)
REMARK    1  A    between atoms: C_5  and  C_7 
REMARK    2  A    between atoms: C_7  and  O_8 
REMARK    3  A    between atoms: O_8  and  C_9 
REMARK    4  A    between atoms: C_9  and  C_11 
REMARK    5  A    between atoms: C_11  and  C_12 
REMARK    6  A    between atoms: C_12  and  C_13 
REMARK    7  A    between atoms: C_16  and  O_19 
REMARK    8  A    between atoms: O_19  and  C_20 
REMARK    9  A    between atoms: C_20  and  C_21 
REMARK   10  A    between atoms: C_21  and  C_22 
REMARK   11  A    between atoms: C_21  and  O_35 
REMARK   12  A    between atoms: C_22  and  N_23 
REMARK   13  A    between atoms: N_23  and  C_24 
REMARK   14  A    between atoms: C_24  and  C_25 
REMARK   15  A    between atoms: C_25  and  N_26 
REMARK       I    between atoms: N_26  and  C_27 
REMARK       I    between atoms: C_27  and  N_29 
ROOT
HETATM    1  O   UNK N   1      29.771  17.755   6.262  0.00  0.00    -0.349 OA
ENDROOT
BRANCH   1   2
HETATM    2  C   UNK N   1      31.001  17.497   6.763  0.00  0.00     0.068 A 
HETATM    3  C   UNK N   1      31.271  17.621   8.137  0.00  0.00     0.037 A 
HETATM    4  C   UNK N   1      32.523  17.273   8.641  0.00  0.00     0.010 A 
HETATM    5  C   UNK N   1      33.513  16.799   7.778  0.00  0.00    -0.058 A 
HETATM    6  C   UNK N   1      33.262  16.705   6.404  0.00  0.00     0.010 A 
HETATM    7  C   UNK N   1      32.013  17.072   5.897  0.00  0.00     0.037 A 
BRANCH   5   8
HETATM    8  C   UNK N   1      34.731  16.164   8.366  0.00  0.00     0.048 C 
BRANCH   8   9
HETATM    9  C   UNK N   1      34.764  16.432   9.884  0.00  0.00     0.116 C 
BRANCH   9  10
HETATM   10  C   UNK N   1      35.852  15.633  10.553  0.00  0.00     0.259 C 
HETATM   11  O   UNK N   1      36.922  15.483   9.982  0.00  0.00    -0.265 OA
BRANCH  10  12
HETATM   12  O   UNK N   1      35.587  14.984  11.715  0.00  0.00    -0.319 OA
BRANCH  12  13
HETATM   13  C   UNK N   1      34.855  13.814  11.786  0.00  0.00     0.213 C 
BRANCH  13  14
HETATM   14  C   UNK N   1      35.217  12.952  12.990  0.00  0.00     0.173 C 
HETATM   15  C   UNK N   1      36.641  12.521  12.938  0.00  0.00     0.205 C 
HETATM   16  O   UNK N   1      36.999  12.340  14.267  0.00  0.00    -0.353 OA
HETATM   17  C   UNK N   1      36.160  13.217  14.983  0.00  0.00     0.157 C 
HETATM   18  C   UNK N   1      36.965  14.423  15.433  0.00  0.00     0.078 C 
HETATM   19  O   UNK N   1      35.076  13.646  14.189  0.00  0.00    -0.346 OA
HETATM   20  C   UNK N   1      35.618  12.494  16.201  0.00  0.00     0.078 C 
ENDBRANCH  13  14
ENDBRANCH  12  13
ENDBRANCH  10  12
ENDBRANCH   9  10
ENDBRANCH   8   9
ENDBRANCH   5   8
ENDBRANCH   1   2
BRANCH   1  21
HETATM   21  C   UNK N   1      29.051  16.812   5.561  0.00  0.00     0.209 C 
BRANCH  21  22
HETATM   22  C   UNK N   1      28.472  17.413   4.299  0.00  0.00     0.159 C 
BRANCH  22  23
HETATM   23  C   UNK N   1      27.208  16.675   3.918  0.00  0.00     0.147 C 
BRANCH  23  24
HETATM   24  N   UNK N   1      26.334  16.600   5.076  0.00  0.00    -0.417 N 
HETATM   25  H   UNK N   1      26.316  15.857   5.774  0.00  0.00     0.153 HD
BRANCH  24  26
HETATM   26  C   UNK N   1      25.490  17.786   5.050  0.00  0.00     0.133 C 
BRANCH  26  27
HETATM   27  C   UNK N   1      24.743  17.976   3.719  0.00  0.00     0.143 C 
BRANCH  27  28
HETATM   28  N   UNK N   1      24.499  19.366   3.392  0.00  0.00    -0.341 N 
HETATM   29  C   UNK N   1      23.282  19.975   3.273  0.00  0.00     0.318 C 
HETATM   30  O   UNK N   1      23.266  21.151   2.937  0.00  0.00    -0.247 OA
HETATM   31  N   UNK N   1      22.089  19.332   3.511  0.00  0.00    -0.330 N 
HETATM   32  C   UNK N   1      20.844  20.055   3.308  0.00  0.00     0.153 C 
HETATM   33  C   UNK N   1      22.016  17.947   3.956  0.00  0.00     0.153 C 
HETATM   34  C   UNK N   1      19.790  19.169   2.610  0.00  0.00     0.187 C 
HETATM   35  O   UNK N   1      20.237  17.848   2.398  0.00  0.00    -0.388 OA
HETATM   36  C   UNK N   1      20.647  17.357   3.647  0.00  0.00     0.187 C 
HETATM   37  H   UNK N   1      25.291  19.930   3.240  0.00  0.00     0.164 HD
ENDBRANCH  27  28
ENDBRANCH  26  27
ENDBRANCH  24  26
ENDBRANCH  23  24
ENDBRANCH  22  23
BRANCH  22  38
HETATM   38  O   UNK N   1      29.400  17.289   3.267  0.00  0.00    -0.392 OA
HETATM   39  H   UNK N   1      30.152  17.842   3.005  0.00  0.00     0.210 HD
ENDBRANCH  22  38
ENDBRANCH  21  22
ENDBRANCH   1  21
TORSDOF 15
ENDMDL
MODEL 9
REMARK VINA RESULT:      -6.9     10.929     15.173
REMARK  15 active torsions:
REMARK  status: ('A' for Active; 'I' for Inactive)
REMARK    1  A    between atoms: C_5  and  C_7 
REMARK    2  A    between atoms: C_7  and  O_8 
REMARK    3  A    between atoms: O_8  and  C_9 
REMARK    4  A    between atoms: C_9  and  C_11 
REMARK    5  A    between atoms: C_11  and  C_12 
REMARK    6  A    between atoms: C_12  and  C_13 
REMARK    7  A    between atoms: C_16  and  O_19 
REMARK    8  A    between atoms: O_19  and  C_20 
REMARK    9  A    between atoms: C_20  and  C_21 
REMARK   10  A    between atoms: C_21  and  C_22 
REMARK   11  A    between atoms: C_21  and  O_35 
REMARK   12  A    between atoms: C_22  and  N_23 
REMARK   13  A    between atoms: N_23  and  C_24 
REMARK   14  A    between atoms: C_24  and  C_25 
REMARK   15  A    between atoms: C_25  and  N_26 
REMARK       I    between atoms: N_26  and  C_27 
REMARK       I    between atoms: C_27  and  N_29 
ROOT
HETATM    1  O   UNK N   1      22.183  18.303   3.737  0.00  0.00    -0.349 OA
ENDROOT
BRANCH   1   2
HETATM    2  C   UNK N   1      23.509  18.240   4.000  0.00  0.00     0.068 A 
HETATM    3  C   UNK N   1      24.348  19.350   3.795  0.00  0.00     0.037 A 
HETATM    4  C   UNK N   1      25.694  19.287   4.148  0.00  0.00     0.010 A 
HETATM    5  C   UNK N   1      26.214  18.117   4.705  0.00  0.00    -0.058 A 
HETATM    6  C   UNK N   1      25.393  16.997   4.880  0.00  0.00     0.010 A 
HETATM    7  C   UNK N   1      24.047  17.054   4.509  0.00  0.00     0.037 A 
BRANCH   5   8
HETATM    8  C   UNK N   1      27.567  18.165   5.337  0.00  0.00     0.048 C 
BRANCH   8   9
HETATM    9  C   UNK N   1      27.583  17.253   6.580  0.00  0.00     0.116 C 
BRANCH   9  10
HETATM   10  C   UNK N   1      28.712  17.618   7.507  0.00  0.00     0.259 C 
HETATM   11  O   UNK N   1      28.643  18.650   8.159  0.00  0.00    -0.265 OA
BRANCH  10  12
HETATM   12  O   UNK N   1      29.844  16.869   7.510  0.00  0.00    -0.319 OA
BRANCH  12  13
HETATM   13  C   UNK N   1      31.114  17.407   7.437  0.00  0.00     0.213 C 
BRANCH  13  14
HETATM   14  C   UNK N   1      31.856  17.023   6.162  0.00  0.00     0.173 C 
HETATM   15  C   UNK N   1      31.945  15.545   6.012  0.00  0.00     0.205 C 
HETATM   16  O   UNK N   1      32.023  15.337   4.641  0.00  0.00    -0.353 OA
HETATM   17  C   UNK N   1      31.357  16.444   4.076  0.00  0.00     0.157 C 
HETATM   18  C   UNK N   1      29.992  16.004   3.577  0.00  0.00     0.078 C 
HETATM   19  O   UNK N   1      31.201  17.479   5.021  0.00  0.00    -0.346 OA
HETATM   20  C   UNK N   1      32.173  16.965   2.909  0.00  0.00     0.078 C 
ENDBRANCH  13  14
ENDBRANCH  12  13
ENDBRANCH  10  12
ENDBRANCH   9  10
ENDBRANCH   8   9
ENDBRANCH   5   8
ENDBRANCH   1   2
BRANCH   1  21
HETATM   21  C   UNK N   1      21.553  19.487   3.419  0.00  0.00     0.209 C 
BRANCH  21  22
HETATM   22  C   UNK N   1      20.198  19.220   2.801  0.00  0.00     0.159 C 
BRANCH  22  23
HETATM   23  C   UNK N   1      20.115  17.776   2.360  0.00  0.00     0.147 C 
BRANCH  23  24
HETATM   24  N   UNK N   1      19.377  17.017   3.354  0.00  0.00    -0.417 N 
HETATM   25  H   UNK N   1      18.602  17.357   3.923  0.00  0.00     0.153 HD
BRANCH  24  26
HETATM   26  C   UNK N   1      19.955  15.680   3.385  0.00  0.00     0.133 C 
BRANCH  26  27
HETATM   27  C   UNK N   1      20.665  15.352   4.710  0.00  0.00     0.143 C 
BRANCH  27  28
HETATM   28  N   UNK N   1      20.621  16.437   5.668  0.00  0.00    -0.341 N 
HETATM   29  C   UNK N   1      20.906  16.360   7.001  0.00  0.00     0.318 C 
HETATM   30  O   UNK N   1      20.764  17.374   7.672  0.00  0.00    -0.247 OA
HETATM   31  N   UNK N   1      21.340  15.208   7.616  0.00  0.00    -0.330 N 
HETATM   32  C   UNK N   1      21.569  15.217   9.052  0.00  0.00     0.153 C 
HETATM   33  C   UNK N   1      21.579  13.969   6.888  0.00  0.00     0.153 C 
HETATM   34  C   UNK N   1      21.038  13.926   9.711  0.00  0.00     0.187 C 
HETATM   35  O   UNK N   1      20.526  13.003   8.775  0.00  0.00    -0.388 OA
HETATM   36  C   UNK N   1      21.543  12.777   7.835  0.00  0.00     0.187 C 
HETATM   37  H   UNK N   1      20.358  17.321   5.323  0.00  0.00     0.164 HD
ENDBRANCH  27  28
ENDBRANCH  26  27
ENDBRANCH  24  26
ENDBRANCH  23  24
ENDBRANCH  22  23
BRANCH  22  38
HETATM   38  O   UNK N   1      20.031  20.046   1.692  0.00  0.00    -0.392 OA
HETATM   39  H   UNK N   1      20.312  19.953   0.769  0.00  0.00     0.210 HD
ENDBRANCH  22  38
ENDBRANCH  21  22
ENDBRANCH   1  21
TORSDOF 15
ENDMDL
