MODEL 1
REMARK VINA RESULT:      -7.6      0.000      0.000
REMARK  9 active torsions:
REMARK  status: ('A' for Active; 'I' for Inactive)
REMARK    1  A    between atoms: C_2  and  C_3 
REMARK    2  A    between atoms: C_3  and  C_4 
REMARK    3  A    between atoms: C_3  and  C_6 
REMARK    4  A    between atoms: C_6  and  O_7 
REMARK    5  A    between atoms: O_7  and  C_8 
REMARK    6  A    between atoms: C_10  and  C_8 
REMARK    7  A    between atoms: C_14  and  O_20 
REMARK    8  A    between atoms: O_20  and  C_21 
REMARK    9  A    between atoms: C_26  and  C_27 
ROOT
HETATM    1  C   UNK N   1      33.336  16.739   7.424  0.00  0.00     0.177 C 
HETATM    2  C   UNK N   1      33.291  17.150   5.974  0.00  0.00     0.040 C 
HETATM    3  C   UNK N   1      31.945  16.614   5.565  0.00  0.00    -0.004 C 
HETATM    4  C   UNK N   1      31.378  17.152   4.274  0.00  0.00     0.037 C 
HETATM    5  C   UNK N   1      29.866  16.987   4.400  0.00  0.00     0.129 C 
HETATM    6  C   UNK N   1      29.548  15.483   4.470  0.00  0.00     0.033 C 
HETATM    7  C   UNK N   1      30.262  14.786   5.643  0.00  0.00     0.009 C 
HETATM    8  C   UNK N   1      31.763  15.101   5.718  0.00  0.00     0.007 C 
HETATM    9  C   UNK N   1      32.244  14.660   7.111  0.00  0.00     0.119 C 
HETATM   10  N   UNK N   1      33.510  15.289   7.497  0.00  0.00    -0.408 N 
HETATM   11  H   UNK N   1      34.363  14.800   7.770  0.00  0.00     0.154 HD
ENDROOT
BRANCH   5  12
HETATM   12  O   UNK N   1      29.397  17.634   5.541  0.00  0.00    -0.345 OA
BRANCH  12  13
HETATM   13  C   UNK N   1      28.528  18.678   5.478  0.00  0.00     0.085 A 
HETATM   14  C   UNK N   1      28.201  19.189   4.216  0.00  0.00     0.038 A 
HETATM   15  C   UNK N   1      27.294  20.234   4.079  0.00  0.00     0.004 A 
HETATM   16  C   UNK N   1      26.708  20.791   5.208  0.00  0.00     0.025 A 
HETATM   17  C   UNK N   1      27.023  20.320   6.485  0.00  0.00     0.050 A 
HETATM   18  C   UNK N   1      27.949  19.247   6.645  0.00  0.00     0.065 A 
HETATM   19 Cl   UNK N   1      26.222  21.120   7.833  0.00  0.00    -0.083 Cl
BRANCH  18  20
HETATM   20  C   UNK N   1      28.324  18.730   7.997  0.00  0.00     0.145 A 
HETATM   21  N   UNK N   1      29.533  18.856   8.571  0.00  0.00    -0.270 N 
HETATM   22  N   UNK N   1      29.437  18.251   9.744  0.00  0.00    -0.007 NA
HETATM   23  H   UNK N   1      30.326  19.304   8.196  0.00  0.00     0.185 HD
HETATM   24  N   UNK N   1      28.216  17.767   9.891  0.00  0.00    -0.007 NA
HETATM   25  N   UNK N   1      27.501  18.049   8.814  0.00  0.00    -0.270 N 
ATOM     26  HN  UNK N   1      26.527  17.801   8.640  1.00  0.00     0.185 HD
ENDBRANCH  18  20
ENDBRANCH  12  13
ENDBRANCH   5  12
BRANCH   1  27
HETATM   27  C   UNK N   1      34.338  17.454   8.248  0.00  0.00     0.281 C 
HETATM   28  O   UNK N   1      34.265  18.671   8.353  0.00  0.00    -0.263 OA
BRANCH  27  29
HETATM   29  O   UNK N   1      35.240  16.751   8.962  0.00  0.00    -0.319 OA
BRANCH  29  30
HETATM   30  C   UNK N   1      35.253  16.812  10.334  0.00  0.00     0.183 C 
BRANCH  30  31
HETATM   31  C   UNK N   1      36.210  15.751  10.860  0.00  0.00     0.009 C 
BRANCH  31  32
HETATM   32  C   UNK N   1      35.628  15.146  12.127  0.00  0.00     0.002 C 
HETATM   33  C   UNK N   1      34.976  13.806  11.842  0.00  0.00     0.005 C 
ENDBRANCH  31  32
BRANCH  31  34
HETATM   34  C   UNK N   1      36.455  14.671   9.805  0.00  0.00     0.002 C 
HETATM   35  C   UNK N   1      37.927  14.309   9.743  0.00  0.00     0.005 C 
ENDBRANCH  31  34
ENDBRANCH  30  31
ENDBRANCH  29  30
ENDBRANCH  27  29
ENDBRANCH   1  27
TORSDOF 9
ENDMDL
MODEL 2
REMARK VINA RESULT:      -7.6      2.927      4.917
REMARK  9 active torsions:
REMARK  status: ('A' for Active; 'I' for Inactive)
REMARK    1  A    between atoms: C_2  and  C_3 
REMARK    2  A    between atoms: C_3  and  C_4 
REMARK    3  A    between atoms: C_3  and  C_6 
REMARK    4  A    between atoms: C_6  and  O_7 
REMARK    5  A    between atoms: O_7  and  C_8 
REMARK    6  A    between atoms: C_10  and  C_8 
REMARK    7  A    between atoms: C_14  and  O_20 
REMARK    8  A    between atoms: O_20  and  C_21 
REMARK    9  A    between atoms: C_26  and  C_27 
ROOT
HETATM    1  C   UNK N   1      35.211  14.991  10.585  0.00  0.00     0.177 C 
HETATM    2  C   UNK N   1      35.310  16.469  10.301  0.00  0.00     0.040 C 
HETATM    3  C   UNK N   1      34.678  16.542   8.937  0.00  0.00    -0.004 C 
HETATM    4  C   UNK N   1      34.258  17.914   8.470  0.00  0.00     0.037 C 
HETATM    5  C   UNK N   1      33.146  17.669   7.453  0.00  0.00     0.129 C 
HETATM    6  C   UNK N   1      33.748  16.921   6.250  0.00  0.00     0.033 C 
HETATM    7  C   UNK N   1      34.404  15.588   6.657  0.00  0.00     0.009 C 
HETATM    8  C   UNK N   1      35.369  15.720   7.844  0.00  0.00     0.007 C 
HETATM    9  C   UNK N   1      35.640  14.296   8.361  0.00  0.00     0.119 C 
HETATM   10  N   UNK N   1      36.162  14.282   9.730  0.00  0.00    -0.408 N 
HETATM   11  H   UNK N   1      37.036  13.853  10.034  0.00  0.00     0.154 HD
ENDROOT
BRANCH   5  12
HETATM   12  O   UNK N   1      32.117  16.923   8.022  0.00  0.00    -0.345 OA
BRANCH  12  13
HETATM   13  C   UNK N   1      30.824  17.339   8.007  0.00  0.00     0.085 A 
HETATM   14  C   UNK N   1      30.408  18.238   8.998  0.00  0.00     0.038 A 
HETATM   15  C   UNK N   1      29.108  18.728   9.020  0.00  0.00     0.004 A 
HETATM   16  C   UNK N   1      28.198  18.316   8.055  0.00  0.00     0.025 A 
HETATM   17  C   UNK N   1      28.570  17.406   7.062  0.00  0.00     0.050 A 
HETATM   18  C   UNK N   1      29.901  16.894   7.021  0.00  0.00     0.065 A 
HETATM   19 Cl   UNK N   1      27.321  16.954   5.909  0.00  0.00    -0.083 Cl
BRANCH  18  20
HETATM   20  C   UNK N   1      30.329  15.905   5.986  0.00  0.00     0.145 A 
HETATM   21  N   UNK N   1      30.730  14.646   6.230  0.00  0.00    -0.270 N 
HETATM   22  N   UNK N   1      31.029  14.130   5.048  0.00  0.00    -0.007 NA
HETATM   23  H   UNK N   1      30.790  14.200   7.105  0.00  0.00     0.185 HD
HETATM   24  N   UNK N   1      30.822  15.035   4.108  0.00  0.00    -0.007 NA
HETATM   25  N   UNK N   1      30.388  16.154   4.665  0.00  0.00    -0.270 N 
ATOM     26  HN  UNK N   1      30.149  17.024   4.190  1.00  0.00     0.185 HD
ENDBRANCH  18  20
ENDBRANCH  12  13
ENDBRANCH   5  12
BRANCH   1  27
HETATM   27  C   UNK N   1      35.366  14.614  12.010  0.00  0.00     0.281 C 
HETATM   28  O   UNK N   1      36.104  15.278  12.725  0.00  0.00    -0.263 OA
BRANCH  27  29
HETATM   29  O   UNK N   1      34.608  13.625  12.525  0.00  0.00    -0.319 OA
BRANCH  29  30
HETATM   30  C   UNK N   1      35.181  12.599  13.235  0.00  0.00     0.183 C 
BRANCH  30  31
HETATM   31  C   UNK N   1      34.584  12.585  14.637  0.00  0.00     0.009 C 
BRANCH  31  32
HETATM   32  C   UNK N   1      33.992  11.211  14.907  0.00  0.00     0.002 C 
HETATM   33  C   UNK N   1      33.880  10.404  13.626  0.00  0.00     0.005 C 
ENDBRANCH  31  32
BRANCH  31  34
HETATM   34  C   UNK N   1      35.646  12.934  15.681  0.00  0.00     0.002 C 
HETATM   35  C   UNK N   1      35.055  12.889  17.077  0.00  0.00     0.005 C 
ENDBRANCH  31  34
ENDBRANCH  30  31
ENDBRANCH  29  30
ENDBRANCH  27  29
ENDBRANCH   1  27
TORSDOF 9
ENDMDL
MODEL 3
REMARK VINA RESULT:      -7.4     13.142     15.671
REMARK  9 active torsions:
REMARK  status: ('A' for Active; 'I' for Inactive)
REMARK    1  A    between atoms: C_2  and  C_3 
REMARK    2  A    between atoms: C_3  and  C_4 
REMARK    3  A    between atoms: C_3  and  C_6 
REMARK    4  A    between atoms: C_6  and  O_7 
REMARK    5  A    between atoms: O_7  and  C_8 
REMARK    6  A    between atoms: C_10  and  C_8 
REMARK    7  A    between atoms: C_14  and  O_20 
REMARK    8  A    between atoms: O_20  and  C_21 
REMARK    9  A    between atoms: C_26  and  C_27 
ROOT
HETATM    1  C   UNK N   1      27.318  27.831  -3.992  0.00  0.00     0.177 C 
HETATM    2  C   UNK N   1      26.509  26.713  -3.385  0.00  0.00     0.040 C 
HETATM    3  C   UNK N   1      26.432  25.752  -4.542  0.00  0.00    -0.004 C 
HETATM    4  C   UNK N   1      26.013  24.342  -4.210  0.00  0.00     0.037 C 
HETATM    5  C   UNK N   1      26.600  23.476  -5.322  0.00  0.00     0.129 C 
HETATM    6  C   UNK N   1      25.929  23.873  -6.648  0.00  0.00     0.033 C 
HETATM    7  C   UNK N   1      26.116  25.365  -6.978  0.00  0.00     0.009 C 
HETATM    8  C   UNK N   1      25.764  26.297  -5.809  0.00  0.00     0.007 C 
HETATM    9  C   UNK N   1      26.346  27.680  -6.148  0.00  0.00     0.119 C 
HETATM   10  N   UNK N   1      26.489  28.537  -4.968  0.00  0.00    -0.408 N 
HETATM   11  H   UNK N   1      26.082  29.465  -4.848  0.00  0.00     0.154 HD
ENDROOT
BRANCH   5  12
HETATM   12  O   UNK N   1      27.979  23.655  -5.404  0.00  0.00    -0.345 OA
BRANCH  12  13
HETATM   13  C   UNK N   1      28.815  22.670  -5.825  0.00  0.00     0.085 A 
HETATM   14  C   UNK N   1      28.704  22.232  -7.151  0.00  0.00     0.038 A 
HETATM   15  C   UNK N   1      29.550  21.253  -7.656  0.00  0.00     0.004 A 
HETATM   16  C   UNK N   1      30.517  20.686  -6.836  0.00  0.00     0.025 A 
HETATM   17  C   UNK N   1      30.647  21.083  -5.502  0.00  0.00     0.050 A 
HETATM   18  C   UNK N   1      29.789  22.090  -4.968  0.00  0.00     0.065 A 
HETATM   19 Cl   UNK N   1      31.901  20.279  -4.566  0.00  0.00    -0.083 Cl
BRANCH  18  20
HETATM   20  C   UNK N   1      29.887  22.526  -3.541  0.00  0.00     0.145 A 
HETATM   21  N   UNK N   1      28.846  22.742  -2.720  0.00  0.00    -0.270 N 
HETATM   22  N   UNK N   1      29.372  23.125  -1.567  0.00  0.00    -0.007 NA
HETATM   23  H   UNK N   1      27.890  22.638  -2.931  0.00  0.00     0.185 HD
HETATM   24  N   UNK N   1      30.689  23.146  -1.671  0.00  0.00    -0.007 NA
HETATM   25  N   UNK N   1      31.038  22.780  -2.893  0.00  0.00    -0.270 N 
ATOM     26  HN  UNK N   1      31.984  22.707  -3.266  1.00  0.00     0.185 HD
ENDBRANCH  18  20
ENDBRANCH  12  13
ENDBRANCH   5  12
BRANCH   1  27
HETATM   27  C   UNK N   1      27.933  28.762  -3.017  0.00  0.00     0.281 C 
HETATM   28  O   UNK N   1      27.318  29.051  -2.000  0.00  0.00    -0.263 OA
BRANCH  27  29
HETATM   29  O   UNK N   1      29.200  29.182  -3.203  0.00  0.00    -0.319 OA
BRANCH  29  30
HETATM   30  C   UNK N   1      29.988  28.627  -4.181  0.00  0.00     0.183 C 
BRANCH  30  31
HETATM   31  C   UNK N   1      31.224  28.024  -3.526  0.00  0.00     0.009 C 
BRANCH  31  32
HETATM   32  C   UNK N   1      31.396  28.632  -2.144  0.00  0.00     0.002 C 
HETATM   33  C   UNK N   1      32.524  29.647  -2.131  0.00  0.00     0.005 C 
ENDBRANCH  31  32
BRANCH  31  34
HETATM   34  C   UNK N   1      31.102  26.502  -3.439  0.00  0.00     0.002 C 
HETATM   35  C   UNK N   1      30.324  25.960  -4.622  0.00  0.00     0.005 C 
ENDBRANCH  31  34
ENDBRANCH  30  31
ENDBRANCH  29  30
ENDBRANCH  27  29
ENDBRANCH   1  27
TORSDOF 9
ENDMDL
MODEL 4
REMARK VINA RESULT:      -7.3      2.862      4.713
REMARK  9 active torsions:
REMARK  status: ('A' for Active; 'I' for Inactive)
REMARK    1  A    between atoms: C_2  and  C_3 
REMARK    2  A    between atoms: C_3  and  C_4 
REMARK    3  A    between atoms: C_3  and  C_6 
REMARK    4  A    between atoms: C_6  and  O_7 
REMARK    5  A    between atoms: O_7  and  C_8 
REMARK    6  A    between atoms: C_10  and  C_8 
REMARK    7  A    between atoms: C_14  and  O_20 
REMARK    8  A    between atoms: O_20  and  C_21 
REMARK    9  A    between atoms: C_26  and  C_27 
ROOT
HETATM    1  C   UNK N   1      35.116  14.952  10.303  0.00  0.00     0.177 C 
HETATM    2  C   UNK N   1      35.233  16.437  10.073  0.00  0.00     0.040 C 
HETATM    3  C   UNK N   1      34.628  16.565   8.701  0.00  0.00    -0.004 C 
HETATM    4  C   UNK N   1      34.228  17.956   8.276  0.00  0.00     0.037 C 
HETATM    5  C   UNK N   1      33.134  17.758   7.229  0.00  0.00     0.129 C 
HETATM    6  C   UNK N   1      33.752  17.046   6.013  0.00  0.00     0.033 C 
HETATM    7  C   UNK N   1      34.389  15.694   6.384  0.00  0.00     0.009 C 
HETATM    8  C   UNK N   1      35.332  15.775   7.593  0.00  0.00     0.007 C 
HETATM    9  C   UNK N   1      35.581  14.332   8.064  0.00  0.00     0.119 C 
HETATM   10  N   UNK N   1      36.077  14.265   9.441  0.00  0.00    -0.408 N 
HETATM   11  H   UNK N   1      36.942  13.817   9.746  0.00  0.00     0.154 HD
ENDROOT
BRANCH   5  12
HETATM   12  O   UNK N   1      32.088  17.001   7.753  0.00  0.00    -0.345 OA
BRANCH  12  13
HETATM   13  C   UNK N   1      30.837  17.506   7.916  0.00  0.00     0.085 A 
HETATM   14  C   UNK N   1      30.502  18.049   9.164  0.00  0.00     0.038 A 
HETATM   15  C   UNK N   1      29.252  18.611   9.388  0.00  0.00     0.004 A 
HETATM   16  C   UNK N   1      28.310  18.629   8.367  0.00  0.00     0.025 A 
HETATM   17  C   UNK N   1      28.599  18.080   7.115  0.00  0.00     0.050 A 
HETATM   18  C   UNK N   1      29.879  17.501   6.866  0.00  0.00     0.065 A 
HETATM   19 Cl   UNK N   1      27.317  18.153   5.914  0.00  0.00    -0.083 Cl
BRANCH  18  20
HETATM   20  C   UNK N   1      30.218  16.888   5.545  0.00  0.00     0.145 A 
HETATM   21  N   UNK N   1      30.342  17.555   4.386  0.00  0.00    -0.270 N 
HETATM   22  N   UNK N   1      30.631  16.640   3.474  0.00  0.00    -0.007 NA
HETATM   23  H   UNK N   1      30.239  18.524   4.243  0.00  0.00     0.185 HD
HETATM   24  N   UNK N   1      30.682  15.450   4.047  0.00  0.00    -0.007 NA
HETATM   25  N   UNK N   1      30.425  15.575   5.339  0.00  0.00    -0.270 N 
ATOM     26  HN  UNK N   1      30.391  14.829   6.034  1.00  0.00     0.185 HD
ENDBRANCH  18  20
ENDBRANCH  12  13
ENDBRANCH   5  12
BRANCH   1  27
HETATM   27  C   UNK N   1      35.241  14.523  11.716  0.00  0.00     0.281 C 
HETATM   28  O   UNK N   1      35.908  15.200  12.487  0.00  0.00    -0.263 OA
BRANCH  27  29
HETATM   29  O   UNK N   1      34.529  13.468  12.159  0.00  0.00    -0.319 OA
BRANCH  29  30
HETATM   30  C   UNK N   1      34.914  12.782  13.284  0.00  0.00     0.183 C 
BRANCH  30  31
HETATM   31  C   UNK N   1      35.331  11.375  12.878  0.00  0.00     0.009 C 
BRANCH  31  32
HETATM   32  C   UNK N   1      36.705  11.081  13.460  0.00  0.00     0.002 C 
HETATM   33  C   UNK N   1      37.100  12.130  14.482  0.00  0.00     0.005 C 
ENDBRANCH  31  32
BRANCH  31  34
HETATM   34  C   UNK N   1      34.306  10.346  13.358  0.00  0.00     0.002 C 
HETATM   35  C   UNK N   1      33.574  10.855  14.585  0.00  0.00     0.005 C 
ENDBRANCH  31  34
ENDBRANCH  30  31
ENDBRANCH  29  30
ENDBRANCH  27  29
ENDBRANCH   1  27
TORSDOF 9
ENDMDL
MODEL 5
REMARK VINA RESULT:      -7.3     12.750     16.278
REMARK  9 active torsions:
REMARK  status: ('A' for Active; 'I' for Inactive)
REMARK    1  A    between atoms: C_2  and  C_3 
REMARK    2  A    between atoms: C_3  and  C_4 
REMARK    3  A    between atoms: C_3  and  C_6 
REMARK    4  A    between atoms: C_6  and  O_7 
REMARK    5  A    between atoms: O_7  and  C_8 
REMARK    6  A    between atoms: C_10  and  C_8 
REMARK    7  A    between atoms: C_14  and  O_20 
REMARK    8  A    between atoms: O_20  and  C_21 
REMARK    9  A    between atoms: C_26  and  C_27 
ROOT
HETATM    1  C   UNK N   1      27.016  23.893  -4.925  0.00  0.00     0.177 C 
HETATM    2  C   UNK N   1      28.330  24.401  -5.463  0.00  0.00     0.040 C 
HETATM    3  C   UNK N   1      29.305  23.662  -4.586  0.00  0.00    -0.004 C 
HETATM    4  C   UNK N   1      30.735  23.626  -5.063  0.00  0.00     0.037 C 
HETATM    5  C   UNK N   1      31.341  22.378  -4.424  0.00  0.00     0.129 C 
HETATM    6  C   UNK N   1      31.352  22.574  -2.898  0.00  0.00     0.033 C 
HETATM    7  C   UNK N   1      29.946  22.838  -2.329  0.00  0.00     0.009 C 
HETATM    8  C   UNK N   1      29.178  23.934  -3.083  0.00  0.00     0.007 C 
HETATM    9  C   UNK N   1      27.703  23.819  -2.659  0.00  0.00     0.119 C 
HETATM   10  N   UNK N   1      26.792  24.474  -3.602  0.00  0.00    -0.408 N 
HETATM   11  H   UNK N   1      26.119  25.206  -3.374  0.00  0.00     0.154 HD
ENDROOT
BRANCH   5  12
HETATM   12  O   UNK N   1      30.600  21.248  -4.762  0.00  0.00    -0.345 OA
BRANCH  12  13
HETATM   13  C   UNK N   1      30.708  20.644  -5.974  0.00  0.00     0.085 A 
HETATM   14  C   UNK N   1      29.603  20.688  -6.833  0.00  0.00     0.038 A 
HETATM   15  C   UNK N   1      29.657  20.119  -8.100  0.00  0.00     0.004 A 
HETATM   16  C   UNK N   1      30.818  19.486  -8.524  0.00  0.00     0.025 A 
HETATM   17  C   UNK N   1      31.935  19.405  -7.688  0.00  0.00     0.050 A 
HETATM   18  C   UNK N   1      31.899  19.986  -6.385  0.00  0.00     0.065 A 
HETATM   19 Cl   UNK N   1      33.338  18.565  -8.337  0.00  0.00    -0.083 Cl
BRANCH  18  20
HETATM   20  C   UNK N   1      33.068  19.902  -5.457  0.00  0.00     0.145 A 
HETATM   21  N   UNK N   1      33.093  19.228  -4.296  0.00  0.00    -0.270 N 
HETATM   22  N   UNK N   1      34.300  19.428  -3.791  0.00  0.00    -0.007 NA
HETATM   23  H   UNK N   1      32.365  18.695  -3.901  0.00  0.00     0.185 HD
HETATM   24  N   UNK N   1      34.996  20.199  -4.608  0.00  0.00    -0.007 NA
HETATM   25  N   UNK N   1      34.250  20.513  -5.655  0.00  0.00    -0.270 N 
ATOM     26  HN  UNK N   1      34.517  21.097  -6.447  1.00  0.00     0.185 HD
ENDBRANCH  18  20
ENDBRANCH  12  13
ENDBRANCH   5  12
BRANCH   1  27
HETATM   27  C   UNK N   1      25.851  24.097  -5.819  0.00  0.00     0.281 C 
HETATM   28  O   UNK N   1      25.396  23.142  -6.431  0.00  0.00    -0.263 OA
BRANCH  27  29
HETATM   29  O   UNK N   1      25.240  25.298  -5.854  0.00  0.00    -0.319 OA
BRANCH  29  30
HETATM   30  C   UNK N   1      25.602  26.244  -6.781  0.00  0.00     0.183 C 
BRANCH  30  31
HETATM   31  C   UNK N   1      25.868  27.558  -6.057  0.00  0.00     0.009 C 
BRANCH  31  32
HETATM   32  C   UNK N   1      25.121  27.552  -4.734  0.00  0.00     0.002 C 
HETATM   33  C   UNK N   1      25.993  28.085  -3.612  0.00  0.00     0.005 C 
ENDBRANCH  31  32
BRANCH  31  34
HETATM   34  C   UNK N   1      27.368  27.759  -5.833  0.00  0.00     0.002 C 
HETATM   35  C   UNK N   1      27.899  28.857  -6.734  0.00  0.00     0.005 C 
ENDBRANCH  31  34
ENDBRANCH  30  31
ENDBRANCH  29  30
ENDBRANCH  27  29
ENDBRANCH   1  27
TORSDOF 9
ENDMDL
MODEL 6
REMARK VINA RESULT:      -7.2     13.231     16.497
REMARK  9 active torsions:
REMARK  status: ('A' for Active; 'I' for Inactive)
REMARK    1  A    between atoms: C_2  and  C_3 
REMARK    2  A    between atoms: C_3  and  C_4 
REMARK    3  A    between atoms: C_3  and  C_6 
REMARK    4  A    between atoms: C_6  and  O_7 
REMARK    5  A    between atoms: O_7  and  C_8 
REMARK    6  A    between atoms: C_10  and  C_8 
REMARK    7  A    between atoms: C_14  and  O_20 
REMARK    8  A    between atoms: O_20  and  C_21 
REMARK    9  A    between atoms: C_26  and  C_27 
ROOT
HETATM    1  C   UNK N   1      26.227  27.341  -4.796  0.00  0.00     0.177 C 
HETATM    2  C   UNK N   1      27.343  27.778  -5.709  0.00  0.00     0.040 C 
HETATM    3  C   UNK N   1      28.457  27.995  -4.719  0.00  0.00    -0.004 C 
HETATM    4  C   UNK N   1      29.849  28.084  -5.292  0.00  0.00     0.037 C 
HETATM    5  C   UNK N   1      30.779  27.671  -4.153  0.00  0.00     0.129 C 
HETATM    6  C   UNK N   1      30.658  28.715  -3.028  0.00  0.00     0.033 C 
HETATM    7  C   UNK N   1      29.214  28.860  -2.514  0.00  0.00     0.009 C 
HETATM    8  C   UNK N   1      28.182  29.044  -3.636  0.00  0.00     0.007 C 
HETATM    9  C   UNK N   1      26.796  28.796  -3.015  0.00  0.00     0.119 C 
HETATM   10  N   UNK N   1      25.773  28.494  -4.020  0.00  0.00    -0.408 N 
HETATM   11  H   UNK N   1      24.897  29.000  -4.154  0.00  0.00     0.154 HD
ENDROOT
BRANCH   5  12
HETATM   12  O   UNK N   1      30.439  26.406  -3.679  0.00  0.00    -0.345 OA
BRANCH  12  13
HETATM   13  C   UNK N   1      31.117  25.287  -4.045  0.00  0.00     0.085 A 
HETATM   14  C   UNK N   1      32.332  25.444  -4.723  0.00  0.00     0.038 A 
HETATM   15  C   UNK N   1      33.092  24.342  -5.097  0.00  0.00     0.004 A 
HETATM   16  C   UNK N   1      32.640  23.061  -4.806  0.00  0.00     0.025 A 
HETATM   17  C   UNK N   1      31.424  22.863  -4.147  0.00  0.00     0.050 A 
HETATM   18  C   UNK N   1      30.632  23.983  -3.753  0.00  0.00     0.065 A 
HETATM   19 Cl   UNK N   1      30.958  21.193  -3.851  0.00  0.00    -0.083 Cl
BRANCH  18  20
HETATM   20  C   UNK N   1      29.317  23.809  -3.064  0.00  0.00     0.145 A 
HETATM   21  N   UNK N   1      29.109  23.079  -1.955  0.00  0.00    -0.270 N 
HETATM   22  N   UNK N   1      27.816  23.182  -1.695  0.00  0.00    -0.007 NA
HETATM   23  H   UNK N   1      29.780  22.572  -1.442  0.00  0.00     0.185 HD
HETATM   24  N   UNK N   1      27.243  23.945  -2.609  0.00  0.00    -0.007 NA
HETATM   25  N   UNK N   1      28.155  24.347  -3.478  0.00  0.00    -0.270 N 
ATOM     26  HN  UNK N   1      28.009  24.943  -4.293  1.00  0.00     0.185 HD
ENDBRANCH  18  20
ENDBRANCH  12  13
ENDBRANCH   5  12
BRANCH   1  27
HETATM   27  C   UNK N   1      25.099  26.654  -5.468  0.00  0.00     0.281 C 
HETATM   28  O   UNK N   1      24.168  27.319  -5.901  0.00  0.00    -0.263 OA
BRANCH  27  29
HETATM   29  O   UNK N   1      25.168  25.327  -5.699  0.00  0.00    -0.319 OA
BRANCH  29  30
HETATM   30  C   UNK N   1      25.682  24.844  -6.877  0.00  0.00     0.183 C 
BRANCH  30  31
HETATM   31  C   UNK N   1      26.923  24.018  -6.565  0.00  0.00     0.009 C 
BRANCH  31  32
HETATM   32  C   UNK N   1      26.676  22.579  -6.988  0.00  0.00     0.002 C 
HETATM   33  C   UNK N   1      25.383  22.455  -7.771  0.00  0.00     0.005 C 
ENDBRANCH  31  32
BRANCH  31  34
HETATM   34  C   UNK N   1      28.149  24.592  -7.277  0.00  0.00     0.002 C 
HETATM   35  C   UNK N   1      29.323  23.639  -7.169  0.00  0.00     0.005 C 
ENDBRANCH  31  34
ENDBRANCH  30  31
ENDBRANCH  29  30
ENDBRANCH  27  29
ENDBRANCH   1  27
TORSDOF 9
ENDMDL
MODEL 7
REMARK VINA RESULT:      -7.2      8.307     11.282
REMARK  9 active torsions:
REMARK  status: ('A' for Active; 'I' for Inactive)
REMARK    1  A    between atoms: C_2  and  C_3 
REMARK    2  A    between atoms: C_3  and  C_4 
REMARK    3  A    between atoms: C_3  and  C_6 
REMARK    4  A    between atoms: C_6  and  O_7 
REMARK    5  A    between atoms: O_7  and  C_8 
REMARK    6  A    between atoms: C_10  and  C_8 
REMARK    7  A    between atoms: C_14  and  O_20 
REMARK    8  A    between atoms: O_20  and  C_21 
REMARK    9  A    between atoms: C_26  and  C_27 
ROOT
HETATM    1  C   UNK N   1      21.318  19.434   2.798  0.00  0.00     0.177 C 
HETATM    2  C   UNK N   1      21.154  19.204   4.279  0.00  0.00     0.040 C 
HETATM    3  C   UNK N   1      20.987  17.708   4.321  0.00  0.00    -0.004 C 
HETATM    4  C   UNK N   1      21.165  17.056   5.670  0.00  0.00     0.037 C 
HETATM    5  C   UNK N   1      21.573  15.616   5.369  0.00  0.00     0.129 C 
HETATM    6  C   UNK N   1      20.400  14.921   4.654  0.00  0.00     0.033 C 
HETATM    7  C   UNK N   1      19.992  15.644   3.357  0.00  0.00     0.009 C 
HETATM    8  C   UNK N   1      19.792  17.156   3.537  0.00  0.00     0.007 C 
HETATM    9  C   UNK N   1      19.765  17.775   2.129  0.00  0.00     0.119 C 
HETATM   10  N   UNK N   1      20.031  19.216   2.141  0.00  0.00    -0.408 N 
HETATM   11  H   UNK N   1      19.423  19.941   1.757  0.00  0.00     0.154 HD
ENDROOT
BRANCH   5  12
HETATM   12  O   UNK N   1      22.713  15.588   4.569  0.00  0.00    -0.345 OA
BRANCH  12  13
HETATM   13  C   UNK N   1      23.800  14.835   4.880  0.00  0.00     0.085 A 
HETATM   14  C   UNK N   1      24.274  14.874   6.197  0.00  0.00     0.038 A 
HETATM   15  C   UNK N   1      25.362  14.103   6.590  0.00  0.00     0.004 A 
HETATM   16  C   UNK N   1      26.000  13.287   5.665  0.00  0.00     0.025 A 
HETATM   17  C   UNK N   1      25.568  13.236   4.337  0.00  0.00     0.050 A 
HETATM   18  C   UNK N   1      24.452  14.018   3.916  0.00  0.00     0.065 A 
HETATM   19 Cl   UNK N   1      26.470  12.174   3.262  0.00  0.00    -0.083 Cl
BRANCH  18  20
HETATM   20  C   UNK N   1      23.974  14.003   2.500  0.00  0.00     0.145 A 
HETATM   21  N   UNK N   1      24.649  14.489   1.445  0.00  0.00    -0.270 N 
HETATM   22  N   UNK N   1      23.867  14.289   0.396  0.00  0.00    -0.007 NA
HETATM   23  H   UNK N   1      25.540  14.908   1.450  0.00  0.00     0.185 HD
HETATM   24  N   UNK N   1      22.749  13.702   0.786  0.00  0.00    -0.007 NA
HETATM   25  N   UNK N   1      22.787  13.515   2.095  0.00  0.00    -0.270 N 
ATOM     26  HN  UNK N   1      22.066  13.089   2.677  1.00  0.00     0.185 HD
ENDBRANCH  18  20
ENDBRANCH  12  13
ENDBRANCH   5  12
BRANCH   1  27
HETATM   27  C   UNK N   1      21.910  20.742   2.428  0.00  0.00     0.281 C 
HETATM   28  O   UNK N   1      21.283  21.493   1.694  0.00  0.00    -0.263 OA
BRANCH  27  29
HETATM   29  O   UNK N   1      23.069  21.134   2.995  0.00  0.00    -0.319 OA
BRANCH  29  30
HETATM   30  C   UNK N   1      24.262  20.574   2.613  0.00  0.00     0.183 C 
BRANCH  30  31
HETATM   31  C   UNK N   1      24.923  19.954   3.838  0.00  0.00     0.009 C 
BRANCH  31  32
HETATM   32  C   UNK N   1      24.664  18.456   3.832  0.00  0.00     0.002 C 
HETATM   33  C   UNK N   1      25.959  17.679   3.683  0.00  0.00     0.005 C 
ENDBRANCH  31  32
BRANCH  31  34
HETATM   34  C   UNK N   1      26.424  20.246   3.850  0.00  0.00     0.002 C 
HETATM   35  C   UNK N   1      26.828  20.908   5.153  0.00  0.00     0.005 C 
ENDBRANCH  31  34
ENDBRANCH  30  31
ENDBRANCH  29  30
ENDBRANCH  27  29
ENDBRANCH   1  27
TORSDOF 9
ENDMDL
MODEL 8
REMARK VINA RESULT:      -7.1      8.182     12.253
REMARK  9 active torsions:
REMARK  status: ('A' for Active; 'I' for Inactive)
REMARK    1  A    between atoms: C_2  and  C_3 
REMARK    2  A    between atoms: C_3  and  C_4 
REMARK    3  A    between atoms: C_3  and  C_6 
REMARK    4  A    between atoms: C_6  and  O_7 
REMARK    5  A    between atoms: O_7  and  C_8 
REMARK    6  A    between atoms: C_10  and  C_8 
REMARK    7  A    between atoms: C_14  and  O_20 
REMARK    8  A    between atoms: O_20  and  C_21 
REMARK    9  A    between atoms: C_26  and  C_27 
ROOT
HETATM    1  C   UNK N   1      21.702  15.224   4.514  0.00  0.00     0.177 C 
HETATM    2  C   UNK N   1      22.475  13.931   4.465  0.00  0.00     0.040 C 
HETATM    3  C   UNK N   1      23.629  14.250   5.378  0.00  0.00    -0.004 C 
HETATM    4  C   UNK N   1      24.430  13.073   5.875  0.00  0.00     0.037 C 
HETATM    5  C   UNK N   1      25.062  13.541   7.184  0.00  0.00     0.129 C 
HETATM    6  C   UNK N   1      26.041  14.685   6.866  0.00  0.00     0.033 C 
HETATM    7  C   UNK N   1      25.356  15.864   6.151  0.00  0.00     0.009 C 
HETATM    8  C   UNK N   1      24.501  15.435   4.949  0.00  0.00     0.007 C 
HETATM    9  C   UNK N   1      23.605  16.633   4.587  0.00  0.00     0.119 C 
HETATM   10  N   UNK N   1      22.445  16.246   3.779  0.00  0.00    -0.408 N 
HETATM   11  H   UNK N   1      22.199  16.625   2.864  0.00  0.00     0.154 HD
ENDROOT
BRANCH   5  12
HETATM   12  O   UNK N   1      24.081  13.977   8.072  0.00  0.00    -0.345 OA
BRANCH  12  13
HETATM   13  C   UNK N   1      23.762  13.287   9.198  0.00  0.00     0.085 A 
HETATM   14  C   UNK N   1      24.801  12.678   9.915  0.00  0.00     0.038 A 
HETATM   15  C   UNK N   1      24.549  11.986  11.093  0.00  0.00     0.004 A 
HETATM   16  C   UNK N   1      23.248  11.883  11.568  0.00  0.00     0.025 A 
HETATM   17  C   UNK N   1      22.183  12.460  10.872  0.00  0.00     0.050 A 
HETATM   18  C   UNK N   1      22.423  13.177   9.662  0.00  0.00     0.065 A 
HETATM   19 Cl   UNK N   1      20.583  12.246  11.572  0.00  0.00    -0.083 Cl
BRANCH  18  20
HETATM   20  C   UNK N   1      21.307  13.792   8.881  0.00  0.00     0.145 A 
HETATM   21  N   UNK N   1      20.924  13.423   7.647  0.00  0.00    -0.270 N 
HETATM   22  N   UNK N   1      19.922  14.227   7.327  0.00  0.00    -0.007 NA
HETATM   23  H   UNK N   1      21.309  12.704   7.095  0.00  0.00     0.185 HD
HETATM   24  N   UNK N   1      19.694  15.064   8.324  0.00  0.00    -0.007 NA
HETATM   25  N   UNK N   1      20.546  14.817   9.306  0.00  0.00    -0.270 N 
ATOM     26  HN  UNK N   1      20.611  15.304  10.200  1.00  0.00     0.185 HD
ENDBRANCH  18  20
ENDBRANCH  12  13
ENDBRANCH   5  12
BRANCH   1  27
HETATM   27  C   UNK N   1      20.295  15.132   4.056  0.00  0.00     0.281 C 
HETATM   28  O   UNK N   1      19.582  16.123   4.119  0.00  0.00    -0.263 OA
BRANCH  27  29
HETATM   29  O   UNK N   1      19.857  13.999   3.471  0.00  0.00    -0.319 OA
BRANCH  29  30
HETATM   30  C   UNK N   1      19.303  14.025   2.215  0.00  0.00     0.183 C 
BRANCH  30  31
HETATM   31  C   UNK N   1      20.279  14.711   1.267  0.00  0.00     0.009 C 
BRANCH  31  32
HETATM   32  C   UNK N   1      21.091  13.649   0.543  0.00  0.00     0.002 C 
HETATM   33  C   UNK N   1      22.577  13.836   0.791  0.00  0.00     0.005 C 
ENDBRANCH  31  32
BRANCH  31  34
HETATM   34  C   UNK N   1      19.533  15.599   0.270  0.00  0.00     0.002 C 
HETATM   35  C   UNK N   1      19.939  17.050   0.441  0.00  0.00     0.005 C 
ENDBRANCH  31  34
ENDBRANCH  30  31
ENDBRANCH  29  30
ENDBRANCH  27  29
ENDBRANCH   1  27
TORSDOF 9
ENDMDL
MODEL 9
REMARK VINA RESULT:      -7.0      3.978      8.623
REMARK  9 active torsions:
REMARK  status: ('A' for Active; 'I' for Inactive)
REMARK    1  A    between atoms: C_2  and  C_3 
REMARK    2  A    between atoms: C_3  and  C_4 
REMARK    3  A    between atoms: C_3  and  C_6 
REMARK    4  A    between atoms: C_6  and  O_7 
REMARK    5  A    between atoms: O_7  and  C_8 
REMARK    6  A    between atoms: C_10  and  C_8 
REMARK    7  A    between atoms: C_14  and  O_20 
REMARK    8  A    between atoms: O_20  and  C_21 
REMARK    9  A    between atoms: C_26  and  C_27 
ROOT
HETATM    1  C   UNK N   1      34.098  15.500   7.083  0.00  0.00     0.177 C 
HETATM    2  C   UNK N   1      33.085  14.618   7.766  0.00  0.00     0.040 C 
HETATM    3  C   UNK N   1      33.899  13.372   7.998  0.00  0.00    -0.004 C 
HETATM    4  C   UNK N   1      33.340  12.386   8.993  0.00  0.00     0.037 C 
HETATM    5  C   UNK N   1      34.547  11.606   9.508  0.00  0.00     0.129 C 
HETATM    6  C   UNK N   1      35.145  10.811   8.334  0.00  0.00     0.033 C 
HETATM    7  C   UNK N   1      35.555  11.718   7.159  0.00  0.00     0.009 C 
HETATM    8  C   UNK N   1      34.456  12.704   6.736  0.00  0.00     0.007 C 
HETATM    9  C   UNK N   1      35.125  13.763   5.842  0.00  0.00     0.119 C 
HETATM   10  N   UNK N   1      34.333  14.991   5.732  0.00  0.00    -0.408 N 
HETATM   11  H   UNK N   1      34.004  15.416   4.866  0.00  0.00     0.154 HD
ENDROOT
BRANCH   5  12
HETATM   12  O   UNK N   1      35.498  12.473  10.040  0.00  0.00    -0.345 OA
BRANCH  12  13
HETATM   13  C   UNK N   1      35.849  12.450  11.352  0.00  0.00     0.085 A 
HETATM   14  C   UNK N   1      36.040  11.204  11.963  0.00  0.00     0.038 A 
HETATM   15  C   UNK N   1      36.431  11.109  13.293  0.00  0.00     0.004 A 
HETATM   16  C   UNK N   1      36.628  12.264  14.038  0.00  0.00     0.025 A 
HETATM   17  C   UNK N   1      36.430  13.526  13.470  0.00  0.00     0.050 A 
HETATM   18  C   UNK N   1      36.031  13.642  12.105  0.00  0.00     0.065 A 
HETATM   19 Cl   UNK N   1      36.699  14.909  14.524  0.00  0.00    -0.083 Cl
BRANCH  18  20
HETATM   20  C   UNK N   1      35.791  14.974  11.470  0.00  0.00     0.145 A 
HETATM   21  N   UNK N   1      36.746  15.848  11.109  0.00  0.00    -0.270 N 
HETATM   22  N   UNK N   1      36.106  16.891  10.606  0.00  0.00    -0.007 NA
HETATM   23  H   UNK N   1      37.720  15.736  11.200  0.00  0.00     0.185 HD
HETATM   24  N   UNK N   1      34.803  16.673  10.655  0.00  0.00    -0.007 NA
HETATM   25  N   UNK N   1      34.578  15.486  11.193  0.00  0.00    -0.270 N 
ATOM     26  HN  UNK N   1      33.672  15.049  11.362  1.00  0.00     0.185 HD
ENDBRANCH  18  20
ENDBRANCH  12  13
ENDBRANCH   5  12
BRANCH   1  27
HETATM   27  C   UNK N   1      33.767  16.945   7.075  0.00  0.00     0.281 C 
HETATM   28  O   UNK N   1      34.668  17.762   6.941  0.00  0.00    -0.263 OA
BRANCH  27  29
HETATM   29  O   UNK N   1      32.477  17.334   7.096  0.00  0.00    -0.319 OA
BRANCH  29  30
HETATM   30  C   UNK N   1      31.924  17.874   8.230  0.00  0.00     0.183 C 
BRANCH  30  31
HETATM   31  C   UNK N   1      30.407  17.844   8.095  0.00  0.00     0.009 C 
BRANCH  31  32
HETATM   32  C   UNK N   1      30.035  16.970   6.908  0.00  0.00     0.002 C 
HETATM   33  C   UNK N   1      29.233  17.752   5.885  0.00  0.00     0.005 C 
ENDBRANCH  31  32
BRANCH  31  34
HETATM   34  C   UNK N   1      29.758  17.323   9.378  0.00  0.00     0.002 C 
HETATM   35  C   UNK N   1      28.297  17.723   9.438  0.00  0.00     0.005 C 
ENDBRANCH  31  34
ENDBRANCH  30  31
ENDBRANCH  29  30
ENDBRANCH  27  29
ENDBRANCH   1  27
TORSDOF 9
ENDMDL
