REMARK  16 active torsions:
REMARK  status: ('A' for Active; 'I' for Inactive)
REMARK    1  A    between atoms: C_17  and  C_16 
REMARK    2  A    between atoms: O_48  and  C_16 
REMARK    3  A    between atoms: S_51  and  C_17 
REMARK    4  A    between atoms: C_22  and  C_20 
REMARK    5  A    between atoms: N_37  and  C_20 
REMARK    6  A    between atoms: N_47  and  C_23 
REMARK    7  A    between atoms: S_52  and  C_24 
REMARK    8  A    between atoms: C_33  and  C_25 
REMARK    9  A    between atoms: O_49  and  C_27 
REMARK   10  A    between atoms: S_52  and  C_28 
REMARK   11  A    between atoms: S_51  and  C_29 
REMARK   12  A    between atoms: C_35  and  C_30 
REMARK   13  A    between atoms: N_39  and  C_32 
REMARK   14  A    between atoms: N_37  and  C_34 
REMARK   15  A    between atoms: N_39  and  C_34 
REMARK   16  A    between atoms: O_50  and  C_34 
ROOT
HETATM    1  C   UNK N   1       8.956   2.756  -0.062  0.00  0.00     0.001 A 
HETATM    2  C   UNK N   1       7.675   3.305   0.023  0.00  0.00     0.001 A 
HETATM    3  C   UNK N   1       9.119   1.420  -0.430  0.00  0.00     0.010 A 
HETATM    4  C   UNK N   1       6.558   2.519  -0.266  0.00  0.00     0.019 A 
HETATM    5  C   UNK N   1       8.006   0.621  -0.713  0.00  0.00    -0.023 A 
HETATM    6  C   UNK N   1       6.709   1.177  -0.633  0.00  0.00     0.013 A 
ENDROOT
BRANCH   5   7
HETATM    7  C   UNK N   1       8.255  -0.790  -1.190  0.00  0.00     0.163 C 
BRANCH   7   8
HETATM    8  N   UNK N   1       7.698  -1.895  -0.414  0.00  0.00    -0.352 N 
ATOM      9  HN  UNK N   1       7.565  -2.773  -0.915  1.00  0.00     0.163 HD
BRANCH   8  10
HETATM   10  C   UNK N   1       7.353  -1.894   0.834  0.00  0.00     0.218 C 
BRANCH  10  11
HETATM   11  N   UNK N   1       6.874  -3.090   1.440  0.00  0.00    -0.307 N 
HETATM   12  H   UNK N   1       6.404  -3.007   2.301  0.00  0.00     0.171 HD
BRANCH  11  13
HETATM   13  C   UNK N   1       7.023  -4.400   0.895  0.00  0.00     0.132 A 
HETATM   14  C   UNK N   1       5.977  -5.294   0.773  0.00  0.00     0.077 A 
HETATM   15  C   UNK N   1       6.564  -6.419   0.209  0.00  0.00     0.037 A 
HETATM   16  N   UNK N   1       7.883  -6.204   0.032  0.00  0.00    -0.295 N 
HETATM   17  N   UNK N   1       8.173  -4.982   0.451  0.00  0.00    -0.240 N 
ATOM     18  HN  UNK N   1       8.547  -6.872  -0.359  1.00  0.00     0.187 HD
BRANCH  15  19
HETATM   19  C   UNK N   1       5.855  -7.692  -0.178  0.00  0.00    -0.007 C 
HETATM   20  C   UNK N   1       5.176  -8.303   1.033  0.00  0.00     0.021 C 
HETATM   21  C   UNK N   1       6.826  -8.715  -0.747  0.00  0.00     0.021 C 
HETATM   22  C   UNK N   1       4.808  -7.393  -1.233  0.00  0.00     0.021 C 
ENDBRANCH  15  19
BRANCH  17  23
HETATM   23  C   UNK N   1       9.530  -4.485   0.410  0.00  0.00     0.060 A 
HETATM   24  C   UNK N   1      10.541  -5.284  -0.152  0.00  0.00     0.034 A 
HETATM   25  C   UNK N   1      11.854  -4.815  -0.242  0.00  0.00     0.040 A 
HETATM   26  C   UNK N   1      12.173  -3.537   0.222  0.00  0.00     0.087 A 
HETATM   27  C   UNK N   1      11.179  -2.738   0.799  0.00  0.00     0.069 A 
HETATM   28  C   UNK N   1       9.873  -3.221   0.900  0.00  0.00     0.058 A 
HETATM   29 Cl   UNK N   1      11.539  -1.120   1.374  0.00  0.00    -0.081 Cl
BRANCH  26  30
HETATM   30  O   UNK N   1      13.433  -3.083   0.108  0.00  0.00    -0.359 OA
HETATM   31  H   UNK N   1      14.146  -3.685   0.028  0.00  0.00     0.217 HD
ENDBRANCH  26  30
ENDBRANCH  17  23
ENDBRANCH  11  13
ENDBRANCH  10  11
BRANCH  10  32
HETATM   32  O   UNK N   1       7.442  -0.777   1.583  0.00  0.00    -0.332 OA
HETATM   33  H   UNK N   1       8.145  -0.442   2.104  0.00  0.00     0.220 HD
ENDBRANCH  10  32
ENDBRANCH   8  10
ENDBRANCH   7   8
ENDBRANCH   5   7
BRANCH   6  34
HETATM   34  S   UNK N   1       5.301   0.170  -1.123  0.00  0.00    -0.089 SA
BRANCH  34  35
HETATM   35  C   UNK N   1       3.822   0.956  -0.460  0.00  0.00     0.021 A 
HETATM   36  C   UNK N   1       3.639   2.350  -0.311  0.00  0.00     0.024 A 
HETATM   37  C   UNK N   1       2.369   2.862   0.032  0.00  0.00     0.052 A 
HETATM   38  C   UNK N   1       1.322   1.948   0.147  0.00  0.00     0.127 A 
HETATM   39  N   UNK N   1       0.037   2.209   0.449  0.00  0.00    -0.283 N 
HETATM   40  N   UNK N   1       1.514   0.639  -0.037  0.00  0.00    -0.290 N 
HETATM   41  N   UNK N   1      -0.598   1.040   0.458  0.00  0.00    -0.283 N 
ATOM     42  HN  UNK N   1      -0.370   3.125   0.634  1.00  0.00     0.188 HD
HETATM   43  C   UNK N   1       0.304   0.075   0.139  0.00  0.00     0.139 A 
ATOM     44  HN  UNK N   1      -1.586   0.894   0.667  1.00  0.00     0.188 HD
HETATM   45  C   UNK N   1       2.725   0.117  -0.306  0.00  0.00     0.119 A 
BRANCH  43  46
HETATM   46  C   UNK N   1      -0.058  -1.382   0.079  0.00  0.00     0.027 A 
HETATM   47  C   UNK N   1      -1.177  -1.753   0.843  0.00  0.00     0.017 A 
HETATM   48  C   UNK N   1      -1.616  -3.074   0.906  0.00  0.00     0.001 A 
HETATM   49  C   UNK N   1      -0.952  -4.063   0.190  0.00  0.00     0.001 A 
HETATM   50  C   UNK N   1       0.135  -3.726  -0.610  0.00  0.00     0.019 A 
HETATM   51  C   UNK N   1       0.603  -2.409  -0.684  0.00  0.00     0.014 A 
BRANCH  51  52
HETATM   52  S   UNK N   1       1.920  -2.132  -1.878  0.00  0.00    -0.127 SA
BRANCH  52  53
HETATM   53  C   UNK N   1       3.220  -2.855  -0.822  0.00  0.00     0.105 C 
BRANCH  53  54
HETATM   54  C   UNK N   1       4.203  -3.647  -1.664  0.00  0.00     0.174 C 
BRANCH  54  55
HETATM   55  O   UNK N   1       5.017  -2.778  -2.391  0.00  0.00    -0.400 OA
HETATM   56  H   UNK N   1       5.823  -2.966  -2.897  0.00  0.00     0.209 HD
ENDBRANCH  54  55
ENDBRANCH  53  54
ENDBRANCH  52  53
ENDBRANCH  51  52
ENDBRANCH  43  46
ENDBRANCH  34  35
ENDBRANCH   6  34
TORSDOF 16
