REMARK  11 active torsions:
REMARK  status: ('A' for Active; 'I' for Inactive)
REMARK    1  A    between atoms: C_3  and  C_14 
REMARK    2  A    between atoms: C_4  and  O_13 
REMARK    3  A    between atoms: C_5  and  O_11 
REMARK    4  A    between atoms: C_6  and  O_9 
REMARK    5  A    between atoms: C_14  and  C_15 
REMARK    6  A    between atoms: C_16  and  C_18 
REMARK    7  A    between atoms: C_18  and  C_19 
REMARK    8  A    between atoms: C_19  and  C_20 
REMARK    9  A    between atoms: C_21  and  C_23 
REMARK   10  A    between atoms: C_23  and  C_24 
REMARK   11  A    between atoms: C_24  and  C_25 
ROOT
HETATM    1  C   UNK N   1       2.640   1.039   1.010  0.00  0.00     0.035 C 
ENDROOT
BRANCH   1   2
HETATM    2  C   UNK N   1       1.462   0.541   0.179  0.00  0.00     0.035 C 
HETATM    3  C   UNK N   1       0.208   1.251   0.661  0.00  0.00     0.066 C 
HETATM    4  C   UNK N   1       0.281   2.753   0.392  0.00  0.00     0.018 C 
HETATM    5  C   UNK N   1      -1.017   0.643   0.044  0.00  0.00     0.189 C 
HETATM    6  C   UNK N   1      -1.115  -0.845  -0.089  0.00  0.00     0.146 C 
HETATM    7  O   UNK N   1      -1.949   1.362  -0.295  0.00  0.00    -0.290 OA
HETATM    8  C   UNK N   1       0.008  -1.608   0.096  0.00  0.00     0.111 C 
HETATM    9  C   UNK N   1       1.358  -0.976   0.385  0.00  0.00     0.182 C 
BRANCH   6  10
HETATM   10  O   UNK N   1      -2.300  -1.451  -0.376  0.00  0.00    -0.350 OA
HETATM   11  C   UNK N   1      -3.519  -0.818  -0.463  0.00  0.00     0.210 C 
ENDBRANCH   6  10
BRANCH   8  12
HETATM   12  O   UNK N   1      -0.008  -2.975   0.043  0.00  0.00    -0.355 OA
HETATM   13  C   UNK N   1      -1.097  -3.782  -0.192  0.00  0.00     0.209 C 
ENDBRANCH   8  12
BRANCH   9  14
HETATM   14  O   UNK N   1       2.343  -1.598  -0.387  0.00  0.00    -0.388 OA
HETATM   15  H   UNK N   1       2.311  -2.406  -0.922  0.00  0.00     0.210 HD
ENDBRANCH   9  14
ENDBRANCH   1   2
BRANCH   1  16
HETATM   16  C   UNK N   1       3.948   0.981   0.281  0.00  0.00    -0.024 C 
HETATM   17  C   UNK N   1       4.389   2.000  -0.470  0.00  0.00    -0.087 C 
HETATM   18  C   UNK N   1       5.720   1.889  -1.129  0.00  0.00     0.043 C 
BRANCH  17  19
HETATM   19  C   UNK N   1       3.582   3.248  -0.682  0.00  0.00     0.037 C 
BRANCH  19  20
HETATM   20  C   UNK N   1       3.316   3.960   0.633  0.00  0.00     0.031 C 
BRANCH  20  21
HETATM   21  C   UNK N   1       3.143   5.414   0.368  0.00  0.00    -0.024 C 
HETATM   22  C   UNK N   1       4.142   6.275   0.572  0.00  0.00    -0.087 C 
HETATM   23  C   UNK N   1       5.477   5.807   1.073  0.00  0.00     0.043 C 
BRANCH  22  24
HETATM   24  C   UNK N   1       3.931   7.718   0.262  0.00  0.00     0.037 C 
BRANCH  24  25
HETATM   25  C   UNK N   1       4.862   8.139  -0.859  0.00  0.00     0.031 C 
BRANCH  25  26
HETATM   26  C   UNK N   1       5.789   9.201  -0.364  0.00  0.00    -0.024 C 
HETATM   27  C   UNK N   1       7.094   8.983  -0.166  0.00  0.00    -0.091 C 
HETATM   28  C   UNK N   1       7.947  10.099   0.325  0.00  0.00     0.042 C 
HETATM   29  C   UNK N   1       7.718   7.646  -0.409  0.00  0.00     0.042 C 
ENDBRANCH  25  26
ENDBRANCH  24  25
ENDBRANCH  22  24
ENDBRANCH  20  21
ENDBRANCH  19  20
ENDBRANCH  17  19
ENDBRANCH   1  16
TORSDOF 11
