MODEL 1
REMARK VINA RESULT:      -9.6      0.000      0.000
REMARK  11 active torsions:
REMARK  status: ('A' for Active; 'I' for Inactive)
REMARK    1  A    between atoms: C_7  and  C_11 
REMARK       I    between atoms: C_11  and  N_13 
REMARK    2  A    between atoms: N_13  and  C_14 
REMARK    3  A    between atoms: C_14  and  C_19 
REMARK       I    between atoms: C_19  and  N_21 
REMARK    4  A    between atoms: C_22  and  N_21 
REMARK    5  A    between atoms: C_22  and  C_23 
REMARK    6  A    between atoms: C_22  and  C_30 
REMARK    7  A    between atoms: C_23  and  C_24 
REMARK       I    between atoms: C_30  and  N_32 
REMARK    8  A    between atoms: N_32  and  C_33 
REMARK    9  A    between atoms: C_33  and  C_34 
REMARK   10  A    between atoms: N_37  and  C_40 
REMARK   11  A    between atoms: C_40  and  C_41 
ROOT
HETATM    1  C   UNK N   1      33.367  17.220   8.344  0.00  0.00     0.180 C 
ENDROOT
BRANCH   1   2
HETATM    2  N   UNK N   1      34.461  17.440   9.273  0.00  0.00    -0.345 N 
HETATM    3  C   UNK N   1      35.066  16.502  10.048  0.00  0.00     0.246 C 
HETATM    4  O   UNK N   1      36.005  16.855  10.745  0.00  0.00    -0.271 OA
HETATM    5  H   UNK N   1      34.799  18.361   9.348  0.00  0.00     0.163 HD
BRANCH   3   6
HETATM    6  C   UNK N   1      34.614  15.049  10.095  0.00  0.00     0.114 C 
HETATM    7  C   UNK N   1      35.311  14.260   9.009  0.00  0.00     0.041 C 
HETATM    8  C   UNK N   1      34.358  13.130   8.656  0.00  0.00     0.003 C 
HETATM    9  C   UNK N   1      32.963  13.609   9.022  0.00  0.00     0.003 C 
HETATM   10  C   UNK N   1      33.137  14.945   9.714  0.00  0.00     0.041 C 
BRANCH   6  11
HETATM   11  N   UNK N   1      34.940  14.494  11.403  0.00  0.00    -0.338 N 
HETATM   12  C   UNK N   1      36.064  13.872  11.830  0.00  0.00     0.259 C 
HETATM   13  O   UNK N   1      37.074  13.833  11.138  0.00  0.00    -0.267 OA
HETATM   14  H   UNK N   1      34.233  14.586  12.081  0.00  0.00     0.164 HD
BRANCH  12  15
HETATM   15  C   UNK N   1      36.011  13.118  13.087  0.00  0.00     0.074 A 
HETATM   16  C   UNK N   1      35.954  13.687  14.373  0.00  0.00     0.037 A 
HETATM   17  C   UNK N   1      35.688  12.715  15.373  0.00  0.00    -0.018 A 
HETATM   18  C   UNK N   1      35.525  12.970  16.733  0.00  0.00     0.013 A 
HETATM   19  C   UNK N   1      35.537  11.423  14.879  0.00  0.00     0.016 A 
HETATM   20  C   UNK N   1      35.193  11.900  17.583  0.00  0.00     0.007 A 
HETATM   21  C   UNK N   1      35.031  10.597  17.066  0.00  0.00    -0.061 A 
HETATM   22  C   UNK N   1      34.649   9.484  17.973  0.00  0.00     0.048 C 
HETATM   23  C   UNK N   1      35.208  10.348  15.695  0.00  0.00     0.026 A 
HETATM   24  S   UNK N   1      35.747  11.481  13.243  0.00  0.00    -0.084 SA
ENDBRANCH  12  15
ENDBRANCH   6  11
ENDBRANCH   3   6
ENDBRANCH   1   2
BRANCH   1  25
HETATM   25  C   UNK N   1      32.442  18.445   8.343  0.00  0.00     0.073 C 
BRANCH  25  26
HETATM   26  C   UNK N   1      30.982  18.089   8.344  0.00  0.00    -0.056 A 
HETATM   27  C   UNK N   1      30.429  17.285   7.336  0.00  0.00     0.007 A 
HETATM   28  C   UNK N   1      29.059  17.016   7.323  0.00  0.00     0.001 A 
HETATM   29  C   UNK N   1      28.238  17.543   8.322  0.00  0.00     0.000 A 
HETATM   30  C   UNK N   1      28.788  18.338   9.333  0.00  0.00     0.001 A 
HETATM   31  C   UNK N   1      30.157  18.615   9.339  0.00  0.00     0.007 A 
ENDBRANCH  25  26
ENDBRANCH   1  25
BRANCH   1  32
HETATM   32  C   UNK N   1      33.896  17.032   6.944  0.00  0.00     0.240 C 
HETATM   33  O   UNK N   1      34.464  17.953   6.369  0.00  0.00    -0.271 OA
HETATM   34  N   UNK N   1      33.623  15.879   6.281  0.00  0.00    -0.359 N 
HETATM   35  H   UNK N   1      33.324  15.090   6.789  0.00  0.00     0.162 HD
BRANCH  34  36
HETATM   36  C   UNK N   1      33.760  15.785   4.848  0.00  0.00     0.127 C 
BRANCH  36  37
HETATM   37  C   UNK N   1      32.399  15.372   4.298  0.00  0.00     0.007 C 
HETATM   38  C   UNK N   1      31.551  14.581   5.282  0.00  0.00     0.036 C 
HETATM   39  C   UNK N   1      30.246  14.201   4.578  0.00  0.00     0.273 C 
HETATM   40  N   UNK N   1      29.547  15.417   4.161  0.00  0.00     0.088 N 
HETATM   41  C   UNK N   1      30.331  16.109   3.145  0.00  0.00     0.273 C 
HETATM   42  C   UNK N   1      31.633  16.586   3.768  0.00  0.00     0.036 C 
BRANCH  40  43
HETATM   43  C   UNK N   1      28.269  15.057   3.571  0.00  0.00     0.277 C 
BRANCH  43  44
HETATM   44  C   UNK N   1      27.467  16.295   3.133  0.00  0.00     0.018 C 
HETATM   45  C   UNK N   1      27.151  17.289   4.269  0.00  0.00     0.032 C 
HETATM   46  C   UNK N   1      25.908  16.861   5.078  0.00  0.00     0.168 C 
HETATM   47  O   UNK N   1      25.465  15.576   4.712  0.00  0.00    -0.391 OA
HETATM   48  C   UNK N   1      25.010  15.679   3.386  0.00  0.00     0.168 C 
HETATM   49  C   UNK N   1      26.186  15.865   2.411  0.00  0.00     0.032 C 
ENDBRANCH  43  44
ENDBRANCH  40  43
ENDBRANCH  36  37
ENDBRANCH  34  36
ENDBRANCH   1  32
TORSDOF 11
ENDMDL
MODEL 2
REMARK VINA RESULT:      -8.9     15.257     19.750
REMARK  11 active torsions:
REMARK  status: ('A' for Active; 'I' for Inactive)
REMARK    1  A    between atoms: C_7  and  C_11 
REMARK       I    between atoms: C_11  and  N_13 
REMARK    2  A    between atoms: N_13  and  C_14 
REMARK    3  A    between atoms: C_14  and  C_19 
REMARK       I    between atoms: C_19  and  N_21 
REMARK    4  A    between atoms: C_22  and  N_21 
REMARK    5  A    between atoms: C_22  and  C_23 
REMARK    6  A    between atoms: C_22  and  C_30 
REMARK    7  A    between atoms: C_23  and  C_24 
REMARK       I    between atoms: C_30  and  N_32 
REMARK    8  A    between atoms: N_32  and  C_33 
REMARK    9  A    between atoms: C_33  and  C_34 
REMARK   10  A    between atoms: N_37  and  C_40 
REMARK   11  A    between atoms: C_40  and  C_41 
ROOT
HETATM    1  C   UNK N   1      26.183  24.839  -6.056  0.00  0.00     0.180 C 
ENDROOT
BRANCH   1   2
HETATM    2  N   UNK N   1      25.453  23.765  -6.705  0.00  0.00    -0.345 N 
HETATM    3  C   UNK N   1      25.338  23.557  -8.043  0.00  0.00     0.246 C 
HETATM    4  O   UNK N   1      24.718  22.574  -8.418  0.00  0.00    -0.271 OA
HETATM    5  H   UNK N   1      24.994  23.123  -6.116  0.00  0.00     0.163 HD
BRANCH   3   6
HETATM    6  C   UNK N   1      25.932  24.499  -9.081  0.00  0.00     0.114 C 
HETATM    7  C   UNK N   1      25.214  25.829  -9.037  0.00  0.00     0.041 C 
HETATM    8  C   UNK N   1      25.323  26.392 -10.444  0.00  0.00     0.003 C 
HETATM    9  C   UNK N   1      25.500  25.205 -11.375  0.00  0.00     0.003 C 
HETATM   10  C   UNK N   1      25.637  23.984 -10.490  0.00  0.00     0.041 C 
BRANCH   6  11
HETATM   11  N   UNK N   1      27.349  24.687  -8.792  0.00  0.00    -0.338 N 
HETATM   12  C   UNK N   1      28.350  23.780  -8.713  0.00  0.00     0.259 C 
HETATM   13  O   UNK N   1      28.183  22.614  -9.048  0.00  0.00    -0.267 OA
HETATM   14  H   UNK N   1      27.619  25.620  -8.629  0.00  0.00     0.164 HD
BRANCH  12  15
HETATM   15  C   UNK N   1      29.612  24.185  -8.084  0.00  0.00     0.074 A 
HETATM   16  C   UNK N   1      29.741  25.165  -7.081  0.00  0.00     0.037 A 
HETATM   17  C   UNK N   1      31.044  25.179  -6.517  0.00  0.00    -0.018 A 
HETATM   18  C   UNK N   1      31.471  25.998  -5.474  0.00  0.00     0.013 A 
HETATM   19  C   UNK N   1      31.907  24.233  -7.064  0.00  0.00     0.016 A 
HETATM   20  C   UNK N   1      32.779  25.836  -4.983  0.00  0.00     0.007 A 
HETATM   21  C   UNK N   1      33.638  24.864  -5.539  0.00  0.00    -0.061 A 
HETATM   22  C   UNK N   1      35.005  24.685  -4.987  0.00  0.00     0.048 C 
HETATM   23  C   UNK N   1      33.203  24.051  -6.598  0.00  0.00     0.026 A 
HETATM   24  S   UNK N   1      31.079  23.411  -8.231  0.00  0.00    -0.084 SA
ENDBRANCH  12  15
ENDBRANCH   6  11
ENDBRANCH   3   6
ENDBRANCH   1   2
BRANCH   1  25
HETATM   25  C   UNK N   1      25.230  26.011  -5.778  0.00  0.00     0.073 C 
BRANCH  25  26
HETATM   26  C   UNK N   1      25.942  27.313  -5.542  0.00  0.00    -0.056 A 
HETATM   27  C   UNK N   1      26.954  27.756  -6.406  0.00  0.00     0.007 A 
HETATM   28  C   UNK N   1      27.644  28.939  -6.135  0.00  0.00     0.001 A 
HETATM   29  C   UNK N   1      27.320  29.688  -5.001  0.00  0.00     0.000 A 
HETATM   30  C   UNK N   1      26.306  29.253  -4.141  0.00  0.00     0.001 A 
HETATM   31  C   UNK N   1      25.623  28.064  -4.409  0.00  0.00     0.007 A 
ENDBRANCH  25  26
ENDBRANCH   1  25
BRANCH   1  32
HETATM   32  C   UNK N   1      26.745  24.370  -4.737  0.00  0.00     0.240 C 
HETATM   33  O   UNK N   1      26.072  24.449  -3.716  0.00  0.00    -0.271 OA
HETATM   34  N   UNK N   1      28.044  23.983  -4.669  0.00  0.00    -0.359 N 
HETATM   35  H   UNK N   1      28.524  23.760  -5.500  0.00  0.00     0.162 HD
BRANCH  34  36
HETATM   36  C   UNK N   1      28.737  23.892  -3.407  0.00  0.00     0.127 C 
BRANCH  36  37
HETATM   37  C   UNK N   1      29.723  22.734  -3.525  0.00  0.00     0.007 C 
HETATM   38  C   UNK N   1      29.780  22.113  -4.912  0.00  0.00     0.036 C 
HETATM   39  C   UNK N   1      30.770  20.945  -4.864  0.00  0.00     0.273 C 
HETATM   40  N   UNK N   1      32.088  21.442  -4.468  0.00  0.00     0.088 N 
HETATM   41  C   UNK N   1      32.034  21.943  -3.100  0.00  0.00     0.273 C 
HETATM   42  C   UNK N   1      31.117  23.154  -3.055  0.00  0.00     0.036 C 
BRANCH  40  43
HETATM   43  C   UNK N   1      33.044  20.348  -4.507  0.00  0.00     0.277 C 
BRANCH  43  44
HETATM   44  C   UNK N   1      33.906  20.380  -5.780  0.00  0.00     0.018 C 
HETATM   45  C   UNK N   1      34.123  19.004  -6.442  0.00  0.00     0.032 C 
HETATM   46  C   UNK N   1      35.272  18.220  -5.773  0.00  0.00     0.168 C 
HETATM   47  O   UNK N   1      35.728  18.858  -4.604  0.00  0.00    -0.391 OA
HETATM   48  C   UNK N   1      36.315  20.066  -5.019  0.00  0.00     0.168 C 
HETATM   49  C   UNK N   1      35.246  21.065  -5.494  0.00  0.00     0.032 C 
ENDBRANCH  43  44
ENDBRANCH  40  43
ENDBRANCH  36  37
ENDBRANCH  34  36
ENDBRANCH   1  32
TORSDOF 11
ENDMDL
MODEL 3
REMARK VINA RESULT:      -8.7      1.988      3.080
REMARK  11 active torsions:
REMARK  status: ('A' for Active; 'I' for Inactive)
REMARK    1  A    between atoms: C_7  and  C_11 
REMARK       I    between atoms: C_11  and  N_13 
REMARK    2  A    between atoms: N_13  and  C_14 
REMARK    3  A    between atoms: C_14  and  C_19 
REMARK       I    between atoms: C_19  and  N_21 
REMARK    4  A    between atoms: C_22  and  N_21 
REMARK    5  A    between atoms: C_22  and  C_23 
REMARK    6  A    between atoms: C_22  and  C_30 
REMARK    7  A    between atoms: C_23  and  C_24 
REMARK       I    between atoms: C_30  and  N_32 
REMARK    8  A    between atoms: N_32  and  C_33 
REMARK    9  A    between atoms: C_33  and  C_34 
REMARK   10  A    between atoms: N_37  and  C_40 
REMARK   11  A    between atoms: C_40  and  C_41 
ROOT
HETATM    1  C   UNK N   1      35.504  14.191   8.728  0.00  0.00     0.180 C 
ENDROOT
BRANCH   1   2
HETATM    2  N   UNK N   1      36.664  13.575   9.345  0.00  0.00    -0.345 N 
HETATM    3  C   UNK N   1      36.677  12.441  10.095  0.00  0.00     0.246 C 
HETATM    4  O   UNK N   1      37.754  12.038  10.504  0.00  0.00    -0.271 OA
HETATM    5  H   UNK N   1      37.530  14.023   9.207  0.00  0.00     0.163 HD
BRANCH   3   6
HETATM    6  C   UNK N   1      35.412  11.672  10.454  0.00  0.00     0.114 C 
HETATM    7  C   UNK N   1      35.502  10.260   9.920  0.00  0.00     0.041 C 
HETATM    8  C   UNK N   1      34.066   9.831   9.672  0.00  0.00     0.003 C 
HETATM    9  C   UNK N   1      33.265  11.103   9.446  0.00  0.00     0.003 C 
HETATM   10  C   UNK N   1      34.212  12.256   9.710  0.00  0.00     0.041 C 
BRANCH   6  11
HETATM   11  N   UNK N   1      35.270  11.649  11.905  0.00  0.00    -0.338 N 
HETATM   12  C   UNK N   1      35.006  12.656  12.771  0.00  0.00     0.259 C 
HETATM   13  O   UNK N   1      34.689  13.770  12.377  0.00  0.00    -0.267 OA
HETATM   14  H   UNK N   1      35.384  10.763  12.319  0.00  0.00     0.164 HD
BRANCH  12  15
HETATM   15  C   UNK N   1      35.243  12.427  14.201  0.00  0.00     0.074 A 
HETATM   16  C   UNK N   1      35.256  13.427  15.192  0.00  0.00     0.037 A 
HETATM   17  C   UNK N   1      35.290  12.877  16.500  0.00  0.00    -0.018 A 
HETATM   18  C   UNK N   1      35.261  13.603  17.689  0.00  0.00     0.013 A 
HETATM   19  C   UNK N   1      35.299  11.486  16.529  0.00  0.00     0.016 A 
HETATM   20  C   UNK N   1      35.229  12.899  18.906  0.00  0.00     0.007 A 
HETATM   21  C   UNK N   1      35.227  11.488  18.919  0.00  0.00    -0.061 A 
HETATM   22  C   UNK N   1      35.159  10.761  20.213  0.00  0.00     0.048 C 
HETATM   23  C   UNK N   1      35.267  10.765  17.716  0.00  0.00     0.026 A 
HETATM   24  S   UNK N   1      35.285  10.950  14.968  0.00  0.00    -0.084 SA
ENDBRANCH  12  15
ENDBRANCH   6  11
ENDBRANCH   3   6
ENDBRANCH   1   2
BRANCH   1  25
HETATM   25  C   UNK N   1      35.327  15.615   9.276  0.00  0.00     0.073 C 
BRANCH  25  26
HETATM   26  C   UNK N   1      33.987  16.213   8.955  0.00  0.00    -0.056 A 
HETATM   27  C   UNK N   1      33.877  17.497   8.401  0.00  0.00     0.007 A 
HETATM   28  C   UNK N   1      32.620  18.058   8.167  0.00  0.00     0.001 A 
HETATM   29  C   UNK N   1      31.467  17.333   8.480  0.00  0.00     0.000 A 
HETATM   30  C   UNK N   1      31.573  16.050   9.024  0.00  0.00     0.001 A 
HETATM   31  C   UNK N   1      32.832  15.494   9.268  0.00  0.00     0.007 A 
ENDBRANCH  25  26
ENDBRANCH   1  25
BRANCH   1  32
HETATM   32  C   UNK N   1      35.691  14.284   7.234  0.00  0.00     0.240 C 
HETATM   33  O   UNK N   1      36.809  14.456   6.761  0.00  0.00    -0.271 OA
HETATM   34  N   UNK N   1      34.599  14.307   6.428  0.00  0.00    -0.359 N 
HETATM   35  H   UNK N   1      33.733  14.002   6.783  0.00  0.00     0.162 HD
BRANCH  34  36
HETATM   36  C   UNK N   1      34.680  14.768   5.063  0.00  0.00     0.127 C 
BRANCH  36  37
HETATM   37  C   UNK N   1      33.324  15.376   4.719  0.00  0.00     0.007 C 
HETATM   38  C   UNK N   1      32.203  14.951   5.656  0.00  0.00     0.036 C 
HETATM   39  C   UNK N   1      30.906  15.597   5.161  0.00  0.00     0.273 C 
HETATM   40  N   UNK N   1      31.057  17.053   5.167  0.00  0.00     0.088 N 
HETATM   41  C   UNK N   1      32.066  17.446   4.191  0.00  0.00     0.273 C 
HETATM   42  C   UNK N   1      33.415  16.900   4.631  0.00  0.00     0.036 C 
BRANCH  40  43
HETATM   43  C   UNK N   1      29.798  17.667   4.780  0.00  0.00     0.277 C 
BRANCH  43  44
HETATM   44  C   UNK N   1      28.659  17.308   5.750  0.00  0.00     0.018 C 
HETATM   45  C   UNK N   1      27.337  16.904   5.064  0.00  0.00     0.032 C 
HETATM   46  C   UNK N   1      26.502  18.136   4.657  0.00  0.00     0.168 C 
HETATM   47  O   UNK N   1      27.219  19.335   4.834  0.00  0.00    -0.391 OA
HETATM   48  C   UNK N   1      27.412  19.476   6.219  0.00  0.00     0.168 C 
HETATM   49  C   UNK N   1      28.432  18.451   6.744  0.00  0.00     0.032 C 
ENDBRANCH  43  44
ENDBRANCH  40  43
ENDBRANCH  36  37
ENDBRANCH  34  36
ENDBRANCH   1  32
TORSDOF 11
ENDMDL
MODEL 4
REMARK VINA RESULT:      -8.7     15.426     19.426
REMARK  11 active torsions:
REMARK  status: ('A' for Active; 'I' for Inactive)
REMARK    1  A    between atoms: C_7  and  C_11 
REMARK       I    between atoms: C_11  and  N_13 
REMARK    2  A    between atoms: N_13  and  C_14 
REMARK    3  A    between atoms: C_14  and  C_19 
REMARK       I    between atoms: C_19  and  N_21 
REMARK    4  A    between atoms: C_22  and  N_21 
REMARK    5  A    between atoms: C_22  and  C_23 
REMARK    6  A    between atoms: C_22  and  C_30 
REMARK    7  A    between atoms: C_23  and  C_24 
REMARK       I    between atoms: C_30  and  N_32 
REMARK    8  A    between atoms: N_32  and  C_33 
REMARK    9  A    between atoms: C_33  and  C_34 
REMARK   10  A    between atoms: N_37  and  C_40 
REMARK   11  A    between atoms: C_40  and  C_41 
ROOT
HETATM    1  C   UNK N   1      26.128  24.654  -5.627  0.00  0.00     0.180 C 
ENDROOT
BRANCH   1   2
HETATM    2  N   UNK N   1      25.348  23.492  -6.012  0.00  0.00    -0.345 N 
HETATM    3  C   UNK N   1      25.488  22.763  -7.150  0.00  0.00     0.246 C 
HETATM    4  O   UNK N   1      24.772  21.785  -7.296  0.00  0.00    -0.271 OA
HETATM    5  H   UNK N   1      24.646  23.202  -5.385  0.00  0.00     0.163 HD
BRANCH   3   6
HETATM    6  C   UNK N   1      26.482  23.124  -8.247  0.00  0.00     0.114 C 
HETATM    7  C   UNK N   1      26.301  24.572  -8.646  0.00  0.00     0.041 C 
HETATM    8  C   UNK N   1      26.741  24.647 -10.098  0.00  0.00     0.003 C 
HETATM    9  C   UNK N   1      26.555  23.256 -10.681  0.00  0.00     0.003 C 
HETATM   10  C   UNK N   1      26.151  22.360  -9.529  0.00  0.00     0.041 C 
BRANCH   6  11
HETATM   11  N   UNK N   1      27.834  22.909  -7.748  0.00  0.00    -0.338 N 
HETATM   12  C   UNK N   1      28.504  21.755  -7.513  0.00  0.00     0.259 C 
HETATM   13  O   UNK N   1      28.051  20.673  -7.862  0.00  0.00    -0.267 OA
HETATM   14  H   UNK N   1      28.340  23.731  -7.551  0.00  0.00     0.164 HD
BRANCH  12  15
HETATM   15  C   UNK N   1      29.725  21.810  -6.702  0.00  0.00     0.074 A 
HETATM   16  C   UNK N   1      29.800  21.523  -5.326  0.00  0.00     0.037 A 
HETATM   17  C   UNK N   1      31.143  21.445  -4.872  0.00  0.00    -0.018 A 
HETATM   18  C   UNK N   1      31.547  21.130  -3.576  0.00  0.00     0.013 A 
HETATM   19  C   UNK N   1      32.090  21.662  -5.869  0.00  0.00     0.016 A 
HETATM   20  C   UNK N   1      32.924  21.025  -3.308  0.00  0.00     0.007 A 
HETATM   21  C   UNK N   1      33.872  21.235  -4.332  0.00  0.00    -0.061 A 
HETATM   22  C   UNK N   1      35.321  21.088  -4.038  0.00  0.00     0.048 C 
HETATM   23  C   UNK N   1      33.455  21.563  -5.632  0.00  0.00     0.026 A 
HETATM   24  S   UNK N   1      31.281  21.961  -7.276  0.00  0.00    -0.084 SA
ENDBRANCH  12  15
ENDBRANCH   6  11
ENDBRANCH   3   6
ENDBRANCH   1   2
BRANCH   1  25
HETATM   25  C   UNK N   1      25.183  25.822  -5.308  0.00  0.00     0.073 C 
BRANCH  25  26
HETATM   26  C   UNK N   1      25.882  27.151  -5.243  0.00  0.00    -0.056 A 
HETATM   27  C   UNK N   1      26.736  27.575  -6.272  0.00  0.00     0.007 A 
HETATM   28  C   UNK N   1      27.422  28.786  -6.163  0.00  0.00     0.001 A 
HETATM   29  C   UNK N   1      27.252  29.582  -5.027  0.00  0.00     0.000 A 
HETATM   30  C   UNK N   1      26.395  29.165  -4.003  0.00  0.00     0.001 A 
HETATM   31  C   UNK N   1      25.717  27.948  -4.109  0.00  0.00     0.007 A 
ENDBRANCH  25  26
ENDBRANCH   1  25
BRANCH   1  32
HETATM   32  C   UNK N   1      26.938  24.356  -4.389  0.00  0.00     0.240 C 
HETATM   33  O   UNK N   1      26.382  24.216  -3.306  0.00  0.00    -0.271 OA
HETATM   34  N   UNK N   1      28.293  24.374  -4.463  0.00  0.00    -0.359 N 
HETATM   35  H   UNK N   1      28.728  24.317  -5.345  0.00  0.00     0.162 HD
BRANCH  34  36
HETATM   36  C   UNK N   1      29.110  24.477  -3.278  0.00  0.00     0.127 C 
BRANCH  36  37
HETATM   37  C   UNK N   1      30.205  25.495  -3.581  0.00  0.00     0.007 C 
HETATM   38  C   UNK N   1      31.256  24.995  -4.560  0.00  0.00     0.036 C 
HETATM   39  C   UNK N   1      32.304  26.099  -4.728  0.00  0.00     0.273 C 
HETATM   40  N   UNK N   1      31.658  27.308  -5.240  0.00  0.00     0.088 N 
HETATM   41  C   UNK N   1      30.727  27.826  -4.245  0.00  0.00     0.273 C 
HETATM   42  C   UNK N   1      29.604  26.820  -4.052  0.00  0.00     0.036 C 
BRANCH  40  43
HETATM   43  C   UNK N   1      32.668  28.325  -5.480  0.00  0.00     0.277 C 
BRANCH  43  44
HETATM   44  C   UNK N   1      32.869  28.595  -6.981  0.00  0.00     0.018 C 
HETATM   45  C   UNK N   1      33.220  30.056  -7.327  0.00  0.00     0.032 C 
HETATM   46  C   UNK N   1      31.961  30.945  -7.412  0.00  0.00     0.168 C 
HETATM   47  O   UNK N   1      30.810  30.262  -6.973  0.00  0.00    -0.391 OA
HETATM   48  C   UNK N   1      30.585  29.233  -7.903  0.00  0.00     0.168 C 
HETATM   49  C   UNK N   1      31.644  28.126  -7.771  0.00  0.00     0.032 C 
ENDBRANCH  43  44
ENDBRANCH  40  43
ENDBRANCH  36  37
ENDBRANCH  34  36
ENDBRANCH   1  32
TORSDOF 11
ENDMDL
MODEL 5
REMARK VINA RESULT:      -8.7     15.583     19.597
REMARK  11 active torsions:
REMARK  status: ('A' for Active; 'I' for Inactive)
REMARK    1  A    between atoms: C_7  and  C_11 
REMARK       I    between atoms: C_11  and  N_13 
REMARK    2  A    between atoms: N_13  and  C_14 
REMARK    3  A    between atoms: C_14  and  C_19 
REMARK       I    between atoms: C_19  and  N_21 
REMARK    4  A    between atoms: C_22  and  N_21 
REMARK    5  A    between atoms: C_22  and  C_23 
REMARK    6  A    between atoms: C_22  and  C_30 
REMARK    7  A    between atoms: C_23  and  C_24 
REMARK       I    between atoms: C_30  and  N_32 
REMARK    8  A    between atoms: N_32  and  C_33 
REMARK    9  A    between atoms: C_33  and  C_34 
REMARK   10  A    between atoms: N_37  and  C_40 
REMARK   11  A    between atoms: C_40  and  C_41 
ROOT
HETATM    1  C   UNK N   1      26.317  24.069  -7.468  0.00  0.00     0.180 C 
ENDROOT
BRANCH   1   2
HETATM    2  N   UNK N   1      25.375  24.890  -6.728  0.00  0.00    -0.345 N 
HETATM    3  C   UNK N   1      25.623  26.104  -6.172  0.00  0.00     0.246 C 
HETATM    4  O   UNK N   1      24.698  26.679  -5.618  0.00  0.00    -0.271 OA
HETATM    5  H   UNK N   1      24.465  24.530  -6.619  0.00  0.00     0.163 HD
BRANCH   3   6
HETATM    6  C   UNK N   1      26.996  26.762  -6.197  0.00  0.00     0.114 C 
HETATM    7  C   UNK N   1      26.994  27.987  -5.309  0.00  0.00     0.041 C 
HETATM    8  C   UNK N   1      28.034  28.919  -5.907  0.00  0.00     0.003 C 
HETATM    9  C   UNK N   1      28.145  28.560  -7.379  0.00  0.00     0.003 C 
HETATM   10  C   UNK N   1      27.281  27.333  -7.586  0.00  0.00     0.041 C 
BRANCH   6  11
HETATM   11  N   UNK N   1      27.987  25.804  -5.724  0.00  0.00    -0.338 N 
HETATM   12  C   UNK N   1      28.250  25.369  -4.469  0.00  0.00     0.259 C 
HETATM   13  O   UNK N   1      27.519  25.655  -3.529  0.00  0.00    -0.267 OA
HETATM   14  H   UNK N   1      28.555  25.412  -6.427  0.00  0.00     0.164 HD
BRANCH  12  15
HETATM   15  C   UNK N   1      29.511  24.659  -4.225  0.00  0.00     0.074 A 
HETATM   16  C   UNK N   1      29.661  23.536  -3.391  0.00  0.00     0.037 A 
HETATM   17  C   UNK N   1      30.942  22.940  -3.529  0.00  0.00    -0.018 A 
HETATM   18  C   UNK N   1      31.379  21.789  -2.876  0.00  0.00     0.013 A 
HETATM   19  C   UNK N   1      31.767  23.580  -4.449  0.00  0.00     0.016 A 
HETATM   20  C   UNK N   1      32.658  21.288  -3.179  0.00  0.00     0.007 A 
HETATM   21  C   UNK N   1      33.479  21.941  -4.124  0.00  0.00    -0.061 A 
HETATM   22  C   UNK N   1      34.813  21.380  -4.456  0.00  0.00     0.048 C 
HETATM   23  C   UNK N   1      33.034  23.107  -4.768  0.00  0.00     0.026 A 
HETATM   24  S   UNK N   1      30.934  24.865  -5.063  0.00  0.00    -0.084 SA
ENDBRANCH  12  15
ENDBRANCH   6  11
ENDBRANCH   3   6
ENDBRANCH   1   2
BRANCH   1  25
HETATM   25  C   UNK N   1      26.220  22.614  -6.983  0.00  0.00     0.073 C 
BRANCH  25  26
HETATM   26  C   UNK N   1      27.472  21.821  -7.228  0.00  0.00    -0.056 A 
HETATM   27  C   UNK N   1      27.436  20.599  -7.915  0.00  0.00     0.007 A 
HETATM   28  C   UNK N   1      28.602  19.849  -8.080  0.00  0.00     0.001 A 
HETATM   29  C   UNK N   1      29.811  20.322  -7.563  0.00  0.00     0.000 A 
HETATM   30  C   UNK N   1      29.851  21.544  -6.884  0.00  0.00     0.001 A 
HETATM   31  C   UNK N   1      28.682  22.288  -6.711  0.00  0.00     0.007 A 
ENDBRANCH  25  26
ENDBRANCH   1  25
BRANCH   1  32
HETATM   32  C   UNK N   1      25.992  24.093  -8.941  0.00  0.00     0.240 C 
HETATM   33  O   UNK N   1      24.832  23.982  -9.319  0.00  0.00    -0.271 OA
HETATM   34  N   UNK N   1      27.005  24.108  -9.843  0.00  0.00    -0.359 N 
HETATM   35  H   UNK N   1      27.909  24.366  -9.549  0.00  0.00     0.162 HD
BRANCH  34  36
HETATM   36  C   UNK N   1      26.787  23.754 -11.225  0.00  0.00     0.127 C 
BRANCH  36  37
HETATM   37  C   UNK N   1      27.842  22.714 -11.589  0.00  0.00     0.007 C 
HETATM   38  C   UNK N   1      29.063  22.733 -10.682  0.00  0.00     0.036 C 
HETATM   39  C   UNK N   1      30.046  21.677 -11.194  0.00  0.00     0.273 C 
HETATM   40  N   UNK N   1      29.404  20.362 -11.164  0.00  0.00     0.088 N 
HETATM   41  C   UNK N   1      28.298  20.334 -12.113  0.00  0.00     0.273 C 
HETATM   42  C   UNK N   1      27.230  21.314 -11.653  0.00  0.00     0.036 C 
BRANCH  40  43
HETATM   43  C   UNK N   1      30.365  19.350 -11.568  0.00  0.00     0.277 C 
BRANCH  43  44
HETATM   44  C   UNK N   1      30.019  17.964 -10.997  0.00  0.00     0.018 C 
HETATM   45  C   UNK N   1      30.903  17.519  -9.815  0.00  0.00     0.032 C 
HETATM   46  C   UNK N   1      32.237  16.907 -10.292  0.00  0.00     0.168 C 
HETATM   47  O   UNK N   1      32.416  17.066 -11.680  0.00  0.00    -0.391 OA
HETATM   48  C   UNK N   1      31.424  16.286 -12.297  0.00  0.00     0.168 C 
HETATM   49  C   UNK N   1      30.032  16.915 -12.113  0.00  0.00     0.032 C 
ENDBRANCH  43  44
ENDBRANCH  40  43
ENDBRANCH  36  37
ENDBRANCH  34  36
ENDBRANCH   1  32
TORSDOF 11
ENDMDL
MODEL 6
REMARK VINA RESULT:      -8.6      4.265      9.657
REMARK  11 active torsions:
REMARK  status: ('A' for Active; 'I' for Inactive)
REMARK    1  A    between atoms: C_7  and  C_11 
REMARK       I    between atoms: C_11  and  N_13 
REMARK    2  A    between atoms: N_13  and  C_14 
REMARK    3  A    between atoms: C_14  and  C_19 
REMARK       I    between atoms: C_19  and  N_21 
REMARK    4  A    between atoms: C_22  and  N_21 
REMARK    5  A    between atoms: C_22  and  C_23 
REMARK    6  A    between atoms: C_22  and  C_30 
REMARK    7  A    between atoms: C_23  and  C_24 
REMARK       I    between atoms: C_30  and  N_32 
REMARK    8  A    between atoms: N_32  and  C_33 
REMARK    9  A    between atoms: C_33  and  C_34 
REMARK   10  A    between atoms: N_37  and  C_40 
REMARK   11  A    between atoms: C_40  and  C_41 
ROOT
HETATM    1  C   UNK N   1      29.074  16.460   4.698  0.00  0.00     0.180 C 
ENDROOT
BRANCH   1   2
HETATM    2  N   UNK N   1      29.126  15.055   5.062  0.00  0.00    -0.345 N 
HETATM    3  C   UNK N   1      28.143  14.135   4.882  0.00  0.00     0.246 C 
HETATM    4  O   UNK N   1      28.373  12.981   5.210  0.00  0.00    -0.271 OA
HETATM    5  H   UNK N   1      29.958  14.738   5.483  0.00  0.00     0.163 HD
BRANCH   3   6
HETATM    6  C   UNK N   1      26.777  14.485   4.308  0.00  0.00     0.114 C 
HETATM    7  C   UNK N   1      26.529  13.684   3.048  0.00  0.00     0.041 C 
HETATM    8  C   UNK N   1      25.597  14.538   2.206  0.00  0.00     0.003 C 
HETATM    9  C   UNK N   1      25.820  15.978   2.634  0.00  0.00     0.003 C 
HETATM   10  C   UNK N   1      26.767  15.931   3.815  0.00  0.00     0.041 C 
BRANCH   6  11
HETATM   11  N   UNK N   1      25.755  14.179   5.302  0.00  0.00    -0.338 N 
HETATM   12  C   UNK N   1      25.555  14.701   6.535  0.00  0.00     0.259 C 
HETATM   13  O   UNK N   1      26.184  15.676   6.925  0.00  0.00    -0.267 OA
HETATM   14  H   UNK N   1      25.110  13.485   5.034  0.00  0.00     0.164 HD
BRANCH  12  15
HETATM   15  C   UNK N   1      24.664  13.989   7.459  0.00  0.00     0.074 A 
HETATM   16  C   UNK N   1      25.071  13.333   8.635  0.00  0.00     0.037 A 
HETATM   17  C   UNK N   1      23.964  12.931   9.429  0.00  0.00    -0.018 A 
HETATM   18  C   UNK N   1      24.038  12.303  10.671  0.00  0.00     0.013 A 
HETATM   19  C   UNK N   1      22.728  13.269   8.887  0.00  0.00     0.016 A 
HETATM   20  C   UNK N   1      22.843  12.036  11.361  0.00  0.00     0.007 A 
HETATM   21  C   UNK N   1      21.597  12.396  10.805  0.00  0.00    -0.061 A 
HETATM   22  C   UNK N   1      20.346  12.135  11.563  0.00  0.00     0.048 C 
HETATM   23  C   UNK N   1      21.532  13.018   9.548  0.00  0.00     0.026 A 
HETATM   24  S   UNK N   1      23.000  14.032   7.449  0.00  0.00    -0.084 SA
ENDBRANCH  12  15
ENDBRANCH   6  11
ENDBRANCH   3   6
ENDBRANCH   1   2
BRANCH   1  25
HETATM   25  C   UNK N   1      29.104  17.320   5.969  0.00  0.00     0.073 C 
BRANCH  25  26
HETATM   26  C   UNK N   1      28.290  18.578   5.856  0.00  0.00    -0.056 A 
HETATM   27  C   UNK N   1      27.903  19.083   4.606  0.00  0.00     0.007 A 
HETATM   28  C   UNK N   1      27.198  20.285   4.520  0.00  0.00     0.001 A 
HETATM   29  C   UNK N   1      26.871  20.984   5.685  0.00  0.00     0.000 A 
HETATM   30  C   UNK N   1      27.249  20.479   6.933  0.00  0.00     0.001 A 
HETATM   31  C   UNK N   1      27.963  19.281   7.017  0.00  0.00     0.007 A 
ENDBRANCH  25  26
ENDBRANCH   1  25
BRANCH   1  32
HETATM   32  C   UNK N   1      30.269  16.829   3.855  0.00  0.00     0.240 C 
HETATM   33  O   UNK N   1      30.451  16.288   2.770  0.00  0.00    -0.271 OA
HETATM   34  N   UNK N   1      31.208  17.665   4.365  0.00  0.00    -0.359 N 
HETATM   35  H   UNK N   1      30.984  18.222   5.146  0.00  0.00     0.162 HD
BRANCH  34  36
HETATM   36  C   UNK N   1      32.528  17.757   3.789  0.00  0.00     0.127 C 
BRANCH  36  37
HETATM   37  C   UNK N   1      33.506  17.227   4.833  0.00  0.00     0.007 C 
HETATM   38  C   UNK N   1      33.060  17.459   6.268  0.00  0.00     0.036 C 
HETATM   39  C   UNK N   1      34.154  16.920   7.194  0.00  0.00     0.273 C 
HETATM   40  N   UNK N   1      34.345  15.491   6.939  0.00  0.00     0.088 N 
HETATM   41  C   UNK N   1      34.867  15.298   5.591  0.00  0.00     0.273 C 
HETATM   42  C   UNK N   1      33.817  15.749   4.588  0.00  0.00     0.036 C 
BRANCH  40  43
HETATM   43  C   UNK N   1      35.322  14.964   7.877  0.00  0.00     0.277 C 
BRANCH  43  44
HETATM   44  C   UNK N   1      34.975  15.320   9.332  0.00  0.00     0.018 C 
HETATM   45  C   UNK N   1      36.196  15.474  10.262  0.00  0.00     0.032 C 
HETATM   46  C   UNK N   1      36.691  14.112  10.791  0.00  0.00     0.168 C 
HETATM   47  O   UNK N   1      36.036  13.037  10.160  0.00  0.00    -0.391 OA
HETATM   48  C   UNK N   1      34.690  13.109  10.560  0.00  0.00     0.168 C 
HETATM   49  C   UNK N   1      33.980  14.304   9.902  0.00  0.00     0.032 C 
ENDBRANCH  43  44
ENDBRANCH  40  43
ENDBRANCH  36  37
ENDBRANCH  34  36
ENDBRANCH   1  32
TORSDOF 11
ENDMDL
MODEL 7
REMARK VINA RESULT:      -8.4      2.707     10.763
REMARK  11 active torsions:
REMARK  status: ('A' for Active; 'I' for Inactive)
REMARK    1  A    between atoms: C_7  and  C_11 
REMARK       I    between atoms: C_11  and  N_13 
REMARK    2  A    between atoms: N_13  and  C_14 
REMARK    3  A    between atoms: C_14  and  C_19 
REMARK       I    between atoms: C_19  and  N_21 
REMARK    4  A    between atoms: C_22  and  N_21 
REMARK    5  A    between atoms: C_22  and  C_23 
REMARK    6  A    between atoms: C_22  and  C_30 
REMARK    7  A    between atoms: C_23  and  C_24 
REMARK       I    between atoms: C_30  and  N_32 
REMARK    8  A    between atoms: N_32  and  C_33 
REMARK    9  A    between atoms: C_33  and  C_34 
REMARK   10  A    between atoms: N_37  and  C_40 
REMARK   11  A    between atoms: C_40  and  C_41 
ROOT
HETATM    1  C   UNK N   1      32.654  16.338   8.209  0.00  0.00     0.180 C 
ENDROOT
BRANCH   1   2
HETATM    2  N   UNK N   1      32.946  15.108   7.496  0.00  0.00    -0.345 N 
HETATM    3  C   UNK N   1      32.806  14.892   6.161  0.00  0.00     0.246 C 
HETATM    4  O   UNK N   1      33.141  13.804   5.720  0.00  0.00    -0.271 OA
HETATM    5  H   UNK N   1      33.280  14.353   8.033  0.00  0.00     0.163 HD
BRANCH   3   6
HETATM    6  C   UNK N   1      32.240  15.937   5.209  0.00  0.00     0.114 C 
HETATM    7  C   UNK N   1      32.356  15.447   3.782  0.00  0.00     0.041 C 
HETATM    8  C   UNK N   1      32.467  16.702   2.934  0.00  0.00     0.003 C 
HETATM    9  C   UNK N   1      33.037  17.786   3.833  0.00  0.00     0.003 C 
HETATM   10  C   UNK N   1      33.113  17.191   5.224  0.00  0.00     0.041 C 
BRANCH   6  11
HETATM   11  N   UNK N   1      30.841  16.171   5.543  0.00  0.00    -0.338 N 
HETATM   12  C   UNK N   1      29.801  15.305   5.600  0.00  0.00     0.259 C 
HETATM   13  O   UNK N   1      29.971  14.096   5.507  0.00  0.00    -0.267 OA
HETATM   14  H   UNK N   1      30.616  17.105   5.762  0.00  0.00     0.164 HD
BRANCH  12  15
HETATM   15  C   UNK N   1      28.439  15.850   5.636  0.00  0.00     0.074 A 
HETATM   16  C   UNK N   1      28.096  17.194   5.394  0.00  0.00     0.037 A 
HETATM   17  C   UNK N   1      26.692  17.371   5.281  0.00  0.00    -0.018 A 
HETATM   18  C   UNK N   1      26.043  18.571   4.996  0.00  0.00     0.013 A 
HETATM   19  C   UNK N   1      25.960  16.196   5.429  0.00  0.00     0.016 A 
HETATM   20  C   UNK N   1      24.644  18.560   4.849  0.00  0.00     0.007 A 
HETATM   21  C   UNK N   1      23.917  17.359   4.989  0.00  0.00    -0.061 A 
HETATM   22  C   UNK N   1      22.444  17.361   4.797  0.00  0.00     0.048 C 
HETATM   23  C   UNK N   1      24.579  16.157   5.287  0.00  0.00     0.026 A 
HETATM   24  S   UNK N   1      27.028  14.970   5.710  0.00  0.00    -0.084 SA
ENDBRANCH  12  15
ENDBRANCH   6  11
ENDBRANCH   3   6
ENDBRANCH   1   2
BRANCH   1  25
HETATM   25  C   UNK N   1      31.543  16.083   9.237  0.00  0.00     0.073 C 
BRANCH  25  26
HETATM   26  C   UNK N   1      30.366  17.004   9.083  0.00  0.00    -0.056 A 
HETATM   27  C   UNK N   1      29.111  16.677   9.616  0.00  0.00     0.007 A 
HETATM   28  C   UNK N   1      28.017  17.520   9.409  0.00  0.00     0.001 A 
HETATM   29  C   UNK N   1      28.176  18.697   8.674  0.00  0.00     0.000 A 
HETATM   30  C   UNK N   1      29.428  19.030   8.148  0.00  0.00     0.001 A 
HETATM   31  C   UNK N   1      30.520  18.181   8.347  0.00  0.00     0.007 A 
ENDBRANCH  25  26
ENDBRANCH   1  25
BRANCH   1  32
HETATM   32  C   UNK N   1      33.877  16.819   8.951  0.00  0.00     0.240 C 
HETATM   33  O   UNK N   1      34.687  17.552   8.397  0.00  0.00    -0.271 OA
HETATM   34  N   UNK N   1      34.136  16.328  10.189  0.00  0.00    -0.359 N 
HETATM   35  H   UNK N   1      33.416  15.883  10.691  0.00  0.00     0.162 HD
BRANCH  34  36
HETATM   36  C   UNK N   1      35.446  16.441  10.784  0.00  0.00     0.127 C 
BRANCH  36  37
HETATM   37  C   UNK N   1      35.753  15.099  11.441  0.00  0.00     0.007 C 
HETATM   38  C   UNK N   1      36.101  15.202  12.918  0.00  0.00     0.036 C 
HETATM   39  C   UNK N   1      36.428  13.793  13.423  0.00  0.00     0.273 C 
HETATM   40  N   UNK N   1      35.265  12.926  13.227  0.00  0.00     0.088 N 
HETATM   41  C   UNK N   1      35.010  12.762  11.801  0.00  0.00     0.273 C 
HETATM   42  C   UNK N   1      34.612  14.106  11.214  0.00  0.00     0.036 C 
BRANCH  40  43
HETATM   43  C   UNK N   1      35.546  11.614  13.785  0.00  0.00     0.277 C 
BRANCH  43  44
HETATM   44  C   UNK N   1      36.393  11.702  15.066  0.00  0.00     0.018 C 
HETATM   45  C   UNK N   1      37.386  10.537  15.258  0.00  0.00     0.032 C 
HETATM   46  C   UNK N   1      36.707   9.300  15.881  0.00  0.00     0.168 C 
HETATM   47  O   UNK N   1      35.309   9.454  15.955  0.00  0.00    -0.391 OA
HETATM   48  C   UNK N   1      35.077  10.490  16.876  0.00  0.00     0.168 C 
HETATM   49  C   UNK N   1      35.485  11.852  16.290  0.00  0.00     0.032 C 
ENDBRANCH  43  44
ENDBRANCH  40  43
ENDBRANCH  36  37
ENDBRANCH  34  36
ENDBRANCH   1  32
TORSDOF 11
ENDMDL
MODEL 8
REMARK VINA RESULT:      -8.4     15.027     19.499
REMARK  11 active torsions:
REMARK  status: ('A' for Active; 'I' for Inactive)
REMARK    1  A    between atoms: C_7  and  C_11 
REMARK       I    between atoms: C_11  and  N_13 
REMARK    2  A    between atoms: N_13  and  C_14 
REMARK    3  A    between atoms: C_14  and  C_19 
REMARK       I    between atoms: C_19  and  N_21 
REMARK    4  A    between atoms: C_22  and  N_21 
REMARK    5  A    between atoms: C_22  and  C_23 
REMARK    6  A    between atoms: C_22  and  C_30 
REMARK    7  A    between atoms: C_23  and  C_24 
REMARK       I    between atoms: C_30  and  N_32 
REMARK    8  A    between atoms: N_32  and  C_33 
REMARK    9  A    between atoms: C_33  and  C_34 
REMARK   10  A    between atoms: N_37  and  C_40 
REMARK   11  A    between atoms: C_40  and  C_41 
ROOT
HETATM    1  C   UNK N   1      25.991  25.194  -6.128  0.00  0.00     0.180 C 
ENDROOT
BRANCH   1   2
HETATM    2  N   UNK N   1      25.188  24.229  -6.857  0.00  0.00    -0.345 N 
HETATM    3  C   UNK N   1      25.535  23.590  -8.005  0.00  0.00     0.246 C 
HETATM    4  O   UNK N   1      24.753  22.772  -8.464  0.00  0.00    -0.271 OA
HETATM    5  H   UNK N   1      24.303  24.015  -6.482  0.00  0.00     0.163 HD
BRANCH   3   6
HETATM    6  C   UNK N   1      26.840  23.863  -8.742  0.00  0.00     0.114 C 
HETATM    7  C   UNK N   1      27.558  25.029  -8.100  0.00  0.00     0.041 C 
HETATM    8  C   UNK N   1      28.371  25.665  -9.215  0.00  0.00     0.003 C 
HETATM    9  C   UNK N   1      27.672  25.314 -10.518  0.00  0.00     0.003 C 
HETATM   10  C   UNK N   1      26.550  24.362 -10.158  0.00  0.00     0.041 C 
BRANCH   6  11
HETATM   11  N   UNK N   1      27.674  22.669  -8.683  0.00  0.00    -0.338 N 
HETATM   12  C   UNK N   1      28.204  22.028  -7.614  0.00  0.00     0.259 C 
HETATM   13  O   UNK N   1      27.889  22.329  -6.469  0.00  0.00    -0.267 OA
HETATM   14  H   UNK N   1      27.887  22.267  -9.556  0.00  0.00     0.164 HD
BRANCH  12  15
HETATM   15  C   UNK N   1      29.274  21.052  -7.845  0.00  0.00     0.074 A 
HETATM   16  C   UNK N   1      29.080  19.690  -8.145  0.00  0.00     0.037 A 
HETATM   17  C   UNK N   1      30.288  19.054  -8.531  0.00  0.00    -0.018 A 
HETATM   18  C   UNK N   1      30.417  17.726  -8.935  0.00  0.00     0.013 A 
HETATM   19  C   UNK N   1      31.395  19.898  -8.535  0.00  0.00     0.016 A 
HETATM   20  C   UNK N   1      31.679  17.270  -9.355  0.00  0.00     0.007 A 
HETATM   21  C   UNK N   1      32.789  18.140  -9.366  0.00  0.00    -0.061 A 
HETATM   22  C   UNK N   1      34.107  17.650  -9.844  0.00  0.00     0.048 C 
HETATM   23  C   UNK N   1      32.653  19.474  -8.947  0.00  0.00     0.026 A 
HETATM   24  S   UNK N   1      30.890  21.393  -8.054  0.00  0.00    -0.084 SA
ENDBRANCH  12  15
ENDBRANCH   6  11
ENDBRANCH   3   6
ENDBRANCH   1   2
BRANCH   1  25
HETATM   25  C   UNK N   1      25.160  26.461  -5.871  0.00  0.00     0.073 C 
BRANCH  25  26
HETATM   26  C   UNK N   1      25.994  27.650  -5.486  0.00  0.00    -0.056 A 
HETATM   27  C   UNK N   1      27.032  28.108  -6.309  0.00  0.00     0.007 A 
HETATM   28  C   UNK N   1      27.833  29.177  -5.903  0.00  0.00     0.001 A 
HETATM   29  C   UNK N   1      27.594  29.798  -4.675  0.00  0.00     0.000 A 
HETATM   30  C   UNK N   1      26.554  29.348  -3.855  0.00  0.00     0.001 A 
HETATM   31  C   UNK N   1      25.759  28.272  -4.258  0.00  0.00     0.007 A 
ENDBRANCH  25  26
ENDBRANCH   1  25
BRANCH   1  32
HETATM   32  C   UNK N   1      26.407  24.629  -4.792  0.00  0.00     0.240 C 
HETATM   33  O   UNK N   1      25.567  24.396  -3.931  0.00  0.00    -0.271 OA
HETATM   34  N   UNK N   1      27.728  24.504  -4.507  0.00  0.00    -0.359 N 
HETATM   35  H   UNK N   1      28.383  24.527  -5.242  0.00  0.00     0.162 HD
BRANCH  34  36
HETATM   36  C   UNK N   1      28.193  24.340  -3.151  0.00  0.00     0.127 C 
BRANCH  36  37
HETATM   37  C   UNK N   1      29.637  23.857  -3.233  0.00  0.00     0.007 C 
HETATM   38  C   UNK N   1      29.813  22.383  -2.900  0.00  0.00     0.036 C 
HETATM   39  C   UNK N   1      31.307  22.058  -2.979  0.00  0.00     0.273 C 
HETATM   40  N   UNK N   1      31.796  22.342  -4.329  0.00  0.00     0.088 N 
HETATM   41  C   UNK N   1      31.711  23.774  -4.590  0.00  0.00     0.273 C 
HETATM   42  C   UNK N   1      30.248  24.187  -4.596  0.00  0.00     0.036 C 
BRANCH  40  43
HETATM   43  C   UNK N   1      33.192  21.952  -4.425  0.00  0.00     0.277 C 
BRANCH  43  44
HETATM   44  C   UNK N   1      33.430  20.934  -5.552  0.00  0.00     0.018 C 
HETATM   45  C   UNK N   1      33.163  19.467  -5.157  0.00  0.00     0.032 C 
HETATM   46  C   UNK N   1      34.372  18.837  -4.434  0.00  0.00     0.168 C 
HETATM   47  O   UNK N   1      35.360  19.796  -4.138  0.00  0.00    -0.391 OA
HETATM   48  C   UNK N   1      35.870  20.229  -5.374  0.00  0.00     0.168 C 
HETATM   49  C   UNK N   1      34.843  21.097  -6.122  0.00  0.00     0.032 C 
ENDBRANCH  43  44
ENDBRANCH  40  43
ENDBRANCH  36  37
ENDBRANCH  34  36
ENDBRANCH   1  32
TORSDOF 11
ENDMDL
MODEL 9
REMARK VINA RESULT:      -8.4      2.607      5.091
REMARK  11 active torsions:
REMARK  status: ('A' for Active; 'I' for Inactive)
REMARK    1  A    between atoms: C_7  and  C_11 
REMARK       I    between atoms: C_11  and  N_13 
REMARK    2  A    between atoms: N_13  and  C_14 
REMARK    3  A    between atoms: C_14  and  C_19 
REMARK       I    between atoms: C_19  and  N_21 
REMARK    4  A    between atoms: C_22  and  N_21 
REMARK    5  A    between atoms: C_22  and  C_23 
REMARK    6  A    between atoms: C_22  and  C_30 
REMARK    7  A    between atoms: C_23  and  C_24 
REMARK       I    between atoms: C_30  and  N_32 
REMARK    8  A    between atoms: N_32  and  C_33 
REMARK    9  A    between atoms: C_33  and  C_34 
REMARK   10  A    between atoms: N_37  and  C_40 
REMARK   11  A    between atoms: C_40  and  C_41 
ROOT
HETATM    1  C   UNK N   1      35.485  13.688   8.068  0.00  0.00     0.180 C 
ENDROOT
BRANCH   1   2
HETATM    2  N   UNK N   1      34.553  12.810   8.752  0.00  0.00    -0.345 N 
HETATM    3  C   UNK N   1      34.775  12.141   9.914  0.00  0.00     0.246 C 
HETATM    4  O   UNK N   1      33.860  11.476  10.374  0.00  0.00    -0.271 OA
HETATM    5  H   UNK N   1      33.671  12.688   8.333  0.00  0.00     0.163 HD
BRANCH   3   6
HETATM    6  C   UNK N   1      36.109  12.174  10.646  0.00  0.00     0.114 C 
HETATM    7  C   UNK N   1      36.808  13.489  10.380  0.00  0.00     0.041 C 
HETATM    8  C   UNK N   1      38.292  13.186  10.496  0.00  0.00     0.003 C 
HETATM    9  C   UNK N   1      38.460  11.707  10.194  0.00  0.00     0.003 C 
HETATM   10  C   UNK N   1      37.063  11.139  10.049  0.00  0.00     0.041 C 
BRANCH   6  11
HETATM   11  N   UNK N   1      35.868  12.018  12.075  0.00  0.00    -0.338 N 
HETATM   12  C   UNK N   1      35.385  12.903  12.980  0.00  0.00     0.259 C 
HETATM   13  O   UNK N   1      34.925  13.983  12.633  0.00  0.00    -0.267 OA
HETATM   14  H   UNK N   1      36.090  11.131  12.440  0.00  0.00     0.164 HD
BRANCH  12  15
HETATM   15  C   UNK N   1      35.552  12.605  14.406  0.00  0.00     0.074 A 
HETATM   16  C   UNK N   1      35.459  13.546  15.449  0.00  0.00     0.037 A 
HETATM   17  C   UNK N   1      35.444  12.925  16.725  0.00  0.00    -0.018 A 
HETATM   18  C   UNK N   1      35.313  13.580  17.948  0.00  0.00     0.013 A 
HETATM   19  C   UNK N   1      35.521  11.536  16.679  0.00  0.00     0.016 A 
HETATM   20  C   UNK N   1      35.245  12.807  19.121  0.00  0.00     0.007 A 
HETATM   21  C   UNK N   1      35.312  11.399  19.058  0.00  0.00    -0.061 A 
HETATM   22  C   UNK N   1      35.206  10.598  20.304  0.00  0.00     0.048 C 
HETATM   23  C   UNK N   1      35.456  10.748  17.822  0.00  0.00     0.026 A 
HETATM   24  S   UNK N   1      35.622  11.090  15.093  0.00  0.00    -0.084 SA
ENDBRANCH  12  15
ENDBRANCH   6  11
ENDBRANCH   3   6
ENDBRANCH   1   2
BRANCH   1  25
HETATM   25  C   UNK N   1      35.942  13.028   6.758  0.00  0.00     0.073 C 
BRANCH  25  26
HETATM   26  C   UNK N   1      37.420  12.759   6.712  0.00  0.00    -0.056 A 
HETATM   27  C   UNK N   1      37.917  11.464   6.505  0.00  0.00     0.007 A 
HETATM   28  C   UNK N   1      39.293  11.227   6.526  0.00  0.00     0.001 A 
HETATM   29  C   UNK N   1      40.178  12.285   6.748  0.00  0.00     0.000 A 
HETATM   30  C   UNK N   1      39.685  13.579   6.946  0.00  0.00     0.001 A 
HETATM   31  C   UNK N   1      38.307  13.813   6.935  0.00  0.00     0.007 A 
ENDBRANCH  25  26
ENDBRANCH   1  25
BRANCH   1  32
HETATM   32  C   UNK N   1      34.819  14.997   7.724  0.00  0.00     0.240 C 
HETATM   33  O   UNK N   1      35.246  15.684   6.804  0.00  0.00    -0.271 OA
HETATM   34  N   UNK N   1      33.828  15.466   8.523  0.00  0.00    -0.359 N 
HETATM   35  H   UNK N   1      33.378  14.849   9.145  0.00  0.00     0.162 HD
BRANCH  34  36
HETATM   36  C   UNK N   1      33.419  16.850   8.482  0.00  0.00     0.127 C 
BRANCH  36  37
HETATM   37  C   UNK N   1      31.967  16.870   8.016  0.00  0.00     0.007 C 
HETATM   38  C   UNK N   1      31.121  17.942   8.685  0.00  0.00     0.036 C 
HETATM   39  C   UNK N   1      29.690  17.810   8.156  0.00  0.00     0.273 C 
HETATM   40  N   UNK N   1      29.691  17.988   6.703  0.00  0.00     0.088 N 
HETATM   41  C   UNK N   1      30.424  16.895   6.075  0.00  0.00     0.273 C 
HETATM   42  C   UNK N   1      31.884  16.978   6.492  0.00  0.00     0.036 C 
BRANCH  40  43
HETATM   43  C   UNK N   1      28.323  17.948   6.214  0.00  0.00     0.277 C 
BRANCH  43  44
HETATM   44  C   UNK N   1      28.159  18.723   4.896  0.00  0.00     0.018 C 
HETATM   45  C   UNK N   1      27.317  20.010   5.010  0.00  0.00     0.032 C 
HETATM   46  C   UNK N   1      25.804  19.716   4.939  0.00  0.00     0.168 C 
HETATM   47  O   UNK N   1      25.540  18.333   4.975  0.00  0.00    -0.391 OA
HETATM   48  C   UNK N   1      26.063  17.802   3.783  0.00  0.00     0.168 C 
HETATM   49  C   UNK N   1      27.601  17.802   3.807  0.00  0.00     0.032 C 
ENDBRANCH  43  44
ENDBRANCH  40  43
ENDBRANCH  36  37
ENDBRANCH  34  36
ENDBRANCH   1  32
TORSDOF 11
ENDMDL
