MODEL 1
REMARK VINA RESULT:      -7.4      0.000      0.000
REMARK  8 active torsions:
REMARK  status: ('A' for Active; 'I' for Inactive)
REMARK    1  A    between atoms: C_18  and  C_11 
REMARK    2  A    between atoms: O_29  and  C_11 
REMARK    3  A    between atoms: N_25  and  C_14 
REMARK    4  A    between atoms: O_29  and  C_15 
REMARK    5  A    between atoms: C_19  and  C_16 
REMARK    6  A    between atoms: C_18  and  C_17 
REMARK    7  A    between atoms: O_27  and  C_17 
REMARK    8  A    between atoms: C_18  and  O_28 
ROOT
HETATM    1  C   UNK N   1      25.536  28.243  -4.477  0.00  0.00     0.025 C 
HETATM    2  C   UNK N   1      27.296  28.412  -6.147  0.00  0.00     0.025 C 
HETATM    3  C   UNK N   1      25.006  27.161  -5.147  0.00  0.00     0.038 C 
HETATM    4  C   UNK N   1      26.783  27.318  -6.801  0.00  0.00     0.038 C 
HETATM    5  C   UNK N   1      27.345  29.817  -4.170  0.00  0.00     0.099 C 
HETATM    6  C   UNK N   1      26.714  28.827  -4.955  0.00  0.00     0.044 C 
HETATM    7  C   UNK N   1      25.692  26.657  -6.272  0.00  0.00     0.069 C 
HETATM    8  N   UNK N   1      27.773  30.612  -3.453  0.00  0.00    -0.191 NA
ENDROOT
BRANCH   7   9
HETATM    9  O   UNK N   1      25.366  25.489  -6.818  0.00  0.00    -0.348 OA
BRANCH   9  10
HETATM   10  C   UNK N   1      25.525  25.265  -8.143  0.00  0.00     0.221 C 
BRANCH  10  11
HETATM   11  C   UNK N   1      25.732  23.780  -8.414  0.00  0.00     0.140 C 
HETATM   12  C   UNK N   1      26.597  23.404  -9.616  0.00  0.00     0.057 C 
BRANCH  11  13
HETATM   13  C   UNK N   1      26.407  23.348  -7.190  0.00  0.00     0.153 C 
HETATM   14  N   UNK N   1      27.631  23.672  -7.046  0.00  0.00    -0.338 N 
ATOM     15  HN  UNK N   1      28.042  24.277  -7.757  1.00  0.00     0.168 HD
BRANCH  14  16
HETATM   16  C   UNK N   1      28.452  23.267  -5.995  0.00  0.00     0.034 A 
HETATM   17  C   UNK N   1      28.463  23.918  -4.752  0.00  0.00     0.031 A 
HETATM   18  C   UNK N   1      29.365  23.505  -3.782  0.00  0.00     0.026 A 
HETATM   19  C   UNK N   1      30.229  22.426  -4.040  0.00  0.00     0.059 A 
HETATM   20  C   UNK N   1      31.185  22.090  -3.026  0.00  0.00     0.100 C 
HETATM   21  C   UNK N   1      30.136  21.704  -5.276  0.00  0.00     0.070 A 
HETATM   22  N   UNK N   1      31.966  21.799  -2.224  0.00  0.00    -0.191 NA
HETATM   23  C   UNK N   1      29.260  22.173  -6.237  0.00  0.00     0.047 A 
BRANCH  21  24
HETATM   24  C   UNK N   1      30.949  20.470  -5.650  0.00  0.00     0.419 C 
HETATM   25  F   UNK N   1      31.180  19.637  -4.563  0.00  0.00    -0.166 F 
HETATM   26  F   UNK N   1      32.150  20.899  -6.164  0.00  0.00    -0.166 F 
HETATM   27  F   UNK N   1      30.291  19.719  -6.632  0.00  0.00    -0.166 F 
ENDBRANCH  21  24
ENDBRANCH  14  16
BRANCH  13  28
HETATM   28  O   UNK N   1      25.787  22.502  -6.330  0.00  0.00    -0.347 OA
HETATM   29  H   UNK N   1      25.937  21.591  -6.169  0.00  0.00     0.219 HD
ENDBRANCH  13  28
ENDBRANCH  11  13
BRANCH  11  30
HETATM   30  O   UNK N   1      24.482  23.161  -8.554  0.00  0.00    -0.380 OA
HETATM   31  H   UNK N   1      23.593  23.546  -8.534  0.00  0.00     0.211 HD
ENDBRANCH  11  30
ENDBRANCH  10  11
ENDBRANCH   9  10
ENDBRANCH   7   9
TORSDOF 8
ENDMDL
MODEL 2
REMARK VINA RESULT:      -7.3      1.951      2.583
REMARK  8 active torsions:
REMARK  status: ('A' for Active; 'I' for Inactive)
REMARK    1  A    between atoms: C_18  and  C_11 
REMARK    2  A    between atoms: O_29  and  C_11 
REMARK    3  A    between atoms: N_25  and  C_14 
REMARK    4  A    between atoms: O_29  and  C_15 
REMARK    5  A    between atoms: C_19  and  C_16 
REMARK    6  A    between atoms: C_18  and  C_17 
REMARK    7  A    between atoms: O_27  and  C_17 
REMARK    8  A    between atoms: C_18  and  O_28 
ROOT
HETATM    1  C   UNK N   1      26.693  26.141  -3.640  0.00  0.00     0.025 C 
HETATM    2  C   UNK N   1      25.432  27.882  -4.776  0.00  0.00     0.025 C 
HETATM    3  C   UNK N   1      26.271  25.224  -4.579  0.00  0.00     0.038 C 
HETATM    4  C   UNK N   1      25.032  26.974  -5.727  0.00  0.00     0.038 C 
HETATM    5  C   UNK N   1      26.889  28.440  -2.919  0.00  0.00     0.099 C 
HETATM    6  C   UNK N   1      26.312  27.480  -3.780  0.00  0.00     0.044 C 
HETATM    7  C   UNK N   1      25.500  25.676  -5.670  0.00  0.00     0.069 C 
HETATM    8  N   UNK N   1      27.417  29.136  -2.167  0.00  0.00    -0.191 NA
ENDROOT
BRANCH   7   9
HETATM    9  O   UNK N   1      25.260  24.897  -6.720  0.00  0.00    -0.348 OA
BRANCH   9  10
HETATM   10  C   UNK N   1      25.614  25.277  -7.971  0.00  0.00     0.221 C 
BRANCH  10  11
HETATM   11  C   UNK N   1      25.690  24.068  -8.895  0.00  0.00     0.140 C 
HETATM   12  C   UNK N   1      25.681  24.338 -10.399  0.00  0.00     0.057 C 
BRANCH  11  13
HETATM   13  C   UNK N   1      26.983  23.492  -8.524  0.00  0.00     0.153 C 
HETATM   14  N   UNK N   1      26.997  22.634  -7.583  0.00  0.00    -0.338 N 
ATOM     15  HN  UNK N   1      26.098  22.345  -7.199  1.00  0.00     0.168 HD
BRANCH  14  16
HETATM   16  C   UNK N   1      28.143  22.057  -7.038  0.00  0.00     0.034 A 
HETATM   17  C   UNK N   1      28.797  20.968  -7.633  0.00  0.00     0.031 A 
HETATM   18  C   UNK N   1      29.886  20.400  -6.989  0.00  0.00     0.026 A 
HETATM   19  C   UNK N   1      30.341  20.937  -5.772  0.00  0.00     0.059 A 
HETATM   20  C   UNK N   1      31.427  20.265  -5.119  0.00  0.00     0.100 C 
HETATM   21  C   UNK N   1      29.728  22.114  -5.226  0.00  0.00     0.070 A 
HETATM   22  N   UNK N   1      32.301  19.742  -4.572  0.00  0.00    -0.191 NA
HETATM   23  C   UNK N   1      28.617  22.624  -5.870  0.00  0.00     0.047 A 
BRANCH  21  24
HETATM   24  C   UNK N   1      30.172  22.845  -3.965  0.00  0.00     0.419 C 
HETATM   25  F   UNK N   1      31.527  23.148  -3.976  0.00  0.00    -0.166 F 
HETATM   26  F   UNK N   1      29.890  22.037  -2.890  0.00  0.00    -0.166 F 
HETATM   27  F   UNK N   1      29.467  24.046  -3.812  0.00  0.00    -0.166 F 
ENDBRANCH  21  24
ENDBRANCH  14  16
BRANCH  13  28
HETATM   28  O   UNK N   1      28.128  23.983  -9.061  0.00  0.00    -0.347 OA
HETATM   29  H   UNK N   1      29.021  23.800  -8.843  0.00  0.00     0.219 HD
ENDBRANCH  13  28
ENDBRANCH  11  13
BRANCH  11  30
HETATM   30  O   UNK N   1      24.636  23.194  -8.594  0.00  0.00    -0.380 OA
HETATM   31  H   UNK N   1      24.418  22.747  -7.762  0.00  0.00     0.211 HD
ENDBRANCH  11  30
ENDBRANCH  10  11
ENDBRANCH   9  10
ENDBRANCH   7   9
TORSDOF 8
ENDMDL
MODEL 3
REMARK VINA RESULT:      -7.2     16.912     21.203
REMARK  8 active torsions:
REMARK  status: ('A' for Active; 'I' for Inactive)
REMARK    1  A    between atoms: C_18  and  C_11 
REMARK    2  A    between atoms: O_29  and  C_11 
REMARK    3  A    between atoms: N_25  and  C_14 
REMARK    4  A    between atoms: O_29  and  C_15 
REMARK    5  A    between atoms: C_19  and  C_16 
REMARK    6  A    between atoms: C_18  and  C_17 
REMARK    7  A    between atoms: O_27  and  C_17 
REMARK    8  A    between atoms: C_18  and  O_28 
ROOT
HETATM    1  C   UNK N   1      36.456  13.991  15.998  0.00  0.00     0.025 C 
HETATM    2  C   UNK N   1      34.579  12.457  15.804  0.00  0.00     0.025 C 
HETATM    3  C   UNK N   1      36.560  14.036  14.624  0.00  0.00     0.038 C 
HETATM    4  C   UNK N   1      34.666  12.522  14.434  0.00  0.00     0.038 C 
HETATM    5  C   UNK N   1      35.218  13.342  17.970  0.00  0.00     0.099 C 
HETATM    6  C   UNK N   1      35.426  13.242  16.577  0.00  0.00     0.044 C 
HETATM    7  C   UNK N   1      35.600  13.353  13.848  0.00  0.00     0.069 C 
HETATM    8  N   UNK N   1      35.139  13.496  19.110  0.00  0.00    -0.191 NA
ENDROOT
BRANCH   7   9
HETATM    9  O   UNK N   1      35.505  13.544  12.536  0.00  0.00    -0.348 OA
BRANCH   9  10
HETATM   10  C   UNK N   1      35.400  14.788  12.014  0.00  0.00     0.221 C 
BRANCH  10  11
HETATM   11  C   UNK N   1      36.291  14.929  10.785  0.00  0.00     0.140 C 
HETATM   12  C   UNK N   1      37.286  13.803  10.512  0.00  0.00     0.057 C 
BRANCH  11  13
HETATM   13  C   UNK N   1      35.303  14.962   9.706  0.00  0.00     0.153 C 
HETATM   14  N   UNK N   1      35.097  16.079   9.130  0.00  0.00    -0.338 N 
ATOM     15  HN  UNK N   1      35.687  16.864   9.405  1.00  0.00     0.168 HD
BRANCH  14  16
HETATM   16  C   UNK N   1      34.130  16.314   8.154  0.00  0.00     0.034 A 
HETATM   17  C   UNK N   1      34.408  16.235   6.781  0.00  0.00     0.031 A 
HETATM   18  C   UNK N   1      33.414  16.560   5.871  0.00  0.00     0.026 A 
HETATM   19  C   UNK N   1      32.137  16.930   6.328  0.00  0.00     0.059 A 
HETATM   20  C   UNK N   1      31.171  17.321   5.342  0.00  0.00     0.100 C 
HETATM   21  C   UNK N   1      31.835  16.908   7.730  0.00  0.00     0.070 A 
HETATM   22  N   UNK N   1      30.374  17.641   4.568  0.00  0.00    -0.191 NA
HETATM   23  C   UNK N   1      32.863  16.626   8.610  0.00  0.00     0.047 A 
BRANCH  21  24
HETATM   24  C   UNK N   1      30.477  17.204   8.354  0.00  0.00     0.419 C 
HETATM   25  F   UNK N   1      29.424  16.722   7.587  0.00  0.00    -0.166 F 
HETATM   26  F   UNK N   1      30.363  18.568   8.484  0.00  0.00    -0.166 F 
HETATM   27  F   UNK N   1      30.377  16.628   9.626  0.00  0.00    -0.166 F 
ENDBRANCH  21  24
ENDBRANCH  14  16
BRANCH  13  28
HETATM   28  O   UNK N   1      34.533  13.875   9.452  0.00  0.00    -0.347 OA
HETATM   29  H   UNK N   1      33.603  13.804   9.357  0.00  0.00     0.219 HD
ENDBRANCH  13  28
ENDBRANCH  11  13
BRANCH  11  30
HETATM   30  O   UNK N   1      36.998  16.137  10.868  0.00  0.00    -0.380 OA
HETATM   31  H   UNK N   1      37.897  16.352  10.574  0.00  0.00     0.211 HD
ENDBRANCH  11  30
ENDBRANCH  10  11
ENDBRANCH   9  10
ENDBRANCH   7   9
TORSDOF 8
ENDMDL
MODEL 4
REMARK VINA RESULT:      -7.2      1.985      2.472
REMARK  8 active torsions:
REMARK  status: ('A' for Active; 'I' for Inactive)
REMARK    1  A    between atoms: C_18  and  C_11 
REMARK    2  A    between atoms: O_29  and  C_11 
REMARK    3  A    between atoms: N_25  and  C_14 
REMARK    4  A    between atoms: O_29  and  C_15 
REMARK    5  A    between atoms: C_19  and  C_16 
REMARK    6  A    between atoms: C_18  and  C_17 
REMARK    7  A    between atoms: O_27  and  C_17 
REMARK    8  A    between atoms: C_18  and  O_28 
ROOT
HETATM    1  C   UNK N   1      25.828  27.806  -5.188  0.00  0.00     0.025 C 
HETATM    2  C   UNK N   1      27.417  27.790  -7.029  0.00  0.00     0.025 C 
HETATM    3  C   UNK N   1      25.150  26.753  -5.766  0.00  0.00     0.038 C 
HETATM    4  C   UNK N   1      26.757  26.724  -7.592  0.00  0.00     0.038 C 
HETATM    5  C   UNK N   1      27.775  29.236  -5.116  0.00  0.00     0.099 C 
HETATM    6  C   UNK N   1      26.993  28.281  -5.801  0.00  0.00     0.044 C 
HETATM    7  C   UNK N   1      25.677  26.167  -6.935  0.00  0.00     0.069 C 
HETATM    8  N   UNK N   1      28.334  30.013  -4.472  0.00  0.00    -0.191 NA
ENDROOT
BRANCH   7   9
HETATM    9  O   UNK N   1      25.208  25.015  -7.406  0.00  0.00    -0.348 OA
BRANCH   9  10
HETATM   10  C   UNK N   1      25.521  24.587  -8.651  0.00  0.00     0.221 C 
BRANCH  10  11
HETATM   11  C   UNK N   1      25.639  23.068  -8.680  0.00  0.00     0.140 C 
HETATM   12  C   UNK N   1      26.331  22.445  -9.892  0.00  0.00     0.057 C 
BRANCH  11  13
HETATM   13  C   UNK N   1      26.448  22.812  -7.488  0.00  0.00     0.153 C 
HETATM   14  N   UNK N   1      27.706  22.985  -7.581  0.00  0.00    -0.338 N 
ATOM     15  HN  UNK N   1      28.063  23.364  -8.459  1.00  0.00     0.168 HD
BRANCH  14  16
HETATM   16  C   UNK N   1      28.634  22.698  -6.582  0.00  0.00     0.034 A 
HETATM   17  C   UNK N   1      29.371  21.505  -6.556  0.00  0.00     0.031 A 
HETATM   18  C   UNK N   1      30.218  21.257  -5.485  0.00  0.00     0.026 A 
HETATM   19  C   UNK N   1      30.354  22.212  -4.462  0.00  0.00     0.059 A 
HETATM   20  C   UNK N   1      31.190  21.870  -3.349  0.00  0.00     0.100 C 
HETATM   21  C   UNK N   1      29.674  23.472  -4.552  0.00  0.00     0.070 A 
HETATM   22  N   UNK N   1      31.859  21.619  -2.439  0.00  0.00    -0.191 NA
HETATM   23  C   UNK N   1      28.803  23.664  -5.608  0.00  0.00     0.047 A 
BRANCH  21  24
HETATM   24  C   UNK N   1      29.797  24.623  -3.562  0.00  0.00     0.419 C 
HETATM   25  F   UNK N   1      31.107  25.063  -3.419  0.00  0.00    -0.166 F 
HETATM   26  F   UNK N   1      29.325  24.184  -2.348  0.00  0.00    -0.166 F 
HETATM   27  F   UNK N   1      29.021  25.715  -3.970  0.00  0.00    -0.166 F 
ENDBRANCH  21  24
ENDBRANCH  14  16
BRANCH  13  28
HETATM   28  O   UNK N   1      25.883  22.260  -6.386  0.00  0.00    -0.347 OA
HETATM   29  H   UNK N   1      26.236  22.136  -5.526  0.00  0.00     0.219 HD
ENDBRANCH  13  28
ENDBRANCH  11  13
BRANCH  11  30
HETATM   30  O   UNK N   1      24.360  22.507  -8.562  0.00  0.00    -0.380 OA
HETATM   31  H   UNK N   1      23.870  21.943  -9.179  0.00  0.00     0.211 HD
ENDBRANCH  11  30
ENDBRANCH  10  11
ENDBRANCH   9  10
ENDBRANCH   7   9
TORSDOF 8
ENDMDL
MODEL 5
REMARK VINA RESULT:      -7.0      2.210      4.706
REMARK  8 active torsions:
REMARK  status: ('A' for Active; 'I' for Inactive)
REMARK    1  A    between atoms: C_18  and  C_11 
REMARK    2  A    between atoms: O_29  and  C_11 
REMARK    3  A    between atoms: N_25  and  C_14 
REMARK    4  A    between atoms: O_29  and  C_15 
REMARK    5  A    between atoms: C_19  and  C_16 
REMARK    6  A    between atoms: C_18  and  C_17 
REMARK    7  A    between atoms: O_27  and  C_17 
REMARK    8  A    between atoms: C_18  and  O_28 
ROOT
HETATM    1  C   UNK N   1      29.104  22.841  -2.195  0.00  0.00     0.025 C 
HETATM    2  C   UNK N   1      30.368  24.363  -3.607  0.00  0.00     0.025 C 
HETATM    3  C   UNK N   1      27.949  23.540  -2.477  0.00  0.00     0.038 C 
HETATM    4  C   UNK N   1      29.214  25.045  -3.909  0.00  0.00     0.038 C 
HETATM    5  C   UNK N   1      31.436  22.405  -2.655  0.00  0.00     0.099 C 
HETATM    6  C   UNK N   1      30.299  23.228  -2.810  0.00  0.00     0.044 C 
HETATM    7  C   UNK N   1      28.008  24.600  -3.406  0.00  0.00     0.069 C 
HETATM    8  N   UNK N   1      32.298  21.664  -2.462  0.00  0.00    -0.191 NA
ENDROOT
BRANCH   7   9
HETATM    9  O   UNK N   1      26.903  25.157  -3.893  0.00  0.00    -0.348 OA
BRANCH   9  10
HETATM   10  C   UNK N   1      26.962  26.099  -4.864  0.00  0.00     0.221 C 
BRANCH  10  11
HETATM   11  C   UNK N   1      26.065  25.717  -6.035  0.00  0.00     0.140 C 
HETATM   12  C   UNK N   1      26.275  26.467  -7.349  0.00  0.00     0.057 C 
BRANCH  11  13
HETATM   13  C   UNK N   1      26.417  24.310  -6.230  0.00  0.00     0.153 C 
HETATM   14  N   UNK N   1      27.526  24.054  -6.801  0.00  0.00    -0.338 N 
ATOM     15  HN  UNK N   1      28.134  24.844  -7.018  1.00  0.00     0.168 HD
BRANCH  14  16
HETATM   16  C   UNK N   1      27.976  22.783  -7.153  0.00  0.00     0.034 A 
HETATM   17  C   UNK N   1      27.306  21.977  -8.085  0.00  0.00     0.031 A 
HETATM   18  C   UNK N   1      27.771  20.692  -8.325  0.00  0.00     0.026 A 
HETATM   19  C   UNK N   1      28.919  20.226  -7.661  0.00  0.00     0.059 A 
HETATM   20  C   UNK N   1      29.312  18.867  -7.897  0.00  0.00     0.100 C 
HETATM   21  C   UNK N   1      29.654  21.095  -6.788  0.00  0.00     0.070 A 
HETATM   22  N   UNK N   1      29.649  17.774  -8.070  0.00  0.00    -0.191 NA
HETATM   23  C   UNK N   1      29.135  22.351  -6.537  0.00  0.00     0.047 A 
BRANCH  21  24
HETATM   24  C   UNK N   1      30.955  20.748  -6.073  0.00  0.00     0.419 C 
HETATM   25  F   UNK N   1      31.762  19.901  -6.821  0.00  0.00    -0.166 F 
HETATM   26  F   UNK N   1      30.630  20.141  -4.883  0.00  0.00    -0.166 F 
HETATM   27  F   UNK N   1      31.693  21.905  -5.793  0.00  0.00    -0.166 F 
ENDBRANCH  21  24
ENDBRANCH  14  16
BRANCH  13  28
HETATM   28  O   UNK N   1      25.515  23.336  -5.954  0.00  0.00    -0.347 OA
HETATM   29  H   UNK N   1      24.579  23.371  -5.927  0.00  0.00     0.219 HD
ENDBRANCH  13  28
ENDBRANCH  11  13
BRANCH  11  30
HETATM   30  O   UNK N   1      24.724  25.860  -5.650  0.00  0.00    -0.380 OA
HETATM   31  H   UNK N   1      24.336  25.929  -4.765  0.00  0.00     0.211 HD
ENDBRANCH  11  30
ENDBRANCH  10  11
ENDBRANCH   9  10
ENDBRANCH   7   9
TORSDOF 8
ENDMDL
MODEL 6
REMARK VINA RESULT:      -7.0     18.652     22.233
REMARK  8 active torsions:
REMARK  status: ('A' for Active; 'I' for Inactive)
REMARK    1  A    between atoms: C_18  and  C_11 
REMARK    2  A    between atoms: O_29  and  C_11 
REMARK    3  A    between atoms: N_25  and  C_14 
REMARK    4  A    between atoms: O_29  and  C_15 
REMARK    5  A    between atoms: C_19  and  C_16 
REMARK    6  A    between atoms: C_18  and  C_17 
REMARK    7  A    between atoms: O_27  and  C_17 
REMARK    8  A    between atoms: C_18  and  O_28 
ROOT
HETATM    1  C   UNK N   1      31.788  15.276   6.757  0.00  0.00     0.025 C 
HETATM    2  C   UNK N   1      32.167  17.487   7.697  0.00  0.00     0.025 C 
HETATM    3  C   UNK N   1      32.613  14.728   7.717  0.00  0.00     0.038 C 
HETATM    4  C   UNK N   1      32.969  16.938   8.670  0.00  0.00     0.038 C 
HETATM    5  C   UNK N   1      30.549  17.174   5.918  0.00  0.00     0.099 C 
HETATM    6  C   UNK N   1      31.528  16.650   6.791  0.00  0.00     0.044 C 
HETATM    7  C   UNK N   1      33.136  15.568   8.722  0.00  0.00     0.069 C 
HETATM    8  N   UNK N   1      29.736  17.493   5.165  0.00  0.00    -0.191 NA
ENDROOT
BRANCH   7   9
HETATM    9  O   UNK N   1      33.740  15.071   9.797  0.00  0.00    -0.348 OA
BRANCH   9  10
HETATM   10  C   UNK N   1      35.004  14.589   9.732  0.00  0.00     0.221 C 
BRANCH  10  11
HETATM   11  C   UNK N   1      35.877  15.232  10.801  0.00  0.00     0.140 C 
HETATM   12  C   UNK N   1      35.530  16.660  11.220  0.00  0.00     0.057 C 
BRANCH  11  13
HETATM   13  C   UNK N   1      35.659  14.338  11.939  0.00  0.00     0.153 C 
HETATM   14  N   UNK N   1      36.663  14.062  12.672  0.00  0.00    -0.338 N 
ATOM     15  HN  UNK N   1      37.540  14.540  12.465  1.00  0.00     0.168 HD
BRANCH  14  16
HETATM   16  C   UNK N   1      36.659  13.158  13.734  0.00  0.00     0.034 A 
HETATM   17  C   UNK N   1      37.216  11.874  13.634  0.00  0.00     0.031 A 
HETATM   18  C   UNK N   1      37.104  11.005  14.708  0.00  0.00     0.026 A 
HETATM   19  C   UNK N   1      36.468  11.426  15.889  0.00  0.00     0.059 A 
HETATM   20  C   UNK N   1      36.322  10.461  16.940  0.00  0.00     0.100 C 
HETATM   21  C   UNK N   1      35.995  12.774  16.016  0.00  0.00     0.070 A 
HETATM   22  N   UNK N   1      36.192   9.701  17.803  0.00  0.00    -0.191 NA
HETATM   23  C   UNK N   1      36.081  13.598  14.909  0.00  0.00     0.047 A 
BRANCH  21  24
HETATM   24  C   UNK N   1      35.366  13.384  17.263  0.00  0.00     0.419 C 
HETATM   25  F   UNK N   1      35.526  12.582  18.385  0.00  0.00    -0.166 F 
HETATM   26  F   UNK N   1      34.027  13.562  17.013  0.00  0.00    -0.166 F 
HETATM   27  F   UNK N   1      35.933  14.633  17.546  0.00  0.00    -0.166 F 
ENDBRANCH  21  24
ENDBRANCH  14  16
BRANCH  13  28
HETATM   28  O   UNK N   1      34.466  13.713  12.097  0.00  0.00    -0.347 OA
HETATM   29  H   UNK N   1      34.187  13.104  12.752  0.00  0.00     0.219 HD
ENDBRANCH  13  28
ENDBRANCH  11  13
BRANCH  11  30
HETATM   30  O   UNK N   1      37.214  15.205  10.379  0.00  0.00    -0.380 OA
HETATM   31  H   UNK N   1      37.583  15.229   9.483  0.00  0.00     0.211 HD
ENDBRANCH  11  30
ENDBRANCH  10  11
ENDBRANCH   9  10
ENDBRANCH   7   9
TORSDOF 8
ENDMDL
MODEL 7
REMARK VINA RESULT:      -6.9     18.110     22.470
REMARK  8 active torsions:
REMARK  status: ('A' for Active; 'I' for Inactive)
REMARK    1  A    between atoms: C_18  and  C_11 
REMARK    2  A    between atoms: O_29  and  C_11 
REMARK    3  A    between atoms: N_25  and  C_14 
REMARK    4  A    between atoms: O_29  and  C_15 
REMARK    5  A    between atoms: C_19  and  C_16 
REMARK    6  A    between atoms: C_18  and  C_17 
REMARK    7  A    between atoms: O_27  and  C_17 
REMARK    8  A    between atoms: C_18  and  O_28 
ROOT
HETATM    1  C   UNK N   1      34.537  10.414  15.794  0.00  0.00     0.025 C 
HETATM    2  C   UNK N   1      35.225  12.344  17.104  0.00  0.00     0.025 C 
HETATM    3  C   UNK N   1      34.308  11.234  14.709  0.00  0.00     0.038 C 
HETATM    4  C   UNK N   1      35.022  13.158  16.015  0.00  0.00     0.038 C 
HETATM    5  C   UNK N   1      35.446  10.106  18.012  0.00  0.00     0.099 C 
HETATM    6  C   UNK N   1      35.049  10.972  16.970  0.00  0.00     0.044 C 
HETATM    7  C   UNK N   1      34.633  12.603  14.812  0.00  0.00     0.069 C 
HETATM    8  N   UNK N   1      35.735   9.311  18.796  0.00  0.00    -0.191 NA
ENDROOT
BRANCH   7   9
HETATM    9  O   UNK N   1      34.656  13.393  13.743  0.00  0.00    -0.348 OA
BRANCH   9  10
HETATM   10  C   UNK N   1      35.082  12.936  12.542  0.00  0.00     0.221 C 
BRANCH  10  11
HETATM   11  C   UNK N   1      36.455  13.506  12.209  0.00  0.00     0.140 C 
HETATM   12  C   UNK N   1      37.532  12.518  11.766  0.00  0.00     0.057 C 
BRANCH  11  13
HETATM   13  C   UNK N   1      36.141  14.398  11.092  0.00  0.00     0.153 C 
HETATM   14  N   UNK N   1      35.163  14.080  10.341  0.00  0.00    -0.338 N 
ATOM     15  HN  UNK N   1      34.612  13.264  10.609  1.00  0.00     0.168 HD
BRANCH  14  16
HETATM   16  C   UNK N   1      34.785  14.757   9.182  0.00  0.00     0.034 A 
HETATM   17  C   UNK N   1      35.536  14.704   7.998  0.00  0.00     0.031 A 
HETATM   18  C   UNK N   1      35.137  15.467   6.911  0.00  0.00     0.026 A 
HETATM   19  C   UNK N   1      33.975  16.254   6.994  0.00  0.00     0.059 A 
HETATM   20  C   UNK N   1      33.651  17.074   5.863  0.00  0.00     0.100 C 
HETATM   21  C   UNK N   1      33.160  16.220   8.174  0.00  0.00     0.070 A 
HETATM   22  N   UNK N   1      33.368  17.745   4.964  0.00  0.00    -0.191 NA
HETATM   23  C   UNK N   1      33.613  15.485   9.254  0.00  0.00     0.047 A 
BRANCH  21  24
HETATM   24  C   UNK N   1      31.839  16.954   8.366  0.00  0.00     0.419 C 
HETATM   25  F   UNK N   1      31.006  16.847   7.259  0.00  0.00    -0.166 F 
HETATM   26  F   UNK N   1      32.125  18.278   8.599  0.00  0.00    -0.166 F 
HETATM   27  F   UNK N   1      31.145  16.450   9.473  0.00  0.00    -0.166 F 
ENDBRANCH  21  24
ENDBRANCH  14  16
BRANCH  13  28
HETATM   28  O   UNK N   1      36.968  15.430  10.789  0.00  0.00    -0.347 OA
HETATM   29  H   UNK N   1      37.088  16.252  11.223  0.00  0.00     0.219 HD
ENDBRANCH  13  28
ENDBRANCH  11  13
BRANCH  11  30
HETATM   30  O   UNK N   1      36.935  14.221  13.315  0.00  0.00    -0.380 OA
HETATM   31  H   UNK N   1      36.939  13.983  14.254  0.00  0.00     0.211 HD
ENDBRANCH  11  30
ENDBRANCH  10  11
ENDBRANCH   9  10
ENDBRANCH   7   9
TORSDOF 8
ENDMDL
MODEL 8
REMARK VINA RESULT:      -6.9     11.393     14.490
REMARK  8 active torsions:
REMARK  status: ('A' for Active; 'I' for Inactive)
REMARK    1  A    between atoms: C_18  and  C_11 
REMARK    2  A    between atoms: O_29  and  C_11 
REMARK    3  A    between atoms: N_25  and  C_14 
REMARK    4  A    between atoms: O_29  and  C_15 
REMARK    5  A    between atoms: C_19  and  C_16 
REMARK    6  A    between atoms: C_18  and  C_17 
REMARK    7  A    between atoms: O_27  and  C_17 
REMARK    8  A    between atoms: C_18  and  O_28 
ROOT
HETATM    1  C   UNK N   1      27.578  19.146   3.830  0.00  0.00     0.025 C 
HETATM    2  C   UNK N   1      26.587  20.676   5.438  0.00  0.00     0.025 C 
HETATM    3  C   UNK N   1      28.397  18.640   4.818  0.00  0.00     0.038 C 
HETATM    4  C   UNK N   1      27.384  20.155   6.429  0.00  0.00     0.038 C 
HETATM    5  C   UNK N   1      25.688  20.510   3.191  0.00  0.00     0.099 C 
HETATM    6  C   UNK N   1      26.637  20.125   4.164  0.00  0.00     0.044 C 
HETATM    7  C   UNK N   1      28.231  19.104   6.139  0.00  0.00     0.069 C 
HETATM    8  N   UNK N   1      24.965  20.748   2.325  0.00  0.00    -0.191 NA
ENDROOT
BRANCH   7   9
HETATM    9  O   UNK N   1      28.820  18.498   7.166  0.00  0.00    -0.348 OA
BRANCH   9  10
HETATM   10  C   UNK N   1      28.402  18.707   8.437  0.00  0.00     0.221 C 
BRANCH  10  11
HETATM   11  C   UNK N   1      29.342  18.030   9.427  0.00  0.00     0.140 C 
HETATM   12  C   UNK N   1      28.810  16.806  10.169  0.00  0.00     0.057 C 
BRANCH  11  13
HETATM   13  C   UNK N   1      30.441  17.615   8.554  0.00  0.00     0.153 C 
HETATM   14  N   UNK N   1      30.338  16.486   7.973  0.00  0.00    -0.338 N 
ATOM     15  HN  UNK N   1      29.463  15.976   8.093  1.00  0.00     0.168 HD
BRANCH  14  16
HETATM   16  C   UNK N   1      31.324  15.892   7.188  0.00  0.00     0.034 A 
HETATM   17  C   UNK N   1      32.251  14.975   7.706  0.00  0.00     0.031 A 
HETATM   18  C   UNK N   1      33.252  14.486   6.879  0.00  0.00     0.026 A 
HETATM   19  C   UNK N   1      33.307  14.886   5.532  0.00  0.00     0.059 A 
HETATM   20  C   UNK N   1      34.404  14.401   4.745  0.00  0.00     0.100 C 
HETATM   21  C   UNK N   1      32.293  15.742   4.989  0.00  0.00     0.070 A 
HETATM   22  N   UNK N   1      35.279  14.025   4.089  0.00  0.00    -0.191 NA
HETATM   23  C   UNK N   1      31.340  16.247   5.853  0.00  0.00     0.047 A 
BRANCH  21  24
HETATM   24  C   UNK N   1      32.185  16.183   3.534  0.00  0.00     0.419 C 
HETATM   25  F   UNK N   1      32.174  15.109   2.653  0.00  0.00    -0.166 F 
HETATM   26  F   UNK N   1      33.263  16.991   3.259  0.00  0.00    -0.166 F 
HETATM   27  F   UNK N   1      31.014  16.921   3.323  0.00  0.00    -0.166 F 
ENDBRANCH  21  24
ENDBRANCH  14  16
BRANCH  13  28
HETATM   28  O   UNK N   1      31.585  18.341   8.503  0.00  0.00    -0.347 OA
HETATM   29  H   UNK N   1      31.813  19.136   8.945  0.00  0.00     0.219 HD
ENDBRANCH  13  28
ENDBRANCH  11  13
BRANCH  11  30
HETATM   30  O   UNK N   1      29.769  18.973  10.372  0.00  0.00    -0.380 OA
HETATM   31  H   UNK N   1      29.463  19.124  11.279  0.00  0.00     0.211 HD
ENDBRANCH  11  30
ENDBRANCH  10  11
ENDBRANCH   9  10
ENDBRANCH   7   9
TORSDOF 8
ENDMDL
MODEL 9
REMARK VINA RESULT:      -6.8     14.683     17.466
REMARK  8 active torsions:
REMARK  status: ('A' for Active; 'I' for Inactive)
REMARK    1  A    between atoms: C_18  and  C_11 
REMARK    2  A    between atoms: O_29  and  C_11 
REMARK    3  A    between atoms: N_25  and  C_14 
REMARK    4  A    between atoms: O_29  and  C_15 
REMARK    5  A    between atoms: C_19  and  C_16 
REMARK    6  A    between atoms: C_18  and  C_17 
REMARK    7  A    between atoms: O_27  and  C_17 
REMARK    8  A    between atoms: C_18  and  O_28 
ROOT
HETATM    1  C   UNK N   1      24.473  12.314  10.448  0.00  0.00     0.025 C 
HETATM    2  C   UNK N   1      22.044  12.417  10.490  0.00  0.00     0.025 C 
HETATM    3  C   UNK N   1      24.464  12.666   9.115  0.00  0.00     0.038 C 
HETATM    4  C   UNK N   1      22.035  12.793   9.168  0.00  0.00     0.038 C 
HETATM    5  C   UNK N   1      23.289  12.059  12.540  0.00  0.00     0.099 C 
HETATM    6  C   UNK N   1      23.259  12.246  11.141  0.00  0.00     0.044 C 
HETATM    7  C   UNK N   1      23.232  12.983   8.505  0.00  0.00     0.069 C 
HETATM    8  N   UNK N   1      23.430  11.901  13.674  0.00  0.00    -0.191 NA
ENDROOT
BRANCH   7   9
HETATM    9  O   UNK N   1      23.177  13.548   7.303  0.00  0.00    -0.348 OA
BRANCH   9  10
HETATM   10  C   UNK N   1      23.171  14.895   7.161  0.00  0.00     0.221 C 
BRANCH  10  11
HETATM   11  C   UNK N   1      23.726  15.291   5.799  0.00  0.00     0.140 C 
HETATM   12  C   UNK N   1      23.278  16.635   5.227  0.00  0.00     0.057 C 
BRANCH  11  13
HETATM   13  C   UNK N   1      25.163  15.345   6.069  0.00  0.00     0.153 C 
HETATM   14  N   UNK N   1      25.745  16.470   5.935  0.00  0.00    -0.338 N 
ATOM     15  HN  UNK N   1      25.160  17.278   5.722  1.00  0.00     0.168 HD
BRANCH  14  16
HETATM   16  C   UNK N   1      27.117  16.686   6.057  0.00  0.00     0.034 A 
HETATM   17  C   UNK N   1      28.009  16.494   4.991  0.00  0.00     0.031 A 
HETATM   18  C   UNK N   1      29.369  16.653   5.212  0.00  0.00     0.026 A 
HETATM   19  C   UNK N   1      29.834  17.034   6.483  0.00  0.00     0.059 A 
HETATM   20  C   UNK N   1      31.254  17.116   6.668  0.00  0.00     0.100 C 
HETATM   21  C   UNK N   1      28.905  17.327   7.536  0.00  0.00     0.070 A 
HETATM   22  N   UNK N   1      32.394  17.189   6.844  0.00  0.00    -0.191 NA
HETATM   23  C   UNK N   1      27.562  17.112   7.294  0.00  0.00     0.047 A 
BRANCH  21  24
HETATM   24  C   UNK N   1      29.267  17.828   8.929  0.00  0.00     0.419 C 
HETATM   25  F   UNK N   1      28.156  17.959   9.752  0.00  0.00    -0.166 F 
HETATM   26  F   UNK N   1      29.882  19.049   8.789  0.00  0.00    -0.166 F 
HETATM   27  F   UNK N   1      30.162  16.951   9.556  0.00  0.00    -0.166 F 
ENDBRANCH  21  24
ENDBRANCH  14  16
BRANCH  13  28
HETATM   28  O   UNK N   1      25.859  14.204   6.295  0.00  0.00    -0.347 OA
HETATM   29  H   UNK N   1      26.767  14.081   6.492  0.00  0.00     0.219 HD
ENDBRANCH  13  28
ENDBRANCH  11  13
BRANCH  11  30
HETATM   30  O   UNK N   1      23.418  14.288   4.868  0.00  0.00    -0.380 OA
HETATM   31  H   UNK N   1      22.683  14.229   4.239  0.00  0.00     0.211 HD
ENDBRANCH  11  30
ENDBRANCH  10  11
ENDBRANCH   9  10
ENDBRANCH   7   9
TORSDOF 8
ENDMDL
