MODEL 1
REMARK VINA RESULT:      -7.8      0.000      0.000
REMARK  7 active torsions:
REMARK  status: ('A' for Active; 'I' for Inactive)
REMARK    1  A    between atoms: C_16  and  O_37 
REMARK    2  A    between atoms: C_19  and  C_20 
REMARK    3  A    between atoms: C_19  and  O_26 
REMARK    4  A    between atoms: C_20  and  O_22 
REMARK    5  A    between atoms: O_22  and  C_23 
REMARK    6  A    between atoms: O_26  and  C_27 
REMARK    7  A    between atoms: C_27  and  C_29 
ROOT
HETATM    1  C   UNK N   1      19.200  16.285   8.285  0.00  0.00     0.302 C 
HETATM    2  C   UNK N   1      19.624  17.631   8.703  0.00  0.00     0.085 C 
HETATM    3  N   UNK N   1      19.961  18.684   9.055  0.00  0.00    -0.195 NA
ENDROOT
BRANCH   1   4
HETATM    4  O   UNK N   1      20.008  15.878   7.252  0.00  0.00    -0.305 OA
BRANCH   4   5
HETATM    5  C   UNK N   1      19.496  15.599   6.031  0.00  0.00     0.296 C 
HETATM    6  O   UNK N   1      18.359  15.963   5.765  0.00  0.00    -0.262 OA
BRANCH   5   7
HETATM    7  C   UNK N   1      20.470  15.206   4.919  0.00  0.00     0.169 C 
HETATM    8  C   UNK N   1      21.688  16.120   4.633  0.00  0.00     0.004 C 
HETATM    9  C   UNK N   1      21.418  17.640   4.550  0.00  0.00     0.048 C 
HETATM   10  C   UNK N   1      22.667  15.905   5.758  0.00  0.00     0.005 C 
HETATM   11  C   UNK N   1      22.285  15.538   3.320  0.00  0.00     0.019 C 
HETATM   12  C   UNK N   1      22.651  18.563   4.678  0.00  0.00     0.160 C 
HETATM   13  C   UNK N   1      23.963  17.802   4.417  0.00  0.00     0.147 C 
HETATM   14  C   UNK N   1      25.254  18.662   4.342  0.00  0.00     0.039 C 
HETATM   15  C   UNK N   1      24.041  16.649   5.503  0.00  0.00     0.037 C 
HETATM   16  F   UNK N   1      23.917  17.269   3.142  0.00  0.00    -0.238 F 
HETATM   17  C   UNK N   1      25.400  19.769   5.361  0.00  0.00    -0.006 C 
HETATM   18  C   UNK N   1      26.470  17.739   4.398  0.00  0.00    -0.027 C 
HETATM   19  C   UNK N   1      25.292  19.394   2.982  0.00  0.00     0.028 C 
HETATM   20  C   UNK N   1      26.598  20.384   5.455  0.00  0.00     0.052 C 
HETATM   21  C   UNK N   1      27.786  19.730   4.838  0.00  0.00     0.172 C 
HETATM   22  C   UNK N   1      27.693  18.284   4.532  0.00  0.00     0.061 C 
HETATM   23  O   UNK N   1      28.848  20.320   4.740  0.00  0.00    -0.289 OA
HETATM   24  C   UNK N   1      26.279  16.237   4.310  0.00  0.00     0.201 C 
HETATM   25  C   UNK N   1      25.257  15.722   5.336  0.00  0.00     0.050 C 
HETATM   26  F   UNK N   1      27.469  15.544   4.449  0.00  0.00    -0.245 F 
HETATM   27  C   UNK N   1      22.555  14.410   6.107  0.00  0.00     0.013 C 
HETATM   28  C   UNK N   1      21.301  13.942   5.320  0.00  0.00     0.028 C 
HETATM   29  C   UNK N   1      20.577  12.718   5.864  0.00  0.00     0.014 C 
BRANCH  12  30
HETATM   30  O   UNK N   1      22.491  19.665   3.840  0.00  0.00    -0.392 OA
HETATM   31  H   UNK N   1      22.591  20.563   4.192  0.00  0.00     0.210 HD
ENDBRANCH  12  30
BRANCH   7  32
HETATM   32  O   UNK N   1      19.753  15.006   3.722  0.00  0.00    -0.298 OA
BRANCH  32  33
HETATM   33  C   UNK N   1      19.231  13.793   3.310  0.00  0.00     0.265 C 
HETATM   34  O   UNK N   1      18.227  13.378   3.868  0.00  0.00    -0.265 OA
BRANCH  33  35
HETATM   35  C   UNK N   1      19.977  12.903   2.298  0.00  0.00     0.102 A 
HETATM   36  C   UNK N   1      19.337  12.455   0.966  0.00  0.00    -0.027 A 
HETATM   37  C   UNK N   1      20.353  13.599   0.982  0.00  0.00    -0.027 A 
HETATM   38  C   UNK N   1      17.859  12.752   0.757  0.00  0.00     0.016 C 
HETATM   39  C   UNK N   1      19.841  11.092   0.505  0.00  0.00     0.016 C 
HETATM   40  C   UNK N   1      21.774  13.281   0.549  0.00  0.00     0.016 C 
HETATM   41  C   UNK N   1      19.821  15.001   0.715  0.00  0.00     0.016 C 
ENDBRANCH  33  35
ENDBRANCH  32  33
ENDBRANCH   7  32
ENDBRANCH   5   7
ENDBRANCH   4   5
ENDBRANCH   1   4
TORSDOF 7
ENDMDL
MODEL 2
REMARK VINA RESULT:      -7.6     12.707     15.765
REMARK  7 active torsions:
REMARK  status: ('A' for Active; 'I' for Inactive)
REMARK    1  A    between atoms: C_16  and  O_37 
REMARK    2  A    between atoms: C_19  and  C_20 
REMARK    3  A    between atoms: C_19  and  O_26 
REMARK    4  A    between atoms: C_20  and  O_22 
REMARK    5  A    between atoms: O_22  and  C_23 
REMARK    6  A    between atoms: O_26  and  C_27 
REMARK    7  A    between atoms: C_27  and  C_29 
ROOT
HETATM    1  C   UNK N   1      28.142  23.390  -2.590  0.00  0.00     0.302 C 
HETATM    2  C   UNK N   1      29.456  23.129  -1.981  0.00  0.00     0.085 C 
HETATM    3  N   UNK N   1      30.488  22.899  -1.502  0.00  0.00    -0.195 NA
ENDROOT
BRANCH   1   4
HETATM    4  O   UNK N   1      28.334  24.122  -3.736  0.00  0.00    -0.305 OA
BRANCH   4   5
HETATM    5  C   UNK N   1      27.623  23.866  -4.857  0.00  0.00     0.296 C 
HETATM    6  O   UNK N   1      26.404  23.967  -4.824  0.00  0.00    -0.262 OA
BRANCH   5   7
HETATM    7  C   UNK N   1      28.369  23.854  -6.193  0.00  0.00     0.169 C 
HETATM    8  C   UNK N   1      29.717  23.096  -6.289  0.00  0.00     0.004 C 
HETATM    9  C   UNK N   1      30.734  23.327  -5.147  0.00  0.00     0.048 C 
HETATM   10  C   UNK N   1      29.389  21.625  -6.299  0.00  0.00     0.005 C 
HETATM   11  C   UNK N   1      30.269  23.504  -7.685  0.00  0.00     0.019 C 
HETATM   12  C   UNK N   1      31.872  22.288  -5.023  0.00  0.00     0.160 C 
HETATM   13  C   UNK N   1      32.045  21.474  -6.317  0.00  0.00     0.147 C 
HETATM   14  C   UNK N   1      33.272  20.524  -6.373  0.00  0.00     0.039 C 
HETATM   15  C   UNK N   1      30.667  20.731  -6.572  0.00  0.00     0.037 C 
HETATM   16  F   UNK N   1      32.328  22.346  -7.352  0.00  0.00    -0.238 F 
HETATM   17  C   UNK N   1      33.583  19.731  -5.124  0.00  0.00    -0.006 C 
HETATM   18  C   UNK N   1      33.116  19.579  -7.564  0.00  0.00    -0.027 C 
HETATM   19  C   UNK N   1      34.547  21.364  -6.614  0.00  0.00     0.028 C 
HETATM   20  C   UNK N   1      34.503  18.748  -5.215  0.00  0.00     0.052 C 
HETATM   21  C   UNK N   1      34.890  18.256  -6.567  0.00  0.00     0.172 C 
HETATM   22  C   UNK N   1      33.975  18.552  -7.694  0.00  0.00     0.061 C 
HETATM   23  O   UNK N   1      35.835  17.500  -6.714  0.00  0.00    -0.289 OA
HETATM   24  C   UNK N   1      32.001  19.810  -8.566  0.00  0.00     0.201 C 
HETATM   25  C   UNK N   1      30.629  19.932  -7.885  0.00  0.00     0.050 C 
HETATM   26  F   UNK N   1      31.954  18.827  -9.538  0.00  0.00    -0.245 F 
HETATM   27  C   UNK N   1      28.078  21.512  -7.099  0.00  0.00     0.013 C 
HETATM   28  C   UNK N   1      27.612  22.985  -7.250  0.00  0.00     0.028 C 
HETATM   29  C   UNK N   1      26.122  23.206  -7.466  0.00  0.00     0.014 C 
BRANCH  12  30
HETATM   30  O   UNK N   1      33.042  22.933  -4.630  0.00  0.00    -0.392 OA
HETATM   31  H   UNK N   1      33.576  22.575  -3.904  0.00  0.00     0.210 HD
ENDBRANCH  12  30
BRANCH   7  32
HETATM   32  O   UNK N   1      28.553  25.180  -6.634  0.00  0.00    -0.298 OA
BRANCH  32  33
HETATM   33  C   UNK N   1      28.754  26.266  -5.802  0.00  0.00     0.265 C 
HETATM   34  O   UNK N   1      29.888  26.486  -5.407  0.00  0.00    -0.265 OA
BRANCH  33  35
HETATM   35  C   UNK N   1      27.571  27.081  -5.248  0.00  0.00     0.102 A 
HETATM   36  C   UNK N   1      27.239  28.502  -5.755  0.00  0.00    -0.027 A 
HETATM   37  C   UNK N   1      26.420  27.304  -6.241  0.00  0.00    -0.027 A 
HETATM   38  C   UNK N   1      28.238  29.170  -6.689  0.00  0.00     0.016 C 
HETATM   39  C   UNK N   1      26.608  29.374  -4.677  0.00  0.00     0.016 C 
HETATM   40  C   UNK N   1      25.059  27.080  -5.604  0.00  0.00     0.016 C 
HETATM   41  C   UNK N   1      26.609  26.878  -7.691  0.00  0.00     0.016 C 
ENDBRANCH  33  35
ENDBRANCH  32  33
ENDBRANCH   7  32
ENDBRANCH   5   7
ENDBRANCH   4   5
ENDBRANCH   1   4
TORSDOF 7
ENDMDL
MODEL 3
REMARK VINA RESULT:      -7.6     12.643     16.145
REMARK  7 active torsions:
REMARK  status: ('A' for Active; 'I' for Inactive)
REMARK    1  A    between atoms: C_16  and  O_37 
REMARK    2  A    between atoms: C_19  and  C_20 
REMARK    3  A    between atoms: C_19  and  O_26 
REMARK    4  A    between atoms: C_20  and  O_22 
REMARK    5  A    between atoms: O_22  and  C_23 
REMARK    6  A    between atoms: O_26  and  C_27 
REMARK    7  A    between atoms: C_27  and  C_29 
ROOT
HETATM    1  C   UNK N   1      28.282  23.551  -2.122  0.00  0.00     0.302 C 
HETATM    2  C   UNK N   1      29.685  23.143  -1.946  0.00  0.00     0.085 C 
HETATM    3  N   UNK N   1      30.784  22.805  -1.792  0.00  0.00    -0.195 NA
ENDROOT
BRANCH   1   4
HETATM    4  O   UNK N   1      27.957  23.426  -3.450  0.00  0.00    -0.305 OA
BRANCH   4   5
HETATM    5  C   UNK N   1      27.232  24.375  -4.086  0.00  0.00     0.296 C 
HETATM    6  O   UNK N   1      26.502  25.105  -3.430  0.00  0.00    -0.262 OA
BRANCH   5   7
HETATM    7  C   UNK N   1      27.643  24.757  -5.509  0.00  0.00     0.169 C 
HETATM    8  C   UNK N   1      28.373  23.706  -6.385  0.00  0.00     0.004 C 
HETATM    9  C   UNK N   1      29.529  22.924  -5.720  0.00  0.00     0.048 C 
HETATM   10  C   UNK N   1      27.338  22.696  -6.805  0.00  0.00     0.005 C 
HETATM   11  C   UNK N   1      28.827  24.518  -7.631  0.00  0.00     0.019 C 
HETATM   12  C   UNK N   1      29.973  21.624  -6.430  0.00  0.00     0.160 C 
HETATM   13  C   UNK N   1      29.494  21.580  -7.892  0.00  0.00     0.147 C 
HETATM   14  C   UNK N   1      30.030  20.407  -8.756  0.00  0.00     0.039 C 
HETATM   15  C   UNK N   1      27.911  21.656  -7.852  0.00  0.00     0.037 C 
HETATM   16  F   UNK N   1      30.018  22.672  -8.560  0.00  0.00    -0.238 F 
HETATM   17  C   UNK N   1      30.081  19.044  -8.105  0.00  0.00    -0.006 C 
HETATM   18  C   UNK N   1      29.224  20.335 -10.052  0.00  0.00    -0.027 C 
HETATM   19  C   UNK N   1      31.499  20.696  -9.142  0.00  0.00     0.028 C 
HETATM   20  C   UNK N   1      30.336  17.978  -8.894  0.00  0.00     0.052 C 
HETATM   21  C   UNK N   1      30.194  18.132 -10.369  0.00  0.00     0.172 C 
HETATM   22  C   UNK N   1      29.398  19.278 -10.867  0.00  0.00     0.061 C 
HETATM   23  O   UNK N   1      30.578  17.263 -11.132  0.00  0.00    -0.289 OA
HETATM   24  C   UNK N   1      28.244  21.442 -10.391  0.00  0.00     0.201 C 
HETATM   25  C   UNK N   1      27.259  21.713  -9.244  0.00  0.00     0.050 C 
HETATM   26  F   UNK N   1      27.544  21.189 -11.558  0.00  0.00    -0.245 F 
HETATM   27  C   UNK N   1      26.049  23.509  -7.023  0.00  0.00     0.013 C 
HETATM   28  C   UNK N   1      26.391  24.904  -6.435  0.00  0.00     0.028 C 
HETATM   29  C   UNK N   1      25.214  25.749  -5.967  0.00  0.00     0.014 C 
BRANCH  12  30
HETATM   30  O   UNK N   1      31.354  21.482  -6.310  0.00  0.00    -0.392 OA
HETATM   31  H   UNK N   1      31.932  22.256  -6.393  0.00  0.00     0.210 HD
ENDBRANCH  12  30
BRANCH   7  32
HETATM   32  O   UNK N   1      28.411  25.938  -5.470  0.00  0.00    -0.298 OA
BRANCH  32  33
HETATM   33  C   UNK N   1      28.914  26.512  -4.316  0.00  0.00     0.265 C 
HETATM   34  O   UNK N   1      29.946  26.057  -3.850  0.00  0.00    -0.265 OA
BRANCH  33  35
HETATM   35  C   UNK N   1      28.120  27.580  -3.541  0.00  0.00     0.102 A 
HETATM   36  C   UNK N   1      28.532  29.068  -3.532  0.00  0.00    -0.027 A 
HETATM   37  C   UNK N   1      27.379  28.597  -4.421  0.00  0.00    -0.027 A 
HETATM   38  C   UNK N   1      29.872  29.435  -4.154  0.00  0.00     0.016 C 
HETATM   39  C   UNK N   1      28.156  29.770  -2.232  0.00  0.00     0.016 C 
HETATM   40  C   UNK N   1      25.964  28.858  -3.931  0.00  0.00     0.016 C 
HETATM   41  C   UNK N   1      27.623  28.584  -5.924  0.00  0.00     0.016 C 
ENDBRANCH  33  35
ENDBRANCH  32  33
ENDBRANCH   7  32
ENDBRANCH   5   7
ENDBRANCH   4   5
ENDBRANCH   1   4
TORSDOF 7
ENDMDL
MODEL 4
REMARK VINA RESULT:      -7.4     13.025     16.509
REMARK  7 active torsions:
REMARK  status: ('A' for Active; 'I' for Inactive)
REMARK    1  A    between atoms: C_16  and  O_37 
REMARK    2  A    between atoms: C_19  and  C_20 
REMARK    3  A    between atoms: C_19  and  O_26 
REMARK    4  A    between atoms: C_20  and  O_22 
REMARK    5  A    between atoms: O_22  and  C_23 
REMARK    6  A    between atoms: O_26  and  C_27 
REMARK    7  A    between atoms: C_27  and  C_29 
ROOT
HETATM    1  C   UNK N   1      33.819  16.815   8.293  0.00  0.00     0.302 C 
HETATM    2  C   UNK N   1      34.538  18.097   8.373  0.00  0.00     0.085 C 
HETATM    3  N   UNK N   1      35.093  19.112   8.457  0.00  0.00    -0.195 NA
ENDROOT
BRANCH   1   4
HETATM    4  O   UNK N   1      34.744  15.801   8.261  0.00  0.00    -0.305 OA
BRANCH   4   5
HETATM    5  C   UNK N   1      34.366  14.505   8.348  0.00  0.00     0.296 C 
HETATM    6  O   UNK N   1      33.323  14.153   7.815  0.00  0.00    -0.262 OA
BRANCH   5   7
HETATM    7  C   UNK N   1      35.423  13.475   8.750  0.00  0.00     0.169 C 
HETATM    8  C   UNK N   1      35.695  13.232  10.257  0.00  0.00     0.004 C 
HETATM    9  C   UNK N   1      35.847  14.483  11.152  0.00  0.00     0.048 C 
HETATM   10  C   UNK N   1      34.525  12.446  10.788  0.00  0.00     0.005 C 
HETATM   11  C   UNK N   1      36.960  12.327  10.260  0.00  0.00     0.019 C 
HETATM   12  C   UNK N   1      35.705  14.257  12.674  0.00  0.00     0.160 C 
HETATM   13  C   UNK N   1      35.885  12.776  13.051  0.00  0.00     0.147 C 
HETATM   14  C   UNK N   1      35.941  12.454  14.569  0.00  0.00     0.039 C 
HETATM   15  C   UNK N   1      34.753  11.974  12.282  0.00  0.00     0.037 C 
HETATM   16  F   UNK N   1      37.139  12.366  12.638  0.00  0.00    -0.238 F 
HETATM   17  C   UNK N   1      34.960  13.180  15.460  0.00  0.00    -0.006 C 
HETATM   18  C   UNK N   1      35.802  10.945  14.762  0.00  0.00    -0.027 C 
HETATM   19  C   UNK N   1      37.326  12.864  15.118  0.00  0.00     0.028 C 
HETATM   20  C   UNK N   1      34.843  12.763  16.739  0.00  0.00     0.052 C 
HETATM   21  C   UNK N   1      35.386  11.425  17.105  0.00  0.00     0.172 C 
HETATM   22  C   UNK N   1      35.640  10.463  16.008  0.00  0.00     0.061 C 
HETATM   23  O   UNK N   1      35.464  11.076  18.270  0.00  0.00    -0.289 OA
HETATM   24  C   UNK N   1      35.840  10.025  13.557  0.00  0.00     0.201 C 
HETATM   25  C   UNK N   1      34.837  10.450  12.473  0.00  0.00     0.050 C 
HETATM   26  F   UNK N   1      35.627   8.700  13.897  0.00  0.00    -0.245 F 
HETATM   27  C   UNK N   1      34.124  11.499   9.643  0.00  0.00     0.013 C 
HETATM   28  C   UNK N   1      34.941  12.022   8.431  0.00  0.00     0.028 C 
HETATM   29  C   UNK N   1      34.380  11.710   7.050  0.00  0.00     0.014 C 
BRANCH  12  30
HETATM   30  O   UNK N   1      36.590  15.096  13.348  0.00  0.00    -0.392 OA
HETATM   31  H   UNK N   1      37.225  15.635  12.851  0.00  0.00     0.210 HD
ENDBRANCH  12  30
BRANCH   7  32
HETATM   32  O   UNK N   1      36.639  13.781   8.105  0.00  0.00    -0.298 OA
BRANCH  32  33
HETATM   33  C   UNK N   1      36.875  13.618   6.752  0.00  0.00     0.265 C 
HETATM   34  O   UNK N   1      36.229  14.298   5.970  0.00  0.00    -0.265 OA
BRANCH  33  35
HETATM   35  C   UNK N   1      37.797  12.502   6.228  0.00  0.00     0.102 A 
HETATM   36  C   UNK N   1      39.109  12.805   5.472  0.00  0.00    -0.027 A 
HETATM   37  C   UNK N   1      39.150  12.394   6.945  0.00  0.00    -0.027 A 
HETATM   38  C   UNK N   1      39.380  14.249   5.076  0.00  0.00     0.016 C 
HETATM   39  C   UNK N   1      39.454  11.729   4.448  0.00  0.00     0.016 C 
HETATM   40  C   UNK N   1      39.520  10.955   7.262  0.00  0.00     0.016 C 
HETATM   41  C   UNK N   1      39.535  13.469   7.954  0.00  0.00     0.016 C 
ENDBRANCH  33  35
ENDBRANCH  32  33
ENDBRANCH   7  32
ENDBRANCH   5   7
ENDBRANCH   4   5
ENDBRANCH   1   4
TORSDOF 7
ENDMDL
MODEL 5
REMARK VINA RESULT:      -7.3      9.711     13.725
REMARK  7 active torsions:
REMARK  status: ('A' for Active; 'I' for Inactive)
REMARK    1  A    between atoms: C_16  and  O_37 
REMARK    2  A    between atoms: C_19  and  C_20 
REMARK    3  A    between atoms: C_19  and  O_26 
REMARK    4  A    between atoms: C_20  and  O_22 
REMARK    5  A    between atoms: O_22  and  C_23 
REMARK    6  A    between atoms: O_26  and  C_27 
REMARK    7  A    between atoms: C_27  and  C_29 
ROOT
HETATM    1  C   UNK N   1      33.831  14.143   4.598  0.00  0.00     0.302 C 
HETATM    2  C   UNK N   1      33.205  14.037   3.270  0.00  0.00     0.085 C 
HETATM    3  N   UNK N   1      32.705  13.931   2.229  0.00  0.00    -0.195 NA
ENDROOT
BRANCH   1   4
HETATM    4  O   UNK N   1      33.304  15.236   5.239  0.00  0.00    -0.305 OA
BRANCH   4   5
HETATM    5  C   UNK N   1      33.948  15.819   6.275  0.00  0.00     0.296 C 
HETATM    6  O   UNK N   1      34.815  16.650   6.045  0.00  0.00    -0.262 OA
BRANCH   5   7
HETATM    7  C   UNK N   1      33.312  15.719   7.663  0.00  0.00     0.169 C 
HETATM    8  C   UNK N   1      33.858  14.669   8.663  0.00  0.00     0.004 C 
HETATM    9  C   UNK N   1      34.099  13.242   8.118  0.00  0.00     0.048 C 
HETATM   10  C   UNK N   1      35.186  15.185   9.155  0.00  0.00     0.005 C 
HETATM   11  C   UNK N   1      32.833  14.706   9.832  0.00  0.00     0.019 C 
HETATM   12  C   UNK N   1      35.008  12.328   8.970  0.00  0.00     0.160 C 
HETATM   13  C   UNK N   1      35.143  12.842  10.414  0.00  0.00     0.147 C 
HETATM   14  C   UNK N   1      35.885  11.911  11.410  0.00  0.00     0.039 C 
HETATM   15  C   UNK N   1      35.778  14.292  10.320  0.00  0.00     0.037 C 
HETATM   16  F   UNK N   1      33.883  12.898  10.981  0.00  0.00    -0.238 F 
HETATM   17  C   UNK N   1      37.132  11.223  10.905  0.00  0.00    -0.006 C 
HETATM   18  C   UNK N   1      36.203  12.696  12.682  0.00  0.00    -0.027 C 
HETATM   19  C   UNK N   1      34.947  10.749  11.807  0.00  0.00     0.028 C 
HETATM   20  C   UNK N   1      37.910  10.586  11.806  0.00  0.00     0.052 C 
HETATM   21  C   UNK N   1      37.717  10.886  13.252  0.00  0.00     0.172 C 
HETATM   22  C   UNK N   1      37.006  12.137  13.606  0.00  0.00     0.061 C 
HETATM   23  O   UNK N   1      38.263  10.217  14.112  0.00  0.00    -0.289 OA
HETATM   24  C   UNK N   1      35.619  14.083  12.876  0.00  0.00     0.201 C 
HETATM   25  C   UNK N   1      35.904  15.002  11.679  0.00  0.00     0.050 C 
HETATM   26  F   UNK N   1      36.063  14.683  14.042  0.00  0.00    -0.245 F 
HETATM   27  C   UNK N   1      35.012  16.712   9.249  0.00  0.00     0.013 C 
HETATM   28  C   UNK N   1      33.660  16.973   8.531  0.00  0.00     0.028 C 
HETATM   29  C   UNK N   1      33.462  18.364   7.944  0.00  0.00     0.014 C 
BRANCH  12  30
HETATM   30  O   UNK N   1      34.534  11.019   8.906  0.00  0.00    -0.392 OA
HETATM   31  H   UNK N   1      33.580  10.847   8.900  0.00  0.00     0.210 HD
ENDBRANCH  12  30
BRANCH   7  32
HETATM   32  O   UNK N   1      31.920  15.545   7.525  0.00  0.00    -0.298 OA
BRANCH  32  33
HETATM   33  C   UNK N   1      31.009  16.574   7.371  0.00  0.00     0.265 C 
HETATM   34  O   UNK N   1      30.416  16.971   8.362  0.00  0.00    -0.265 OA
BRANCH  33  35
HETATM   35  C   UNK N   1      30.620  17.098   5.976  0.00  0.00     0.102 A 
HETATM   36  C   UNK N   1      29.958  16.196   4.912  0.00  0.00    -0.027 A 
HETATM   37  C   UNK N   1      29.109  17.182   5.717  0.00  0.00    -0.027 A 
HETATM   38  C   UNK N   1      29.874  14.704   5.202  0.00  0.00     0.016 C 
HETATM   39  C   UNK N   1      30.324  16.605   3.490  0.00  0.00     0.016 C 
HETATM   40  C   UNK N   1      28.713  18.482   5.040  0.00  0.00     0.016 C 
HETATM   41  C   UNK N   1      28.153  16.593   6.747  0.00  0.00     0.016 C 
ENDBRANCH  33  35
ENDBRANCH  32  33
ENDBRANCH   7  32
ENDBRANCH   5   7
ENDBRANCH   4   5
ENDBRANCH   1   4
TORSDOF 7
ENDMDL
MODEL 6
REMARK VINA RESULT:      -7.2      1.514      1.842
REMARK  7 active torsions:
REMARK  status: ('A' for Active; 'I' for Inactive)
REMARK    1  A    between atoms: C_16  and  O_37 
REMARK    2  A    between atoms: C_19  and  C_20 
REMARK    3  A    between atoms: C_19  and  O_26 
REMARK    4  A    between atoms: C_20  and  O_22 
REMARK    5  A    between atoms: O_22  and  C_23 
REMARK    6  A    between atoms: O_26  and  C_27 
REMARK    7  A    between atoms: C_27  and  C_29 
ROOT
HETATM    1  C   UNK N   1      20.470  16.145   8.487  0.00  0.00     0.302 C 
HETATM    2  C   UNK N   1      19.788  17.365   8.947  0.00  0.00     0.085 C 
HETATM    3  N   UNK N   1      19.263  18.327   9.329  0.00  0.00    -0.195 NA
ENDROOT
BRANCH   1   4
HETATM    4  O   UNK N   1      21.027  16.396   7.257  0.00  0.00    -0.305 OA
BRANCH   4   5
HETATM    5  C   UNK N   1      20.444  15.953   6.121  0.00  0.00     0.296 C 
HETATM    6  O   UNK N   1      19.341  16.381   5.811  0.00  0.00    -0.262 OA
BRANCH   5   7
HETATM    7  C   UNK N   1      21.330  15.258   5.084  0.00  0.00     0.169 C 
HETATM    8  C   UNK N   1      22.804  15.712   4.936  0.00  0.00     0.004 C 
HETATM    9  C   UNK N   1      23.064  17.235   4.879  0.00  0.00     0.048 C 
HETATM   10  C   UNK N   1      23.546  15.180   6.134  0.00  0.00     0.005 C 
HETATM   11  C   UNK N   1      23.292  14.966   3.661  0.00  0.00     0.019 C 
HETATM   12  C   UNK N   1      24.517  17.692   5.144  0.00  0.00     0.160 C 
HETATM   13  C   UNK N   1      25.519  16.536   4.973  0.00  0.00     0.147 C 
HETATM   14  C   UNK N   1      27.024  16.914   5.039  0.00  0.00     0.039 C 
HETATM   15  C   UNK N   1      25.107  15.422   6.024  0.00  0.00     0.037 C 
HETATM   16  F   UNK N   1      25.416  16.051   3.682  0.00  0.00    -0.238 F 
HETATM   17  C   UNK N   1      27.435  17.906   6.102  0.00  0.00    -0.006 C 
HETATM   18  C   UNK N   1      27.852  15.637   5.170  0.00  0.00    -0.027 C 
HETATM   19  C   UNK N   1      27.430  17.593   3.711  0.00  0.00     0.028 C 
HETATM   20  C   UNK N   1      28.755  18.085   6.320  0.00  0.00     0.052 C 
HETATM   21  C   UNK N   1      29.709  17.072   5.788  0.00  0.00     0.172 C 
HETATM   22  C   UNK N   1      29.169  15.741   5.427  0.00  0.00     0.061 C 
HETATM   23  O   UNK N   1      30.911  17.273   5.801  0.00  0.00    -0.289 OA
HETATM   24  C   UNK N   1      27.180  14.285   5.016  0.00  0.00     0.201 C 
HETATM   25  C   UNK N   1      25.955  14.141   5.932  0.00  0.00     0.050 C 
HETATM   26  F   UNK N   1      28.053  13.234   5.236  0.00  0.00    -0.245 F 
HETATM   27  C   UNK N   1      22.910  13.808   6.422  0.00  0.00     0.013 C 
HETATM   28  C   UNK N   1      21.651  13.789   5.515  0.00  0.00     0.028 C 
HETATM   29  C   UNK N   1      20.514  12.876   5.953  0.00  0.00     0.014 C 
BRANCH  12  30
HETATM   30  O   UNK N   1      24.811  18.785   4.332  0.00  0.00    -0.392 OA
HETATM   31  H   UNK N   1      25.111  19.619   4.727  0.00  0.00     0.210 HD
ENDBRANCH  12  30
BRANCH   7  32
HETATM   32  O   UNK N   1      20.701  15.312   3.825  0.00  0.00    -0.298 OA
BRANCH  32  33
HETATM   33  C   UNK N   1      19.903  14.311   3.299  0.00  0.00     0.265 C 
HETATM   34  O   UNK N   1      18.788  14.157   3.770  0.00  0.00    -0.265 OA
BRANCH  33  35
HETATM   35  C   UNK N   1      20.452  13.308   2.268  0.00  0.00     0.102 A 
HETATM   36  C   UNK N   1      19.767  13.068   0.905  0.00  0.00    -0.027 A 
HETATM   37  C   UNK N   1      21.019  13.942   0.989  0.00  0.00    -0.027 A 
HETATM   38  C   UNK N   1      18.405  13.708   0.676  0.00  0.00     0.016 C 
HETATM   39  C   UNK N   1      19.955  11.642   0.400  0.00  0.00     0.016 C 
HETATM   40  C   UNK N   1      22.340  13.317   0.574  0.00  0.00     0.016 C 
HETATM   41  C   UNK N   1      20.836  15.438   0.768  0.00  0.00     0.016 C 
ENDBRANCH  33  35
ENDBRANCH  32  33
ENDBRANCH   7  32
ENDBRANCH   5   7
ENDBRANCH   4   5
ENDBRANCH   1   4
TORSDOF 7
ENDMDL
MODEL 7
REMARK VINA RESULT:      -7.2      4.111      6.955
REMARK  7 active torsions:
REMARK  status: ('A' for Active; 'I' for Inactive)
REMARK    1  A    between atoms: C_16  and  O_37 
REMARK    2  A    between atoms: C_19  and  C_20 
REMARK    3  A    between atoms: C_19  and  O_26 
REMARK    4  A    between atoms: C_20  and  O_22 
REMARK    5  A    between atoms: O_22  and  C_23 
REMARK    6  A    between atoms: O_26  and  C_27 
REMARK    7  A    between atoms: C_27  and  C_29 
ROOT
HETATM    1  C   UNK N   1      24.458  14.328   1.293  0.00  0.00     0.302 C 
HETATM    2  C   UNK N   1      25.396  13.257   1.666  0.00  0.00     0.085 C 
HETATM    3  N   UNK N   1      26.150  12.419   1.943  0.00  0.00    -0.195 NA
ENDROOT
BRANCH   1   4
HETATM    4  O   UNK N   1      24.239  15.116   2.396  0.00  0.00    -0.305 OA
BRANCH   4   5
HETATM    5  C   UNK N   1      25.238  15.841   2.949  0.00  0.00     0.296 C 
HETATM    6  O   UNK N   1      25.660  16.824   2.355  0.00  0.00    -0.262 OA
BRANCH   5   7
HETATM    7  C   UNK N   1      25.523  15.649   4.440  0.00  0.00     0.169 C 
HETATM    8  C   UNK N   1      26.989  15.715   4.937  0.00  0.00     0.004 C 
HETATM    9  C   UNK N   1      28.041  14.929   4.119  0.00  0.00     0.048 C 
HETATM   10  C   UNK N   1      27.395  17.166   4.902  0.00  0.00     0.005 C 
HETATM   11  C   UNK N   1      26.898  15.247   6.417  0.00  0.00     0.019 C 
HETATM   12  C   UNK N   1      29.519  15.316   4.353  0.00  0.00     0.160 C 
HETATM   13  C   UNK N   1      29.705  16.091   5.670  0.00  0.00     0.147 C 
HETATM   14  C   UNK N   1      31.169  16.377   6.099  0.00  0.00     0.039 C 
HETATM   15  C   UNK N   1      28.819  17.402   5.551  0.00  0.00     0.037 C 
HETATM   16  F   UNK N   1      29.264  15.298   6.714  0.00  0.00    -0.238 F 
HETATM   17  C   UNK N   1      32.129  16.807   5.015  0.00  0.00    -0.006 C 
HETATM   18  C   UNK N   1      31.164  17.407   7.228  0.00  0.00    -0.027 C 
HETATM   19  C   UNK N   1      31.791  15.079   6.661  0.00  0.00     0.028 C 
HETATM   20  C   UNK N   1      33.341  17.267   5.392  0.00  0.00     0.052 C 
HETATM   21  C   UNK N   1      33.542  17.665   6.813  0.00  0.00     0.172 C 
HETATM   22  C   UNK N   1      32.335  17.937   7.628  0.00  0.00     0.061 C 
HETATM   23  O   UNK N   1      34.653  17.917   7.245  0.00  0.00    -0.289 OA
HETATM   24  C   UNK N   1      29.851  17.814   7.869  0.00  0.00     0.201 C 
HETATM   25  C   UNK N   1      28.814  18.262   6.827  0.00  0.00     0.050 C 
HETATM   26  F   UNK N   1      30.014  18.806   8.821  0.00  0.00    -0.245 F 
HETATM   27  C   UNK N   1      26.130  17.946   5.304  0.00  0.00     0.013 C 
HETATM   28  C   UNK N   1      25.010  16.872   5.271  0.00  0.00     0.028 C 
HETATM   29  C   UNK N   1      23.591  17.378   5.052  0.00  0.00     0.014 C 
BRANCH  12  30
HETATM   30  O   UNK N   1      30.310  14.171   4.285  0.00  0.00    -0.392 OA
HETATM   31  H   UNK N   1      30.950  13.979   4.988  0.00  0.00     0.210 HD
ENDBRANCH  12  30
BRANCH   7  32
HETATM   32  O   UNK N   1      24.943  14.439   4.872  0.00  0.00    -0.298 OA
BRANCH  32  33
HETATM   33  C   UNK N   1      23.706  14.331   5.481  0.00  0.00     0.265 C 
HETATM   34  O   UNK N   1      22.711  14.391   4.777  0.00  0.00    -0.265 OA
BRANCH  33  35
HETATM   35  C   UNK N   1      23.568  14.306   7.015  0.00  0.00     0.102 A 
HETATM   36  C   UNK N   1      22.606  13.339   7.739  0.00  0.00    -0.027 A 
HETATM   37  C   UNK N   1      24.105  13.035   7.689  0.00  0.00    -0.027 A 
HETATM   38  C   UNK N   1      21.637  12.533   6.886  0.00  0.00     0.016 C 
HETATM   39  C   UNK N   1      22.065  13.920   9.041  0.00  0.00     0.016 C 
HETATM   40  C   UNK N   1      24.925  13.346   8.930  0.00  0.00     0.016 C 
HETATM   41  C   UNK N   1      24.547  11.869   6.814  0.00  0.00     0.016 C 
ENDBRANCH  33  35
ENDBRANCH  32  33
ENDBRANCH   7  32
ENDBRANCH   5   7
ENDBRANCH   4   5
ENDBRANCH   1   4
TORSDOF 7
ENDMDL
MODEL 8
REMARK VINA RESULT:      -7.2     13.281     15.722
REMARK  7 active torsions:
REMARK  status: ('A' for Active; 'I' for Inactive)
REMARK    1  A    between atoms: C_16  and  O_37 
REMARK    2  A    between atoms: C_19  and  C_20 
REMARK    3  A    between atoms: C_19  and  O_26 
REMARK    4  A    between atoms: C_20  and  O_22 
REMARK    5  A    between atoms: O_22  and  C_23 
REMARK    6  A    between atoms: O_26  and  C_27 
REMARK    7  A    between atoms: C_27  and  C_29 
ROOT
HETATM    1  C   UNK N   1      25.622  21.211  -8.740  0.00  0.00     0.302 C 
HETATM    2  C   UNK N   1      24.761  21.301  -7.550  0.00  0.00     0.085 C 
HETATM    3  N   UNK N   1      24.087  21.348  -6.607  0.00  0.00    -0.195 NA
ENDROOT
BRANCH   1   4
HETATM    4  O   UNK N   1      26.608  22.161  -8.634  0.00  0.00    -0.305 OA
BRANCH   4   5
HETATM    5  C   UNK N   1      27.809  21.867  -8.088  0.00  0.00     0.296 C 
HETATM    6  O   UNK N   1      28.471  20.954  -8.564  0.00  0.00    -0.262 OA
BRANCH   5   7
HETATM    7  C   UNK N   1      28.461  22.912  -7.181  0.00  0.00     0.169 C 
HETATM    8  C   UNK N   1      29.753  22.536  -6.413  0.00  0.00     0.004 C 
HETATM    9  C   UNK N   1      29.766  21.167  -5.693  0.00  0.00     0.048 C 
HETATM   10  C   UNK N   1      30.869  22.514  -7.425  0.00  0.00     0.005 C 
HETATM   11  C   UNK N   1      29.968  23.733  -5.444  0.00  0.00     0.019 C 
HETATM   12  C   UNK N   1      31.154  20.618  -5.291  0.00  0.00     0.160 C 
HETATM   13  C   UNK N   1      32.223  21.725  -5.275  0.00  0.00     0.147 C 
HETATM   14  C   UNK N   1      33.616  21.329  -4.714  0.00  0.00     0.039 C 
HETATM   15  C   UNK N   1      32.285  22.313  -6.747  0.00  0.00     0.037 C 
HETATM   16  F   UNK N   1      31.834  22.701  -4.376  0.00  0.00    -0.238 F 
HETATM   17  C   UNK N   1      34.161  19.980  -5.123  0.00  0.00    -0.006 C 
HETATM   18  C   UNK N   1      34.622  22.425  -5.062  0.00  0.00    -0.027 C 
HETATM   19  C   UNK N   1      33.533  21.251  -3.173  0.00  0.00     0.028 C 
HETATM   20  C   UNK N   1      35.449  19.706  -4.828  0.00  0.00     0.052 C 
HETATM   21  C   UNK N   1      36.352  20.832  -4.460  0.00  0.00     0.172 C 
HETATM   22  C   UNK N   1      35.929  22.202  -4.832  0.00  0.00     0.061 C 
HETATM   23  O   UNK N   1      37.468  20.624  -4.017  0.00  0.00    -0.289 OA
HETATM   24  C   UNK N   1      34.136  23.730  -5.662  0.00  0.00     0.201 C 
HETATM   25  C   UNK N   1      33.249  23.504  -6.897  0.00  0.00     0.050 C 
HETATM   26  F   UNK N   1      35.177  24.582  -5.986  0.00  0.00    -0.245 F 
HETATM   27  C   UNK N   1      30.543  23.655  -8.406  0.00  0.00     0.013 C 
HETATM   28  C   UNK N   1      29.097  24.067  -8.022  0.00  0.00     0.028 C 
HETATM   29  C   UNK N   1      28.271  24.737  -9.112  0.00  0.00     0.014 C 
BRANCH  12  30
HETATM   30  O   UNK N   1      31.049  19.953  -4.071  0.00  0.00    -0.392 OA
HETATM   31  H   UNK N   1      31.464  20.323  -3.277  0.00  0.00     0.210 HD
ENDBRANCH  12  30
BRANCH   7  32
HETATM   32  O   UNK N   1      27.504  23.393  -6.265  0.00  0.00    -0.298 OA
BRANCH  32  33
HETATM   33  C   UNK N   1      26.774  24.557  -6.426  0.00  0.00     0.265 C 
HETATM   34  O   UNK N   1      25.690  24.484  -6.983  0.00  0.00    -0.265 OA
BRANCH  33  35
HETATM   35  C   UNK N   1      27.370  25.932  -6.072  0.00  0.00     0.102 A 
HETATM   36  C   UNK N   1      26.501  27.098  -5.552  0.00  0.00    -0.027 A 
HETATM   37  C   UNK N   1      27.346  26.278  -4.575  0.00  0.00    -0.027 A 
HETATM   38  C   UNK N   1      24.989  26.922  -5.584  0.00  0.00     0.016 C 
HETATM   39  C   UNK N   1      27.048  28.461  -5.960  0.00  0.00     0.016 C 
HETATM   40  C   UNK N   1      28.658  26.884  -4.104  0.00  0.00     0.016 C 
HETATM   41  C   UNK N   1      26.602  25.355  -3.619  0.00  0.00     0.016 C 
ENDBRANCH  33  35
ENDBRANCH  32  33
ENDBRANCH   7  32
ENDBRANCH   5   7
ENDBRANCH   4   5
ENDBRANCH   1   4
TORSDOF 7
ENDMDL
MODEL 9
REMARK VINA RESULT:      -7.1      8.037     12.220
REMARK  7 active torsions:
REMARK  status: ('A' for Active; 'I' for Inactive)
REMARK    1  A    between atoms: C_16  and  O_37 
REMARK    2  A    between atoms: C_19  and  C_20 
REMARK    3  A    between atoms: C_19  and  O_26 
REMARK    4  A    between atoms: C_20  and  O_22 
REMARK    5  A    between atoms: O_22  and  C_23 
REMARK    6  A    between atoms: O_26  and  C_27 
REMARK    7  A    between atoms: C_27  and  C_29 
ROOT
HETATM    1  C   UNK N   1      34.502  14.175   2.184  0.00  0.00     0.302 C 
HETATM    2  C   UNK N   1      35.295  13.517   3.235  0.00  0.00     0.085 C 
HETATM    3  N   UNK N   1      35.940  13.004   4.052  0.00  0.00    -0.195 NA
ENDROOT
BRANCH   1   4
HETATM    4  O   UNK N   1      33.723  15.141   2.771  0.00  0.00    -0.305 OA
BRANCH   4   5
HETATM    5  C   UNK N   1      32.449  14.882   3.145  0.00  0.00     0.296 C 
HETATM    6  O   UNK N   1      31.849  13.958   2.614  0.00  0.00    -0.262 OA
BRANCH   5   7
HETATM    7  C   UNK N   1      31.954  15.478   4.465  0.00  0.00     0.169 C 
HETATM    8  C   UNK N   1      32.547  14.947   5.794  0.00  0.00     0.004 C 
HETATM    9  C   UNK N   1      32.660  13.412   5.946  0.00  0.00     0.048 C 
HETATM   10  C   UNK N   1      33.942  15.506   5.902  0.00  0.00     0.005 C 
HETATM   11  C   UNK N   1      31.650  15.600   6.884  0.00  0.00     0.019 C 
HETATM   12  C   UNK N   1      33.605  12.902   7.058  0.00  0.00     0.160 C 
HETATM   13  C   UNK N   1      33.912  13.998   8.094  0.00  0.00     0.147 C 
HETATM   14  C   UNK N   1      34.706  13.553   9.352  0.00  0.00     0.039 C 
HETATM   15  C   UNK N   1      34.606  15.185   7.303  0.00  0.00     0.037 C 
HETATM   16  F   UNK N   1      32.721  14.418   8.657  0.00  0.00    -0.238 F 
HETATM   17  C   UNK N   1      35.859  12.600   9.133  0.00  0.00    -0.006 C 
HETATM   18  C   UNK N   1      35.191  14.794  10.099  0.00  0.00    -0.027 C 
HETATM   19  C   UNK N   1      33.757  12.785  10.299  0.00  0.00     0.028 C 
HETATM   20  C   UNK N   1      36.692  12.371  10.171  0.00  0.00     0.052 C 
HETATM   21  C   UNK N   1      36.663  13.307  11.328  0.00  0.00     0.172 C 
HETATM   22  C   UNK N   1      36.055  14.641  11.119  0.00  0.00     0.061 C 
HETATM   23  O   UNK N   1      37.261  13.051  12.359  0.00  0.00    -0.289 OA
HETATM   24  C   UNK N   1      34.699  16.166   9.677  0.00  0.00     0.201 C 
HETATM   25  C   UNK N   1      34.905  16.417   8.175  0.00  0.00     0.050 C 
HETATM   26  F   UNK N   1      35.289  17.185  10.405  0.00  0.00    -0.245 F 
HETATM   27  C   UNK N   1      33.854  16.920   5.300  0.00  0.00     0.013 C 
HETATM   28  C   UNK N   1      32.451  16.951   4.637  0.00  0.00     0.028 C 
HETATM   29  C   UNK N   1      32.263  17.939   3.494  0.00  0.00     0.014 C 
BRANCH  12  30
HETATM   30  O   UNK N   1      33.063  11.754   7.632  0.00  0.00    -0.392 OA
HETATM   31  H   UNK N   1      32.113  11.706   7.822  0.00  0.00     0.210 HD
ENDBRANCH  12  30
BRANCH   7  32
HETATM   32  O   UNK N   1      30.549  15.387   4.517  0.00  0.00    -0.298 OA
BRANCH  32  33
HETATM   33  C   UNK N   1      29.679  16.323   3.988  0.00  0.00     0.265 C 
HETATM   34  O   UNK N   1      29.343  16.200   2.820  0.00  0.00    -0.265 OA
BRANCH  33  35
HETATM   35  C   UNK N   1      29.270  17.577   4.782  0.00  0.00     0.102 A 
HETATM   36  C   UNK N   1      27.825  18.122   4.776  0.00  0.00    -0.027 A 
HETATM   37  C   UNK N   1      28.333  17.310   5.970  0.00  0.00    -0.027 A 
HETATM   38  C   UNK N   1      26.839  17.500   3.798  0.00  0.00     0.016 C 
HETATM   39  C   UNK N   1      27.772  19.636   4.946  0.00  0.00     0.016 C 
HETATM   40  C   UNK N   1      28.749  18.078   7.213  0.00  0.00     0.016 C 
HETATM   41  C   UNK N   1      27.758  15.912   6.153  0.00  0.00     0.016 C 
ENDBRANCH  33  35
ENDBRANCH  32  33
ENDBRANCH   7  32
ENDBRANCH   5   7
ENDBRANCH   4   5
ENDBRANCH   1   4
TORSDOF 7
ENDMDL
