MODEL 1
REMARK VINA RESULT:      -6.1      0.000      0.000
REMARK  5 active torsions:
REMARK  status: ('A' for Active; 'I' for Inactive)
REMARK    1  A    between atoms: C_3  and  C_14 
REMARK    2  A    between atoms: C_6  and  C_7 
REMARK    3  A    between atoms: C_7  and  N_8 
REMARK    4  A    between atoms: C_15  and  C_16 
REMARK    5  A    between atoms: C_16  and  O_18 
ROOT
HETATM    1  C   UNK N   1      27.595  19.976   4.121  0.00  0.00     0.009 A 
HETATM    2  C   UNK N   1      26.524  20.559   3.422  0.00  0.00     0.012 A 
HETATM    3  C   UNK N   1      25.279  19.914   3.386  0.00  0.00    -0.036 A 
HETATM    4  C   UNK N   1      25.120  18.694   4.049  0.00  0.00     0.012 A 
HETATM    5  C   UNK N   1      26.180  18.123   4.738  0.00  0.00     0.009 A 
HETATM    6  C   UNK N   1      27.428  18.751   4.784  0.00  0.00    -0.040 A 
ENDROOT
BRANCH   6   7
HETATM    7  C   UNK N   1      28.601  18.150   5.528  0.00  0.00     0.167 C 
BRANCH   7   8
HETATM    8  N   UNK N   1      28.505  18.074   6.995  0.00  0.00    -0.347 N 
HETATM    9  C   UNK N   1      28.952  17.126   7.843  0.00  0.00     0.109 A 
HETATM   10  C   UNK N   1      28.621  17.507   9.124  0.00  0.00     0.106 A 
HETATM   11  N   UNK N   1      27.972  18.687   9.062  0.00  0.00    -0.361 N 
HETATM   12  C   UNK N   1      27.915  19.010   7.755  0.00  0.00     0.182 A 
ATOM     13  HN  UNK N   1      27.600  19.226   9.845  1.00  0.00     0.166 HD
ENDBRANCH   7   8
ENDBRANCH   6   7
BRANCH   3  14
HETATM   14  C   UNK N   1      24.142  20.507   2.659  0.00  0.00     0.018 C 
HETATM   15  C   UNK N   1      22.890  20.144   2.970  0.00  0.00     0.082 C 
BRANCH  15  16
HETATM   16  C   UNK N   1      21.697  20.679   2.303  0.00  0.00     0.165 C 
HETATM   17  O   UNK N   1      21.561  20.589   1.094  0.00  0.00    -0.647 OA
BRANCH  16  18
HETATM   18  O   UNK N   1      20.744  21.276   3.042  0.00  0.00    -0.773 OA
HETATM   19  H   UNK N   1      20.346  20.816   3.754  0.00  0.00     0.167 HD
ENDBRANCH  16  18
ENDBRANCH  15  16
ENDBRANCH   3  14
TORSDOF 5
ENDMDL
MODEL 2
REMARK VINA RESULT:      -5.8     12.571     16.155
REMARK  5 active torsions:
REMARK  status: ('A' for Active; 'I' for Inactive)
REMARK    1  A    between atoms: C_3  and  C_14 
REMARK    2  A    between atoms: C_6  and  C_7 
REMARK    3  A    between atoms: C_7  and  N_8 
REMARK    4  A    between atoms: C_15  and  C_16 
REMARK    5  A    between atoms: C_16  and  O_18 
ROOT
HETATM    1  C   UNK N   1      36.724  14.051  14.481  0.00  0.00     0.009 A 
HETATM    2  C   UNK N   1      36.366  13.667  15.785  0.00  0.00     0.012 A 
HETATM    3  C   UNK N   1      35.358  12.713  15.981  0.00  0.00    -0.036 A 
HETATM    4  C   UNK N   1      34.719  12.152  14.870  0.00  0.00     0.012 A 
HETATM    5  C   UNK N   1      35.076  12.534  13.586  0.00  0.00     0.009 A 
HETATM    6  C   UNK N   1      36.079  13.484  13.371  0.00  0.00    -0.040 A 
ENDROOT
BRANCH   6   7
HETATM    7  C   UNK N   1      36.487  13.918  11.980  0.00  0.00     0.167 C 
BRANCH   7   8
HETATM    8  N   UNK N   1      35.590  14.841  11.267  0.00  0.00    -0.347 N 
HETATM    9  C   UNK N   1      34.527  14.579  10.480  0.00  0.00     0.109 A 
HETATM   10  C   UNK N   1      34.012  15.779  10.044  0.00  0.00     0.106 A 
HETATM   11  N   UNK N   1      34.757  16.775  10.563  0.00  0.00    -0.361 N 
HETATM   12  C   UNK N   1      35.710  16.178  11.303  0.00  0.00     0.182 A 
ATOM     13  HN  UNK N   1      34.625  17.778  10.423  1.00  0.00     0.166 HD
ENDBRANCH   7   8
ENDBRANCH   6   7
BRANCH   3  14
HETATM   14  C   UNK N   1      34.966  12.296  17.339  0.00  0.00     0.018 C 
HETATM   15  C   UNK N   1      35.320  13.045  18.394  0.00  0.00     0.082 C 
BRANCH  15  16
HETATM   16  C   UNK N   1      34.976  12.712  19.781  0.00  0.00     0.165 C 
HETATM   17  O   UNK N   1      35.088  11.571  20.199  0.00  0.00    -0.647 OA
BRANCH  16  18
HETATM   18  O   UNK N   1      34.531  13.684  20.599  0.00  0.00    -0.773 OA
HETATM   19  H   UNK N   1      33.755  14.161  20.381  0.00  0.00     0.167 HD
ENDBRANCH  16  18
ENDBRANCH  15  16
ENDBRANCH   3  14
TORSDOF 5
ENDMDL
MODEL 3
REMARK VINA RESULT:      -5.8     15.125     18.088
REMARK  5 active torsions:
REMARK  status: ('A' for Active; 'I' for Inactive)
REMARK    1  A    between atoms: C_3  and  C_14 
REMARK    2  A    between atoms: C_6  and  C_7 
REMARK    3  A    between atoms: C_7  and  N_8 
REMARK    4  A    between atoms: C_15  and  C_16 
REMARK    5  A    between atoms: C_16  and  O_18 
ROOT
HETATM    1  C   UNK N   1      35.422  10.622  18.208  0.00  0.00     0.009 A 
HETATM    2  C   UNK N   1      35.463  11.395  17.035  0.00  0.00     0.012 A 
HETATM    3  C   UNK N   1      35.372  12.792  17.114  0.00  0.00    -0.036 A 
HETATM    4  C   UNK N   1      35.241  13.401  18.365  0.00  0.00     0.012 A 
HETATM    5  C   UNK N   1      35.200  12.634  19.520  0.00  0.00     0.009 A 
HETATM    6  C   UNK N   1      35.290  11.240  19.461  0.00  0.00    -0.040 A 
ENDROOT
BRANCH   6   7
HETATM    7  C   UNK N   1      35.248  10.381  20.706  0.00  0.00     0.167 C 
BRANCH   7   8
HETATM    8  N   UNK N   1      33.933   9.889  21.146  0.00  0.00    -0.347 N 
HETATM    9  C   UNK N   1      33.233   8.810  20.741  0.00  0.00     0.109 A 
HETATM   10  C   UNK N   1      32.054   8.773  21.451  0.00  0.00     0.106 A 
HETATM   11  N   UNK N   1      32.030   9.828  22.290  0.00  0.00    -0.361 N 
HETATM   12  C   UNK N   1      33.184  10.491  22.084  0.00  0.00     0.182 A 
ATOM     13  HN  UNK N   1      31.288  10.075  22.946  1.00  0.00     0.166 HD
ENDBRANCH   7   8
ENDBRANCH   6   7
BRANCH   3  14
HETATM   14  C   UNK N   1      35.414  13.621  15.896  0.00  0.00     0.018 C 
HETATM   15  C   UNK N   1      35.608  13.043  14.702  0.00  0.00     0.082 C 
BRANCH  15  16
HETATM   16  C   UNK N   1      35.664  13.785  13.437  0.00  0.00     0.165 C 
HETATM   17  O   UNK N   1      34.715  13.793  12.671  0.00  0.00    -0.647 OA
BRANCH  16  18
HETATM   18  O   UNK N   1      36.783  14.464  13.124  0.00  0.00    -0.773 OA
HETATM   19  H   UNK N   1      36.730  15.241  12.604  0.00  0.00     0.167 HD
ENDBRANCH  16  18
ENDBRANCH  15  16
ENDBRANCH   3  14
TORSDOF 5
ENDMDL
MODEL 4
REMARK VINA RESULT:      -5.7      6.809      9.285
REMARK  5 active torsions:
REMARK  status: ('A' for Active; 'I' for Inactive)
REMARK    1  A    between atoms: C_3  and  C_14 
REMARK    2  A    between atoms: C_6  and  C_7 
REMARK    3  A    between atoms: C_7  and  N_8 
REMARK    4  A    between atoms: C_15  and  C_16 
REMARK    5  A    between atoms: C_16  and  O_18 
ROOT
HETATM    1  C   UNK N   1      33.255  15.014   8.886  0.00  0.00     0.009 A 
HETATM    2  C   UNK N   1      32.042  15.660   8.588  0.00  0.00     0.012 A 
HETATM    3  C   UNK N   1      32.027  17.040   8.345  0.00  0.00    -0.036 A 
HETATM    4  C   UNK N   1      33.224  17.760   8.402  0.00  0.00     0.012 A 
HETATM    5  C   UNK N   1      34.418  17.118   8.696  0.00  0.00     0.009 A 
HETATM    6  C   UNK N   1      34.452  15.742   8.942  0.00  0.00    -0.040 A 
ENDROOT
BRANCH   6   7
HETATM    7  C   UNK N   1      35.742  15.018   9.265  0.00  0.00     0.167 C 
BRANCH   7   8
HETATM    8  N   UNK N   1      36.017  14.725  10.680  0.00  0.00    -0.347 N 
HETATM    9  C   UNK N   1      35.470  15.252  11.795  0.00  0.00     0.109 A 
HETATM   10  C   UNK N   1      36.060  14.651  12.885  0.00  0.00     0.106 A 
HETATM   11  N   UNK N   1      36.967  13.758  12.440  0.00  0.00    -0.361 N 
HETATM   12  C   UNK N   1      36.921  13.822  11.095  0.00  0.00     0.182 A 
ATOM     13  HN  UNK N   1      37.565  13.156  13.006  1.00  0.00     0.166 HD
ENDBRANCH   7   8
ENDBRANCH   6   7
BRANCH   3  14
HETATM   14  C   UNK N   1      30.767  17.738   8.031  0.00  0.00     0.018 C 
HETATM   15  C   UNK N   1      29.761  17.729   8.917  0.00  0.00     0.082 C 
BRANCH  15  16
HETATM   16  C   UNK N   1      28.472  18.394   8.693  0.00  0.00     0.165 C 
HETATM   17  O   UNK N   1      28.349  19.251   7.835  0.00  0.00    -0.647 OA
BRANCH  16  18
HETATM   18  O   UNK N   1      27.415  18.048   9.451  0.00  0.00    -0.773 OA
HETATM   19  H   UNK N   1      26.742  18.674   9.631  0.00  0.00     0.167 HD
ENDBRANCH  16  18
ENDBRANCH  15  16
ENDBRANCH   3  14
TORSDOF 5
ENDMDL
MODEL 5
REMARK VINA RESULT:      -5.7      6.016      8.598
REMARK  5 active torsions:
REMARK  status: ('A' for Active; 'I' for Inactive)
REMARK    1  A    between atoms: C_3  and  C_14 
REMARK    2  A    between atoms: C_6  and  C_7 
REMARK    3  A    between atoms: C_7  and  N_8 
REMARK    4  A    between atoms: C_15  and  C_16 
REMARK    5  A    between atoms: C_16  and  O_18 
ROOT
HETATM    1  C   UNK N   1      28.466  17.946   7.570  0.00  0.00     0.009 A 
HETATM    2  C   UNK N   1      29.660  18.068   8.303  0.00  0.00     0.012 A 
HETATM    3  C   UNK N   1      30.874  17.659   7.735  0.00  0.00    -0.036 A 
HETATM    4  C   UNK N   1      30.883  17.132   6.440  0.00  0.00     0.012 A 
HETATM    5  C   UNK N   1      29.703  17.013   5.721  0.00  0.00     0.009 A 
HETATM    6  C   UNK N   1      28.482  17.416   6.271  0.00  0.00    -0.040 A 
ENDROOT
BRANCH   6   7
HETATM    7  C   UNK N   1      27.181  17.296   5.507  0.00  0.00     0.167 C 
BRANCH   7   8
HETATM    8  N   UNK N   1      26.672  18.507   4.843  0.00  0.00    -0.347 N 
HETATM    9  C   UNK N   1      25.432  19.037   4.842  0.00  0.00     0.109 A 
HETATM   10  C   UNK N   1      25.456  20.178   4.073  0.00  0.00     0.106 A 
HETATM   11  N   UNK N   1      26.708  20.348   3.602  0.00  0.00    -0.361 N 
HETATM   12  C   UNK N   1      27.428  19.318   4.085  0.00  0.00     0.182 A 
ATOM     13  HN  UNK N   1      27.041  21.103   3.002  1.00  0.00     0.166 HD
ENDBRANCH   7   8
ENDBRANCH   6   7
BRANCH   3  14
HETATM   14  C   UNK N   1      32.137  17.779   8.486  0.00  0.00     0.018 C 
HETATM   15  C   UNK N   1      33.289  17.970   7.827  0.00  0.00     0.082 C 
BRANCH  15  16
HETATM   16  C   UNK N   1      34.593  18.101   8.488  0.00  0.00     0.165 C 
HETATM   17  O   UNK N   1      35.196  19.161   8.482  0.00  0.00    -0.647 OA
BRANCH  16  18
HETATM   18  O   UNK N   1      35.125  17.030   9.107  0.00  0.00    -0.773 OA
HETATM   19  H   UNK N   1      34.789  16.173   8.933  0.00  0.00     0.167 HD
ENDBRANCH  16  18
ENDBRANCH  15  16
ENDBRANCH   3  14
TORSDOF 5
ENDMDL
MODEL 6
REMARK VINA RESULT:      -5.7     14.871     16.796
REMARK  5 active torsions:
REMARK  status: ('A' for Active; 'I' for Inactive)
REMARK    1  A    between atoms: C_3  and  C_14 
REMARK    2  A    between atoms: C_6  and  C_7 
REMARK    3  A    between atoms: C_7  and  N_8 
REMARK    4  A    between atoms: C_15  and  C_16 
REMARK    5  A    between atoms: C_16  and  O_18 
ROOT
HETATM    1  C   UNK N   1      34.516  11.989  13.963  0.00  0.00     0.009 A 
HETATM    2  C   UNK N   1      34.418  12.066  15.364  0.00  0.00     0.012 A 
HETATM    3  C   UNK N   1      35.233  12.958  16.074  0.00  0.00    -0.036 A 
HETATM    4  C   UNK N   1      36.136  13.766  15.376  0.00  0.00     0.012 A 
HETATM    5  C   UNK N   1      36.229  13.687  13.995  0.00  0.00     0.009 A 
HETATM    6  C   UNK N   1      35.425  12.803  13.270  0.00  0.00    -0.040 A 
ENDROOT
BRANCH   6   7
HETATM    7  C   UNK N   1      35.506  12.698  11.762  0.00  0.00     0.167 C 
BRANCH   7   8
HETATM    8  N   UNK N   1      36.769  13.101  11.122  0.00  0.00    -0.347 N 
HETATM    9  C   UNK N   1      37.937  12.435  11.018  0.00  0.00     0.109 A 
HETATM   10  C   UNK N   1      38.822  13.232  10.328  0.00  0.00     0.106 A 
HETATM   11  N   UNK N   1      38.200  14.385  10.011  0.00  0.00    -0.361 N 
HETATM   12  C   UNK N   1      36.951  14.280  10.505  0.00  0.00     0.182 A 
ATOM     13  HN  UNK N   1      38.594  15.175   9.500  1.00  0.00     0.166 HD
ENDBRANCH   7   8
ENDBRANCH   6   7
BRANCH   3  14
HETATM   14  C   UNK N   1      35.147  13.054  17.542  0.00  0.00     0.018 C 
HETATM   15  C   UNK N   1      35.349  11.963  18.294  0.00  0.00     0.082 C 
BRANCH  15  16
HETATM   16  C   UNK N   1      35.285  11.961  19.761  0.00  0.00     0.165 C 
HETATM   17  O   UNK N   1      35.516  10.946  20.398  0.00  0.00    -0.647 OA
BRANCH  16  18
HETATM   18  O   UNK N   1      34.965  13.099  20.405  0.00  0.00    -0.773 OA
HETATM   19  H   UNK N   1      34.143  13.171  20.848  0.00  0.00     0.167 HD
ENDBRANCH  16  18
ENDBRANCH  15  16
ENDBRANCH   3  14
TORSDOF 5
ENDMDL
MODEL 7
REMARK VINA RESULT:      -5.5      6.627      9.344
REMARK  5 active torsions:
REMARK  status: ('A' for Active; 'I' for Inactive)
REMARK    1  A    between atoms: C_3  and  C_14 
REMARK    2  A    between atoms: C_6  and  C_7 
REMARK    3  A    between atoms: C_7  and  N_8 
REMARK    4  A    between atoms: C_15  and  C_16 
REMARK    5  A    between atoms: C_16  and  O_18 
ROOT
HETATM    1  C   UNK N   1      30.465  17.111   6.134  0.00  0.00     0.009 A 
HETATM    2  C   UNK N   1      31.781  17.094   6.629  0.00  0.00     0.012 A 
HETATM    3  C   UNK N   1      32.051  17.582   7.915  0.00  0.00    -0.036 A 
HETATM    4  C   UNK N   1      31.002  18.082   8.692  0.00  0.00     0.012 A 
HETATM    5  C   UNK N   1      29.706  18.097   8.200  0.00  0.00     0.009 A 
HETATM    6  C   UNK N   1      29.418  17.615   6.920  0.00  0.00    -0.040 A 
ENDROOT
BRANCH   6   7
HETATM    7  C   UNK N   1      28.011  17.620   6.359  0.00  0.00     0.167 C 
BRANCH   7   8
HETATM    8  N   UNK N   1      27.576  18.824   5.634  0.00  0.00    -0.347 N 
HETATM    9  C   UNK N   1      27.276  20.053   6.100  0.00  0.00     0.109 A 
HETATM   10  C   UNK N   1      26.920  20.841   5.028  0.00  0.00     0.106 A 
HETATM   11  N   UNK N   1      27.002  20.097   3.907  0.00  0.00    -0.361 N 
HETATM   12  C   UNK N   1      27.404  18.874   4.303  0.00  0.00     0.182 A 
ATOM     13  HN  UNK N   1      26.801  20.399   2.953  1.00  0.00     0.166 HD
ENDBRANCH   7   8
ENDBRANCH   6   7
BRANCH   3  14
HETATM   14  C   UNK N   1      33.423  17.573   8.453  0.00  0.00     0.018 C 
HETATM   15  C   UNK N   1      33.819  16.572   9.252  0.00  0.00     0.082 C 
BRANCH  15  16
HETATM   16  C   UNK N   1      35.163  16.478   9.834  0.00  0.00     0.165 C 
HETATM   17  O   UNK N   1      35.646  17.411  10.454  0.00  0.00    -0.647 OA
BRANCH  16  18
HETATM   18  O   UNK N   1      35.868  15.341   9.678  0.00  0.00    -0.773 OA
HETATM   19  H   UNK N   1      36.009  14.773  10.409  0.00  0.00     0.167 HD
ENDBRANCH  16  18
ENDBRANCH  15  16
ENDBRANCH   3  14
TORSDOF 5
ENDMDL
MODEL 8
REMARK VINA RESULT:      -5.4      2.447      3.319
REMARK  5 active torsions:
REMARK  status: ('A' for Active; 'I' for Inactive)
REMARK    1  A    between atoms: C_3  and  C_14 
REMARK    2  A    between atoms: C_6  and  C_7 
REMARK    3  A    between atoms: C_7  and  N_8 
REMARK    4  A    between atoms: C_15  and  C_16 
REMARK    5  A    between atoms: C_16  and  O_18 
ROOT
HETATM    1  C   UNK N   1      28.658  18.194   6.548  0.00  0.00     0.009 A 
HETATM    2  C   UNK N   1      27.770  19.081   5.915  0.00  0.00     0.012 A 
HETATM    3  C   UNK N   1      27.474  18.921   4.554  0.00  0.00    -0.036 A 
HETATM    4  C   UNK N   1      28.070  17.876   3.841  0.00  0.00     0.012 A 
HETATM    5  C   UNK N   1      28.945  17.004   4.470  0.00  0.00     0.009 A 
HETATM    6  C   UNK N   1      29.252  17.148   5.826  0.00  0.00    -0.040 A 
ENDROOT
BRANCH   6   7
HETATM    7  C   UNK N   1      30.204  16.209   6.536  0.00  0.00     0.167 C 
BRANCH   7   8
HETATM    8  N   UNK N   1      31.369  16.807   7.208  0.00  0.00    -0.347 N 
HETATM    9  C   UNK N   1      32.468  17.385   6.683  0.00  0.00     0.109 A 
HETATM   10  C   UNK N   1      33.274  17.792   7.722  0.00  0.00     0.106 A 
HETATM   11  N   UNK N   1      32.671  17.465   8.882  0.00  0.00    -0.361 N 
HETATM   12  C   UNK N   1      31.513  16.867   8.542  0.00  0.00     0.182 A 
ATOM     13  HN  UNK N   1      33.020  17.636   9.826  1.00  0.00     0.166 HD
ENDBRANCH   7   8
ENDBRANCH   6   7
BRANCH   3  14
HETATM   14  C   UNK N   1      26.546  19.840   3.870  0.00  0.00     0.018 C 
HETATM   15  C   UNK N   1      25.276  19.466   3.656  0.00  0.00     0.082 C 
BRANCH  15  16
HETATM   16  C   UNK N   1      24.281  20.311   2.985  0.00  0.00     0.165 C 
HETATM   17  O   UNK N   1      24.596  21.032   2.053  0.00  0.00    -0.647 OA
BRANCH  16  18
HETATM   18  O   UNK N   1      23.004  20.285   3.410  0.00  0.00    -0.773 OA
HETATM   19  H   UNK N   1      22.532  21.085   3.527  0.00  0.00     0.167 HD
ENDBRANCH  16  18
ENDBRANCH  15  16
ENDBRANCH   3  14
TORSDOF 5
ENDMDL
MODEL 9
REMARK VINA RESULT:      -5.3     15.279     18.361
REMARK  5 active torsions:
REMARK  status: ('A' for Active; 'I' for Inactive)
REMARK    1  A    between atoms: C_3  and  C_14 
REMARK    2  A    between atoms: C_6  and  C_7 
REMARK    3  A    between atoms: C_7  and  N_8 
REMARK    4  A    between atoms: C_15  and  C_16 
REMARK    5  A    between atoms: C_16  and  O_18 
ROOT
HETATM    1  C   UNK N   1      34.934  12.796  16.050  0.00  0.00     0.009 A 
HETATM    2  C   UNK N   1      35.180  12.663  17.427  0.00  0.00     0.012 A 
HETATM    3  C   UNK N   1      35.242  11.388  18.007  0.00  0.00    -0.036 A 
HETATM    4  C   UNK N   1      35.058  10.260  17.202  0.00  0.00     0.012 A 
HETATM    5  C   UNK N   1      34.815  10.396  15.843  0.00  0.00     0.009 A 
HETATM    6  C   UNK N   1      34.750  11.659  15.248  0.00  0.00    -0.040 A 
ENDROOT
BRANCH   6   7
HETATM    7  C   UNK N   1      34.487  11.836  13.768  0.00  0.00     0.167 C 
BRANCH   7   8
HETATM    8  N   UNK N   1      35.390  12.726  13.021  0.00  0.00    -0.347 N 
HETATM    9  C   UNK N   1      35.126  13.877  12.370  0.00  0.00     0.109 A 
HETATM   10  C   UNK N   1      36.303  14.339  11.826  0.00  0.00     0.106 A 
HETATM   11  N   UNK N   1      37.287  13.474  12.143  0.00  0.00    -0.361 N 
HETATM   12  C   UNK N   1      36.705  12.502  12.870  0.00  0.00     0.182 A 
ATOM     13  HN  UNK N   1      38.272  13.543  11.885  1.00  0.00     0.166 HD
ENDBRANCH   7   8
ENDBRANCH   6   7
BRANCH   3  14
HETATM   14  C   UNK N   1      35.499  11.226  19.449  0.00  0.00     0.018 C 
HETATM   15  C   UNK N   1      36.559  10.516  19.862  0.00  0.00     0.082 C 
BRANCH  15  16
HETATM   16  C   UNK N   1      36.895  10.300  21.274  0.00  0.00     0.165 C 
HETATM   17  O   UNK N   1      38.055  10.294  21.649  0.00  0.00    -0.647 OA
BRANCH  16  18
HETATM   18  O   UNK N   1      35.902  10.106  22.162  0.00  0.00    -0.773 OA
HETATM   19  H   UNK N   1      35.296   9.401  22.042  0.00  0.00     0.167 HD
ENDBRANCH  16  18
ENDBRANCH  15  16
ENDBRANCH   3  14
TORSDOF 5
ENDMDL
