MODEL 1
REMARK VINA RESULT:      -7.7      0.000      0.000
REMARK  8 active torsions:
REMARK  status: ('A' for Active; 'I' for Inactive)
REMARK    1  A    between atoms: C_27  and  C_17 
REMARK    2  A    between atoms: N_31  and  C_18 
REMARK    3  A    between atoms: O_38  and  C_19 
REMARK    4  A    between atoms: S_39  and  C_20 
REMARK    5  A    between atoms: S_39  and  C_21 
REMARK    6  A    between atoms: C_26  and  C_23 
REMARK    7  A    between atoms: N_31  and  C_25 
REMARK    8  A    between atoms: O_34  and  C_26 
REMARK       I    between atoms: N_33  and  C_27 
ROOT
HETATM    1  C   UNK N   1      25.566  20.617   2.832  0.00  0.00     0.050 C 
HETATM    2  C   UNK N   1      25.935  18.592   4.220  0.00  0.00     0.032 A 
HETATM    3  C   UNK N   1      24.116  17.257   4.997  0.00  0.00     0.039 A 
HETATM    4  C   UNK N   1      21.417  19.505   2.899  0.00  0.00     0.106 A 
HETATM    5  C   UNK N   1      25.029  19.468   3.606  0.00  0.00    -0.033 A 
HETATM    6  C   UNK N   1      25.431  17.505   4.924  0.00  0.00     0.061 A 
HETATM    7  C   UNK N   1      23.212  18.017   4.331  0.00  0.00     0.020 A 
HETATM    8  C   UNK N   1      20.990  18.308   3.493  0.00  0.00     0.057 A 
HETATM    9  C   UNK N   1      23.641  19.161   3.651  0.00  0.00     0.050 A 
HETATM   10  C   UNK N   1      21.883  17.555   4.272  0.00  0.00     0.061 A 
HETATM   11  N   UNK N   1      22.718  19.915   2.987  0.00  0.00    -0.364 N 
HETATM   12  H   UNK N   1      22.993  20.763   2.567  0.00  0.00     0.165 HD
ENDROOT
BRANCH   6  13
HETATM   13  S   UNK N   1      26.380  16.236   5.547  0.00  0.00     0.186 S 
HETATM   14  O   UNK N   1      27.373  16.872   6.530  0.00  0.00    -0.222 OA
HETATM   15  O   UNK N   1      25.477  15.558   6.600  0.00  0.00    -0.222 OA
BRANCH  13  16
HETATM   16  C   UNK N   1      27.130  14.895   4.653  0.00  0.00     0.160 C 
HETATM   17  C   UNK N   1      27.819  15.400   3.541  0.00  0.00    -0.003 C 
HETATM   18  C   UNK N   1      27.147  15.557   2.332  0.00  0.00    -0.001 C 
HETATM   19  C   UNK N   1      25.857  15.053   2.225  0.00  0.00     0.016 C 
HETATM   20  C   UNK N   1      25.347  14.248   3.266  0.00  0.00     0.029 C 
HETATM   21  C   UNK N   1      26.073  14.069   4.423  0.00  0.00     0.014 C 
BRANCH  20  22
HETATM   22  C   UNK N   1      24.069  13.586   3.169  0.00  0.00     0.252 C 
HETATM   23  N   UNK N   1      23.958  12.349   2.640  0.00  0.00    -0.357 N 
HETATM   24  C   UNK N   1      22.717  11.645   2.677  0.00  0.00     0.152 C 
HETATM   25  C   UNK N   1      25.138  11.629   2.196  0.00  0.00     0.152 C 
HETATM   26  O   UNK N   1      23.071  14.137   3.663  0.00  0.00    -0.268 OA
ENDBRANCH  20  22
ENDBRANCH  13  16
ENDBRANCH   6  13
BRANCH  10  27
HETATM   27  N   UNK N   1      21.503  16.414   4.729  0.00  0.00    -0.355 N 
ATOM     28  HN  UNK N   1      21.388  15.647   4.067  1.00  0.00     0.166 HD
BRANCH  27  29
HETATM   29  C   UNK N   1      21.232  16.157   6.107  0.00  0.00     0.035 A 
HETATM   30  C   UNK N   1      21.137  14.808   6.493  0.00  0.00     0.029 A 
HETATM   31  C   UNK N   1      20.666  14.450   7.737  0.00  0.00     0.005 A 
HETATM   32  C   UNK N   1      20.255  15.438   8.616  0.00  0.00     0.037 A 
HETATM   33  C   UNK N   1      20.326  16.795   8.258  0.00  0.00     0.070 A 
HETATM   34  C   UNK N   1      20.793  17.156   6.980  0.00  0.00     0.066 A 
BRANCH  33  35
HETATM   35  O   UNK N   1      19.947  17.756   9.131  0.00  0.00    -0.356 OA
HETATM   36  C   UNK N   1      18.631  17.938   9.500  0.00  0.00     0.210 C 
ENDBRANCH  33  35
ENDBRANCH  27  29
ENDBRANCH  10  27
BRANCH   8  37
HETATM   37  C   UNK N   1      19.713  17.669   3.044  0.00  0.00     0.147 C 
HETATM   38  N   UNK N   1      19.276  17.833   1.849  0.00  0.00    -0.379 N 
HETATM   39  H   UNK N   1      18.427  17.442   1.541  0.00  0.00     0.158 HD
ATOM     40  HN  UNK N   1      19.829  18.388   1.196  1.00  0.00     0.158 HD
BRANCH  37  41
HETATM   41  O   UNK N   1      18.903  17.095   3.950  0.00  0.00    -0.346 OA
HETATM   42  H   UNK N   1      19.172  16.321   4.405  0.00  0.00     0.219 HD
ENDBRANCH  37  41
ENDBRANCH   8  37
TORSDOF 8
ENDMDL
MODEL 2
REMARK VINA RESULT:      -7.5      2.374      6.037
REMARK  8 active torsions:
REMARK  status: ('A' for Active; 'I' for Inactive)
REMARK    1  A    between atoms: C_27  and  C_17 
REMARK    2  A    between atoms: N_31  and  C_18 
REMARK    3  A    between atoms: O_38  and  C_19 
REMARK    4  A    between atoms: S_39  and  C_20 
REMARK    5  A    between atoms: S_39  and  C_21 
REMARK    6  A    between atoms: C_26  and  C_23 
REMARK    7  A    between atoms: N_31  and  C_25 
REMARK    8  A    between atoms: O_34  and  C_26 
REMARK       I    between atoms: N_33  and  C_27 
ROOT
HETATM    1  C   UNK N   1      20.285  13.871   1.338  0.00  0.00     0.050 C 
HETATM    2  C   UNK N   1      22.023  13.932   3.111  0.00  0.00     0.032 A 
HETATM    3  C   UNK N   1      22.907  15.993   3.929  0.00  0.00     0.039 A 
HETATM    4  C   UNK N   1      20.290  18.157   1.647  0.00  0.00     0.106 A 
HETATM    5  C   UNK N   1      21.212  14.638   2.211  0.00  0.00    -0.033 A 
HETATM    6  C   UNK N   1      22.872  14.653   3.941  0.00  0.00     0.061 A 
HETATM    7  C   UNK N   1      22.065  16.717   3.151  0.00  0.00     0.020 A 
HETATM    8  C   UNK N   1      21.055  18.819   2.619  0.00  0.00     0.057 A 
HETATM    9  C   UNK N   1      21.225  16.060   2.248  0.00  0.00     0.050 A 
HETATM   10  C   UNK N   1      22.006  18.107   3.367  0.00  0.00     0.061 A 
HETATM   11  N   UNK N   1      20.385  16.804   1.471  0.00  0.00    -0.364 N 
HETATM   12  H   UNK N   1      19.842  16.362   0.778  0.00  0.00     0.165 HD
ENDROOT
BRANCH   6  13
HETATM   13  S   UNK N   1      23.763  13.980   5.227  0.00  0.00     0.186 S 
HETATM   14  O   UNK N   1      24.727  12.959   4.607  0.00  0.00    -0.222 OA
HETATM   15  O   UNK N   1      24.818  15.052   5.572  0.00  0.00    -0.222 OA
BRANCH  13  16
HETATM   16  C   UNK N   1      23.152  13.414   6.799  0.00  0.00     0.160 C 
HETATM   17  C   UNK N   1      22.288  12.328   6.603  0.00  0.00    -0.003 C 
HETATM   18  C   UNK N   1      20.932  12.561   6.391  0.00  0.00    -0.001 C 
HETATM   19  C   UNK N   1      20.454  13.856   6.547  0.00  0.00     0.016 C 
HETATM   20  C   UNK N   1      21.308  14.842   7.085  0.00  0.00     0.029 C 
HETATM   21  C   UNK N   1      22.631  14.551   7.335  0.00  0.00     0.014 C 
BRANCH  20  22
HETATM   22  C   UNK N   1      20.845  16.173   7.394  0.00  0.00     0.252 C 
HETATM   23  N   UNK N   1      20.033  16.406   8.447  0.00  0.00    -0.357 N 
HETATM   24  C   UNK N   1      19.695  17.739   8.830  0.00  0.00     0.152 C 
HETATM   25  C   UNK N   1      19.641  15.322   9.330  0.00  0.00     0.152 C 
HETATM   26  O   UNK N   1      21.277  17.127   6.726  0.00  0.00    -0.268 OA
ENDBRANCH  20  22
ENDBRANCH  13  16
ENDBRANCH   6  13
BRANCH  10  27
HETATM   27  N   UNK N   1      22.629  18.710   4.318  0.00  0.00    -0.355 N 
ATOM     28  HN  UNK N   1      22.141  18.841   5.203  1.00  0.00     0.166 HD
BRANCH  27  29
HETATM   29  C   UNK N   1      23.963  19.206   4.208  0.00  0.00     0.035 A 
HETATM   30  C   UNK N   1      24.230  20.073   3.134  0.00  0.00     0.029 A 
HETATM   31  C   UNK N   1      25.520  20.432   2.805  0.00  0.00     0.005 A 
HETATM   32  C   UNK N   1      26.575  19.908   3.534  0.00  0.00     0.037 A 
HETATM   33  C   UNK N   1      26.344  19.030   4.606  0.00  0.00     0.070 A 
HETATM   34  C   UNK N   1      25.027  18.653   4.928  0.00  0.00     0.066 A 
BRANCH  33  35
HETATM   35  O   UNK N   1      27.378  18.543   5.329  0.00  0.00    -0.356 OA
HETATM   36  C   UNK N   1      28.639  18.381   4.794  0.00  0.00     0.210 C 
ENDBRANCH  33  35
ENDBRANCH  27  29
ENDBRANCH  10  27
BRANCH   8  37
HETATM   37  C   UNK N   1      20.646  20.182   3.086  0.00  0.00     0.147 C 
HETATM   38  N   UNK N   1      20.818  21.213   2.343  0.00  0.00    -0.379 N 
HETATM   39  H   UNK N   1      20.579  22.121   2.640  0.00  0.00     0.158 HD
ATOM     40  HN  UNK N   1      21.217  21.088   1.412  1.00  0.00     0.158 HD
BRANCH  37  41
HETATM   41  O   UNK N   1      20.294  20.367   4.369  0.00  0.00    -0.346 OA
HETATM   42  H   UNK N   1      20.687  19.855   5.048  0.00  0.00     0.219 HD
ENDBRANCH  37  41
ENDBRANCH   8  37
TORSDOF 8
ENDMDL
MODEL 3
REMARK VINA RESULT:      -7.3      5.031      7.718
REMARK  8 active torsions:
REMARK  status: ('A' for Active; 'I' for Inactive)
REMARK    1  A    between atoms: C_27  and  C_17 
REMARK    2  A    between atoms: N_31  and  C_18 
REMARK    3  A    between atoms: O_38  and  C_19 
REMARK    4  A    between atoms: S_39  and  C_20 
REMARK    5  A    between atoms: S_39  and  C_21 
REMARK    6  A    between atoms: C_26  and  C_23 
REMARK    7  A    between atoms: N_31  and  C_25 
REMARK    8  A    between atoms: O_34  and  C_26 
REMARK       I    between atoms: N_33  and  C_27 
ROOT
HETATM    1  C   UNK N   1      29.676  18.702   9.945  0.00  0.00     0.050 C 
HETATM    2  C   UNK N   1      30.742  17.097   8.378  0.00  0.00     0.032 A 
HETATM    3  C   UNK N   1      29.927  16.787   6.157  0.00  0.00     0.039 A 
HETATM    4  C   UNK N   1      27.178  19.782   6.620  0.00  0.00     0.106 A 
HETATM    5  C   UNK N   1      29.722  18.027   8.621  0.00  0.00    -0.033 A 
HETATM    6  C   UNK N   1      30.796  16.485   7.132  0.00  0.00     0.061 A 
HETATM    7  C   UNK N   1      28.993  17.756   6.314  0.00  0.00     0.020 A 
HETATM    8  C   UNK N   1      27.388  19.241   5.342  0.00  0.00     0.057 A 
HETATM    9  C   UNK N   1      28.841  18.372   7.559  0.00  0.00     0.050 A 
HETATM   10  C   UNK N   1      28.278  18.169   5.172  0.00  0.00     0.061 A 
HETATM   11  N   UNK N   1      27.894  19.344   7.700  0.00  0.00    -0.364 N 
HETATM   12  H   UNK N   1      27.725  19.736   8.589  0.00  0.00     0.165 HD
ENDROOT
BRANCH   6  13
HETATM   13  S   UNK N   1      32.077  15.500   6.597  0.00  0.00     0.186 S 
HETATM   14  O   UNK N   1      32.500  14.639   7.795  0.00  0.00    -0.222 OA
HETATM   15  O   UNK N   1      31.392  14.377   5.789  0.00  0.00    -0.222 OA
BRANCH  13  16
HETATM   16  C   UNK N   1      33.484  15.976   5.619  0.00  0.00     0.160 C 
HETATM   17  C   UNK N   1      33.325  17.298   5.181  0.00  0.00    -0.003 C 
HETATM   18  C   UNK N   1      32.666  17.547   3.980  0.00  0.00    -0.001 C 
HETATM   19  C   UNK N   1      32.332  16.466   3.175  0.00  0.00     0.016 C 
HETATM   20  C   UNK N   1      32.829  15.186   3.505  0.00  0.00     0.029 C 
HETATM   21  C   UNK N   1      33.529  14.996   4.676  0.00  0.00     0.014 C 
BRANCH  20  22
HETATM   22  C   UNK N   1      32.632  14.042   2.649  0.00  0.00     0.252 C 
HETATM   23  N   UNK N   1      33.615  13.595   1.839  0.00  0.00    -0.357 N 
HETATM   24  C   UNK N   1      33.462  12.381   1.103  0.00  0.00     0.152 C 
HETATM   25  C   UNK N   1      34.921  14.230   1.844  0.00  0.00     0.152 C 
HETATM   26  O   UNK N   1      31.566  13.411   2.731  0.00  0.00    -0.268 OA
ENDBRANCH  20  22
ENDBRANCH  13  16
ENDBRANCH   6  13
BRANCH  10  27
HETATM   27  N   UNK N   1      28.529  17.750   3.982  0.00  0.00    -0.355 N 
ATOM     28  HN  UNK N   1      29.171  18.295   3.407  1.00  0.00     0.166 HD
BRANCH  27  29
HETATM   29  C   UNK N   1      27.964  16.567   3.417  0.00  0.00     0.035 A 
HETATM   30  C   UNK N   1      28.841  15.712   2.728  0.00  0.00     0.029 A 
HETATM   31  C   UNK N   1      28.371  14.667   1.962  0.00  0.00     0.005 A 
HETATM   32  C   UNK N   1      27.004  14.470   1.852  0.00  0.00     0.037 A 
HETATM   33  C   UNK N   1      26.099  15.313   2.518  0.00  0.00     0.070 A 
HETATM   34  C   UNK N   1      26.583  16.389   3.286  0.00  0.00     0.066 A 
BRANCH  33  35
HETATM   35  O   UNK N   1      24.767  15.099   2.426  0.00  0.00    -0.356 OA
HETATM   36  C   UNK N   1      24.192  14.498   1.325  0.00  0.00     0.210 C 
ENDBRANCH  33  35
ENDBRANCH  27  29
ENDBRANCH  10  27
BRANCH   8  37
HETATM   37  C   UNK N   1      26.930  19.994   4.132  0.00  0.00     0.147 C 
HETATM   38  N   UNK N   1      25.681  20.114   3.862  0.00  0.00    -0.379 N 
HETATM   39  H   UNK N   1      25.359  20.583   3.059  0.00  0.00     0.158 HD
ATOM     40  HN  UNK N   1      24.999  19.708   4.503  1.00  0.00     0.158 HD
BRANCH  37  41
HETATM   41  O   UNK N   1      27.826  20.367   3.203  0.00  0.00    -0.346 OA
HETATM   42  H   UNK N   1      28.517  19.788   2.950  0.00  0.00     0.219 HD
ENDBRANCH  37  41
ENDBRANCH   8  37
TORSDOF 8
ENDMDL
MODEL 4
REMARK VINA RESULT:      -7.3      3.818      7.299
REMARK  8 active torsions:
REMARK  status: ('A' for Active; 'I' for Inactive)
REMARK    1  A    between atoms: C_27  and  C_17 
REMARK    2  A    between atoms: N_31  and  C_18 
REMARK    3  A    between atoms: O_38  and  C_19 
REMARK    4  A    between atoms: S_39  and  C_20 
REMARK    5  A    between atoms: S_39  and  C_21 
REMARK    6  A    between atoms: C_26  and  C_23 
REMARK    7  A    between atoms: N_31  and  C_25 
REMARK    8  A    between atoms: O_34  and  C_26 
REMARK       I    between atoms: N_33  and  C_27 
ROOT
HETATM    1  C   UNK N   1      24.814  20.563   3.479  0.00  0.00     0.050 C 
HETATM    2  C   UNK N   1      25.351  18.177   3.049  0.00  0.00     0.032 A 
HETATM    3  C   UNK N   1      26.952  16.995   4.366  0.00  0.00     0.039 A 
HETATM    4  C   UNK N   1      27.438  20.201   6.862  0.00  0.00     0.106 A 
HETATM    5  C   UNK N   1      25.597  19.339   3.793  0.00  0.00    -0.033 A 
HETATM    6  C   UNK N   1      26.068  17.028   3.359  0.00  0.00     0.061 A 
HETATM    7  C   UNK N   1      27.142  18.064   5.178  0.00  0.00     0.020 A 
HETATM    8  C   UNK N   1      28.008  18.969   7.217  0.00  0.00     0.057 A 
HETATM    9  C   UNK N   1      26.500  19.271   4.890  0.00  0.00     0.050 A 
HETATM   10  C   UNK N   1      27.910  17.874   6.343  0.00  0.00     0.061 A 
HETATM   11  N   UNK N   1      26.704  20.338   5.716  0.00  0.00    -0.364 N 
HETATM   12  H   UNK N   1      26.319  21.215   5.486  0.00  0.00     0.165 HD
ENDROOT
BRANCH   6  13
HETATM   13  S   UNK N   1      25.750  15.488   2.706  0.00  0.00     0.186 S 
HETATM   14  O   UNK N   1      25.937  15.608   1.187  0.00  0.00    -0.222 OA
HETATM   15  O   UNK N   1      27.031  14.675   2.991  0.00  0.00    -0.222 OA
BRANCH  13  16
HETATM   16  C   UNK N   1      24.410  14.389   3.104  0.00  0.00     0.160 C 
HETATM   17  C   UNK N   1      23.189  15.046   2.899  0.00  0.00    -0.003 C 
HETATM   18  C   UNK N   1      22.623  15.780   3.937  0.00  0.00    -0.001 C 
HETATM   19  C   UNK N   1      23.208  15.702   5.195  0.00  0.00     0.016 C 
HETATM   20  C   UNK N   1      24.227  14.751   5.419  0.00  0.00     0.029 C 
HETATM   21  C   UNK N   1      24.717  14.002   4.372  0.00  0.00     0.014 C 
BRANCH  20  22
HETATM   22  C   UNK N   1      24.791  14.524   6.727  0.00  0.00     0.252 C 
HETATM   23  N   UNK N   1      24.180  13.720   7.624  0.00  0.00    -0.357 N 
HETATM   24  C   UNK N   1      24.813  13.387   8.860  0.00  0.00     0.152 C 
HETATM   25  C   UNK N   1      22.956  13.022   7.274  0.00  0.00     0.152 C 
HETATM   26  O   UNK N   1      25.902  15.010   6.992  0.00  0.00    -0.268 OA
ENDBRANCH  20  22
ENDBRANCH  13  16
ENDBRANCH   6  13
BRANCH  10  27
HETATM   27  N   UNK N   1      28.355  16.729   6.727  0.00  0.00    -0.355 N 
ATOM     28  HN  UNK N   1      27.784  16.185   7.374  1.00  0.00     0.166 HD
BRANCH  27  29
HETATM   29  C   UNK N   1      29.599  16.173   6.301  0.00  0.00     0.035 A 
HETATM   30  C   UNK N   1      29.538  14.984   5.554  0.00  0.00     0.029 A 
HETATM   31  C   UNK N   1      30.673  14.249   5.283  0.00  0.00     0.005 A 
HETATM   32  C   UNK N   1      31.893  14.680   5.777  0.00  0.00     0.037 A 
HETATM   33  C   UNK N   1      31.987  15.859   6.536  0.00  0.00     0.070 A 
HETATM   34  C   UNK N   1      30.824  16.597   6.824  0.00  0.00     0.066 A 
BRANCH  33  35
HETATM   35  O   UNK N   1      33.185  16.286   6.993  0.00  0.00    -0.356 OA
HETATM   36  C   UNK N   1      33.651  17.563   6.756  0.00  0.00     0.210 C 
ENDBRANCH  33  35
ENDBRANCH  27  29
ENDBRANCH  10  27
BRANCH   8  37
HETATM   37  C   UNK N   1      28.429  18.724   8.633  0.00  0.00     0.147 C 
HETATM   38  N   UNK N   1      29.617  19.006   9.027  0.00  0.00    -0.379 N 
HETATM   39  H   UNK N   1      29.922  18.831   9.946  0.00  0.00     0.158 HD
ATOM     40  HN  UNK N   1      30.268  19.427   8.364  1.00  0.00     0.158 HD
BRANCH  37  41
HETATM   41  O   UNK N   1      27.636  18.009   9.447  0.00  0.00    -0.346 OA
HETATM   42  H   UNK N   1      27.921  17.782  10.311  0.00  0.00     0.219 HD
ENDBRANCH  37  41
ENDBRANCH   8  37
TORSDOF 8
ENDMDL
MODEL 5
REMARK VINA RESULT:      -7.3      2.492      3.813
REMARK  8 active torsions:
REMARK  status: ('A' for Active; 'I' for Inactive)
REMARK    1  A    between atoms: C_27  and  C_17 
REMARK    2  A    between atoms: N_31  and  C_18 
REMARK    3  A    between atoms: O_38  and  C_19 
REMARK    4  A    between atoms: S_39  and  C_20 
REMARK    5  A    between atoms: S_39  and  C_21 
REMARK    6  A    between atoms: C_26  and  C_23 
REMARK    7  A    between atoms: N_31  and  C_25 
REMARK    8  A    between atoms: O_34  and  C_26 
REMARK       I    between atoms: N_33  and  C_27 
ROOT
HETATM    1  C   UNK N   1      25.671  20.547   2.862  0.00  0.00     0.050 C 
HETATM    2  C   UNK N   1      25.998  18.322   3.916  0.00  0.00     0.032 A 
HETATM    3  C   UNK N   1      24.150  16.980   4.610  0.00  0.00     0.039 A 
HETATM    4  C   UNK N   1      21.473  19.647   3.040  0.00  0.00     0.106 A 
HETATM    5  C   UNK N   1      25.111  19.323   3.495  0.00  0.00    -0.033 A 
HETATM    6  C   UNK N   1      25.471  17.170   4.487  0.00  0.00     0.061 A 
HETATM    7  C   UNK N   1      23.257  17.875   4.121  0.00  0.00     0.020 A 
HETATM    8  C   UNK N   1      21.011  18.398   3.481  0.00  0.00     0.057 A 
HETATM    9  C   UNK N   1      23.713  19.083   3.587  0.00  0.00     0.050 A 
HETATM   10  C   UNK N   1      21.901  17.494   4.084  0.00  0.00     0.061 A 
HETATM   11  N   UNK N   1      22.799  19.973   3.101  0.00  0.00    -0.364 N 
HETATM   12  H   UNK N   1      23.099  20.859   2.790  0.00  0.00     0.165 HD
ENDROOT
BRANCH   6  13
HETATM   13  S   UNK N   1      26.377  15.777   4.856  0.00  0.00     0.186 S 
HETATM   14  O   UNK N   1      25.371  14.628   5.012  0.00  0.00    -0.222 OA
HETATM   15  O   UNK N   1      26.968  15.328   3.502  0.00  0.00    -0.222 OA
BRANCH  13  16
HETATM   16  C   UNK N   1      27.716  15.621   6.016  0.00  0.00     0.160 C 
HETATM   17  C   UNK N   1      27.639  16.653   6.962  0.00  0.00    -0.003 C 
HETATM   18  C   UNK N   1      28.273  17.866   6.706  0.00  0.00    -0.001 C 
HETATM   19  C   UNK N   1      29.101  17.955   5.594  0.00  0.00     0.016 C 
HETATM   20  C   UNK N   1      29.413  16.779   4.876  0.00  0.00     0.029 C 
HETATM   21  C   UNK N   1      28.806  15.587   5.202  0.00  0.00     0.014 C 
BRANCH  20  22
HETATM   22  C   UNK N   1      30.363  16.773   3.791  0.00  0.00     0.252 C 
HETATM   23  N   UNK N   1      31.690  16.880   4.021  0.00  0.00    -0.357 N 
HETATM   24  C   UNK N   1      32.631  16.730   2.958  0.00  0.00     0.152 C 
HETATM   25  C   UNK N   1      32.199  16.958   5.378  0.00  0.00     0.152 C 
HETATM   26  O   UNK N   1      29.952  16.576   2.636  0.00  0.00    -0.268 OA
ENDBRANCH  20  22
ENDBRANCH  13  16
ENDBRANCH   6  13
BRANCH  10  27
HETATM   27  N   UNK N   1      21.480  16.318   4.394  0.00  0.00    -0.355 N 
ATOM     28  HN  UNK N   1      21.238  15.680   3.637  1.00  0.00     0.166 HD
BRANCH  27  29
HETATM   29  C   UNK N   1      21.334  15.853   5.736  0.00  0.00     0.035 A 
HETATM   30  C   UNK N   1      21.291  14.461   5.923  0.00  0.00     0.029 A 
HETATM   31  C   UNK N   1      20.934  13.910   7.135  0.00  0.00     0.005 A 
HETATM   32  C   UNK N   1      20.587  14.746   8.183  0.00  0.00     0.037 A 
HETATM   33  C   UNK N   1      20.608  16.142   8.027  0.00  0.00     0.070 A 
HETATM   34  C   UNK N   1      20.958  16.700   6.783  0.00  0.00     0.066 A 
BRANCH  33  35
HETATM   35  O   UNK N   1      20.293  16.953   9.062  0.00  0.00    -0.356 OA
HETATM   36  C   UNK N   1      19.699  18.184   8.880  0.00  0.00     0.210 C 
ENDBRANCH  33  35
ENDBRANCH  27  29
ENDBRANCH  10  27
BRANCH   8  37
HETATM   37  C   UNK N   1      19.674  17.897   3.030  0.00  0.00     0.147 C 
HETATM   38  N   UNK N   1      19.154  18.303   1.930  0.00  0.00    -0.379 N 
HETATM   39  H   UNK N   1      18.266  18.005   1.627  0.00  0.00     0.158 HD
ATOM     40  HN  UNK N   1      19.679  18.957   1.350  1.00  0.00     0.158 HD
BRANCH  37  41
HETATM   41  O   UNK N   1      18.912  17.183   3.875  0.00  0.00    -0.346 OA
HETATM   42  H   UNK N   1      18.746  17.494   4.744  0.00  0.00     0.219 HD
ENDBRANCH  37  41
ENDBRANCH   8  37
TORSDOF 8
ENDMDL
MODEL 6
REMARK VINA RESULT:      -7.3      6.345      9.658
REMARK  8 active torsions:
REMARK  status: ('A' for Active; 'I' for Inactive)
REMARK    1  A    between atoms: C_27  and  C_17 
REMARK    2  A    between atoms: N_31  and  C_18 
REMARK    3  A    between atoms: O_38  and  C_19 
REMARK    4  A    between atoms: S_39  and  C_20 
REMARK    5  A    between atoms: S_39  and  C_21 
REMARK    6  A    between atoms: C_26  and  C_23 
REMARK    7  A    between atoms: N_31  and  C_25 
REMARK    8  A    between atoms: O_34  and  C_26 
REMARK       I    between atoms: N_33  and  C_27 
ROOT
HETATM    1  C   UNK N   1      29.924  18.415   9.898  0.00  0.00     0.050 C 
HETATM    2  C   UNK N   1      31.691  17.684   8.313  0.00  0.00     0.032 A 
HETATM    3  C   UNK N   1      31.201  17.196   6.029  0.00  0.00     0.039 A 
HETATM    4  C   UNK N   1      27.313  18.388   6.486  0.00  0.00     0.106 A 
HETATM    5  C   UNK N   1      30.336  17.964   8.543  0.00  0.00    -0.033 A 
HETATM    6  C   UNK N   1      32.077  17.284   7.040  0.00  0.00     0.061 A 
HETATM    7  C   UNK N   1      29.903  17.559   6.181  0.00  0.00     0.020 A 
HETATM    8  C   UNK N   1      27.799  18.130   5.195  0.00  0.00     0.057 A 
HETATM    9  C   UNK N   1      29.431  17.914   7.447  0.00  0.00     0.050 A 
HETATM   10  C   UNK N   1      29.110  17.656   5.022  0.00  0.00     0.061 A 
HETATM   11  N   UNK N   1      28.122  18.275   7.583  0.00  0.00    -0.364 N 
HETATM   12  H   UNK N   1      27.756  18.456   8.480  0.00  0.00     0.165 HD
ENDROOT
BRANCH   6  13
HETATM   13  S   UNK N   1      33.693  17.110   6.532  0.00  0.00     0.186 S 
HETATM   14  O   UNK N   1      33.846  17.954   5.259  0.00  0.00    -0.222 OA
HETATM   15  O   UNK N   1      34.496  18.036   7.471  0.00  0.00    -0.222 OA
BRANCH  13  16
HETATM   16  C   UNK N   1      34.650  15.615   6.432  0.00  0.00     0.160 C 
HETATM   17  C   UNK N   1      33.929  14.644   5.723  0.00  0.00    -0.003 C 
HETATM   18  C   UNK N   1      33.061  13.799   6.409  0.00  0.00    -0.001 C 
HETATM   19  C   UNK N   1      33.063  13.838   7.797  0.00  0.00     0.016 C 
HETATM   20  C   UNK N   1      34.059  14.587   8.460  0.00  0.00     0.029 C 
HETATM   21  C   UNK N   1      34.937  15.364   7.738  0.00  0.00     0.014 C 
BRANCH  20  22
HETATM   22  C   UNK N   1      34.203  14.572   9.896  0.00  0.00     0.252 C 
HETATM   23  N   UNK N   1      34.739  13.511  10.536  0.00  0.00    -0.357 N 
HETATM   24  C   UNK N   1      35.008  13.560  11.937  0.00  0.00     0.152 C 
HETATM   25  C   UNK N   1      35.231  12.369   9.786  0.00  0.00     0.152 C 
HETATM   26  O   UNK N   1      33.906  15.593  10.537  0.00  0.00    -0.268 OA
ENDBRANCH  20  22
ENDBRANCH  13  16
ENDBRANCH   6  13
BRANCH  10  27
HETATM   27  N   UNK N   1      29.569  17.517   3.828  0.00  0.00    -0.355 N 
ATOM     28  HN  UNK N   1      29.854  18.355   3.323  1.00  0.00     0.166 HD
BRANCH  27  29
HETATM   29  C   UNK N   1      29.703  16.258   3.168  0.00  0.00     0.035 A 
HETATM   30  C   UNK N   1      28.524  15.672   2.675  0.00  0.00     0.029 A 
HETATM   31  C   UNK N   1      28.505  14.370   2.222  0.00  0.00     0.005 A 
HETATM   32  C   UNK N   1      29.666  13.617   2.277  0.00  0.00     0.037 A 
HETATM   33  C   UNK N   1      30.859  14.168   2.774  0.00  0.00     0.070 A 
HETATM   34  C   UNK N   1      30.870  15.493   3.250  0.00  0.00     0.066 A 
BRANCH  33  35
HETATM   35  O   UNK N   1      31.995  13.435   2.801  0.00  0.00    -0.356 OA
HETATM   36  C   UNK N   1      32.028  12.145   3.288  0.00  0.00     0.210 C 
ENDBRANCH  33  35
ENDBRANCH  27  29
ENDBRANCH  10  27
BRANCH   8  37
HETATM   37  C   UNK N   1      27.060  18.654   4.003  0.00  0.00     0.147 C 
HETATM   38  N   UNK N   1      26.084  17.998   3.491  0.00  0.00    -0.379 N 
HETATM   39  H   UNK N   1      25.601  18.312   2.693  0.00  0.00     0.158 HD
ATOM     40  HN  UNK N   1      25.800  17.120   3.925  1.00  0.00     0.158 HD
BRANCH  37  41
HETATM   41  O   UNK N   1      27.548  19.709   3.330  0.00  0.00    -0.346 OA
HETATM   42  H   UNK N   1      27.352  20.582   3.608  0.00  0.00     0.219 HD
ENDBRANCH  37  41
ENDBRANCH   8  37
TORSDOF 8
ENDMDL
MODEL 7
REMARK VINA RESULT:      -7.0      2.544      5.855
REMARK  8 active torsions:
REMARK  status: ('A' for Active; 'I' for Inactive)
REMARK    1  A    between atoms: C_27  and  C_17 
REMARK    2  A    between atoms: N_31  and  C_18 
REMARK    3  A    between atoms: O_38  and  C_19 
REMARK    4  A    between atoms: S_39  and  C_20 
REMARK    5  A    between atoms: S_39  and  C_21 
REMARK    6  A    between atoms: C_26  and  C_23 
REMARK    7  A    between atoms: N_31  and  C_25 
REMARK    8  A    between atoms: O_34  and  C_26 
REMARK       I    between atoms: N_33  and  C_27 
ROOT
HETATM    1  C   UNK N   1      23.111  12.174   9.184  0.00  0.00     0.050 C 
HETATM    2  C   UNK N   1      24.118  13.535   7.368  0.00  0.00     0.032 A 
HETATM    3  C   UNK N   1      23.020  15.465   6.492  0.00  0.00     0.039 A 
HETATM    4  C   UNK N   1      20.022  15.159   9.259  0.00  0.00     0.106 A 
HETATM    5  C   UNK N   1      23.039  13.316   8.235  0.00  0.00    -0.033 A 
HETATM    6  C   UNK N   1      24.058  14.616   6.497  0.00  0.00     0.061 A 
HETATM    7  C   UNK N   1      22.007  15.351   7.385  0.00  0.00     0.020 A 
HETATM    8  C   UNK N   1      20.100  16.313   8.465  0.00  0.00     0.057 A 
HETATM    9  C   UNK N   1      21.971  14.255   8.251  0.00  0.00     0.050 A 
HETATM   10  C   UNK N   1      21.081  16.410   7.464  0.00  0.00     0.061 A 
HETATM   11  N   UNK N   1      20.942  14.155   9.142  0.00  0.00    -0.364 N 
HETATM   12  H   UNK N   1      20.862  13.352   9.708  0.00  0.00     0.165 HD
ENDROOT
BRANCH   6  13
HETATM   13  S   UNK N   1      25.356  15.152   5.534  0.00  0.00     0.186 S 
HETATM   14  O   UNK N   1      26.471  15.581   6.498  0.00  0.00    -0.222 OA
HETATM   15  O   UNK N   1      26.028  13.855   5.033  0.00  0.00    -0.222 OA
BRANCH  13  16
HETATM   16  C   UNK N   1      25.292  16.216   4.111  0.00  0.00     0.160 C 
HETATM   17  C   UNK N   1      26.125  15.705   3.106  0.00  0.00    -0.003 C 
HETATM   18  C   UNK N   1      27.465  16.081   3.070  0.00  0.00    -0.001 C 
HETATM   19  C   UNK N   1      27.893  17.079   3.936  0.00  0.00     0.016 C 
HETATM   20  C   UNK N   1      26.933  17.798   4.681  0.00  0.00     0.029 C 
HETATM   21  C   UNK N   1      25.607  17.430   4.640  0.00  0.00     0.014 C 
BRANCH  20  22
HETATM   22  C   UNK N   1      27.289  18.930   5.501  0.00  0.00     0.252 C 
HETATM   23  N   UNK N   1      27.137  20.195   5.054  0.00  0.00    -0.357 N 
HETATM   24  C   UNK N   1      27.356  21.309   5.920  0.00  0.00     0.152 C 
HETATM   25  C   UNK N   1      26.564  20.451   3.745  0.00  0.00     0.152 C 
HETATM   26  O   UNK N   1      27.657  18.730   6.670  0.00  0.00    -0.268 OA
ENDBRANCH  20  22
ENDBRANCH  13  16
ENDBRANCH   6  13
BRANCH  10  27
HETATM   27  N   UNK N   1      21.199  17.512   6.811  0.00  0.00    -0.355 N 
ATOM     28  HN  UNK N   1      21.609  18.312   7.291  1.00  0.00     0.166 HD
BRANCH  27  29
HETATM   29  C   UNK N   1      20.789  17.682   5.454  0.00  0.00     0.035 A 
HETATM   30  C   UNK N   1      20.017  16.651   4.892  0.00  0.00     0.029 A 
HETATM   31  C   UNK N   1      19.756  16.606   3.539  0.00  0.00     0.005 A 
HETATM   32  C   UNK N   1      20.287  17.584   2.714  0.00  0.00     0.037 A 
HETATM   33  C   UNK N   1      21.072  18.622   3.242  0.00  0.00     0.070 A 
HETATM   34  C   UNK N   1      21.349  18.655   4.622  0.00  0.00     0.066 A 
BRANCH  33  35
HETATM   35  O   UNK N   1      21.566  19.588   2.434  0.00  0.00    -0.356 OA
HETATM   36  C   UNK N   1      21.052  20.868   2.417  0.00  0.00     0.210 C 
ENDBRANCH  33  35
ENDBRANCH  27  29
ENDBRANCH  10  27
BRANCH   8  37
HETATM   37  C   UNK N   1      19.373  17.554   8.881  0.00  0.00     0.147 C 
HETATM   38  N   UNK N   1      18.091  17.609   8.852  0.00  0.00    -0.379 N 
HETATM   39  H   UNK N   1      17.594  18.422   9.097  0.00  0.00     0.158 HD
ATOM     40  HN  UNK N   1      17.570  16.781   8.563  1.00  0.00     0.158 HD
BRANCH  37  41
HETATM   41  O   UNK N   1      20.060  18.690   9.083  0.00  0.00    -0.346 OA
HETATM   42  H   UNK N   1      20.895  18.820   8.678  0.00  0.00     0.219 HD
ENDBRANCH  37  41
ENDBRANCH   8  37
TORSDOF 8
ENDMDL
MODEL 8
REMARK VINA RESULT:      -6.9     13.008     16.175
REMARK  8 active torsions:
REMARK  status: ('A' for Active; 'I' for Inactive)
REMARK    1  A    between atoms: C_27  and  C_17 
REMARK    2  A    between atoms: N_31  and  C_18 
REMARK    3  A    between atoms: O_38  and  C_19 
REMARK    4  A    between atoms: S_39  and  C_20 
REMARK    5  A    between atoms: S_39  and  C_21 
REMARK    6  A    between atoms: C_26  and  C_23 
REMARK    7  A    between atoms: N_31  and  C_25 
REMARK    8  A    between atoms: O_34  and  C_26 
REMARK       I    between atoms: N_33  and  C_27 
ROOT
HETATM    1  C   UNK N   1      31.147  22.755  -2.856  0.00  0.00     0.050 C 
HETATM    2  C   UNK N   1      29.038  23.845  -3.587  0.00  0.00     0.032 A 
HETATM    3  C   UNK N   1      28.051  23.367  -5.706  0.00  0.00     0.039 A 
HETATM    4  C   UNK N   1      30.851  20.490  -6.495  0.00  0.00     0.106 A 
HETATM    5  C   UNK N   1      30.094  22.971  -3.883  0.00  0.00    -0.033 A 
HETATM    6  C   UNK N   1      28.044  24.027  -4.539  0.00  0.00     0.061 A 
HETATM    7  C   UNK N   1      28.994  22.435  -5.988  0.00  0.00     0.020 A 
HETATM    8  C   UNK N   1      29.737  20.606  -7.339  0.00  0.00     0.057 A 
HETATM    9  C   UNK N   1      30.058  22.241  -5.103  0.00  0.00     0.050 A 
HETATM   10  C   UNK N   1      28.799  21.628  -7.126  0.00  0.00     0.061 A 
HETATM   11  N   UNK N   1      31.000  21.301  -5.403  0.00  0.00    -0.364 N 
HETATM   12  H   UNK N   1      31.794  21.204  -4.828  0.00  0.00     0.165 HD
ENDROOT
BRANCH   6  13
HETATM   13  S   UNK N   1      26.594  24.877  -4.269  0.00  0.00     0.186 S 
HETATM   14  O   UNK N   1      25.452  23.947  -4.700  0.00  0.00    -0.222 OA
HETATM   15  O   UNK N   1      26.360  24.771  -2.746  0.00  0.00    -0.222 OA
BRANCH  13  16
HETATM   16  C   UNK N   1      26.230  26.570  -4.672  0.00  0.00     0.160 C 
HETATM   17  C   UNK N   1      25.219  26.615  -5.643  0.00  0.00    -0.003 C 
HETATM   18  C   UNK N   1      25.563  26.582  -6.992  0.00  0.00    -0.001 C 
HETATM   19  C   UNK N   1      26.907  26.673  -7.332  0.00  0.00     0.016 C 
HETATM   20  C   UNK N   1      27.849  26.978  -6.325  0.00  0.00     0.029 C 
HETATM   21  C   UNK N   1      27.455  27.060  -5.009  0.00  0.00     0.014 C 
BRANCH  20  22
HETATM   22  C   UNK N   1      29.241  27.214  -6.624  0.00  0.00     0.252 C 
HETATM   23  N   UNK N   1      29.685  28.441  -6.972  0.00  0.00    -0.357 N 
HETATM   24  C   UNK N   1      31.081  28.699  -7.126  0.00  0.00     0.152 C 
HETATM   25  C   UNK N   1      28.774  29.571  -7.009  0.00  0.00     0.152 C 
HETATM   26  O   UNK N   1      30.052  26.287  -6.469  0.00  0.00    -0.268 OA
ENDBRANCH  20  22
ENDBRANCH  13  16
ENDBRANCH   6  13
BRANCH  10  27
HETATM   27  N   UNK N   1      27.736  21.660  -7.851  0.00  0.00    -0.355 N 
ATOM     28  HN  UNK N   1      27.021  20.953  -7.684  1.00  0.00     0.166 HD
BRANCH  27  29
HETATM   29  C   UNK N   1      27.497  22.626  -8.874  0.00  0.00     0.035 A 
HETATM   30  C   UNK N   1      28.622  23.292  -9.390  0.00  0.00     0.029 A 
HETATM   31  C   UNK N   1      28.491  24.390 -10.214  0.00  0.00     0.005 A 
HETATM   32  C   UNK N   1      27.224  24.860 -10.519  0.00  0.00     0.037 A 
HETATM   33  C   UNK N   1      26.079  24.224 -10.010  0.00  0.00     0.070 A 
HETATM   34  C   UNK N   1      26.218  23.114  -9.157  0.00  0.00     0.066 A 
BRANCH  33  35
HETATM   35  O   UNK N   1      24.845  24.673 -10.333  0.00  0.00    -0.356 OA
HETATM   36  C   UNK N   1      24.627  25.948 -10.814  0.00  0.00     0.210 C 
ENDBRANCH  33  35
ENDBRANCH  27  29
ENDBRANCH  10  27
BRANCH   8  37
HETATM   37  C   UNK N   1      29.373  19.474  -8.249  0.00  0.00     0.147 C 
HETATM   38  N   UNK N   1      29.312  18.269  -7.813  0.00  0.00    -0.379 N 
HETATM   39  H   UNK N   1      29.099  17.507  -8.399  0.00  0.00     0.158 HD
ATOM     40  HN  UNK N   1      29.493  18.095  -6.824  1.00  0.00     0.158 HD
BRANCH  37  41
HETATM   41  O   UNK N   1      29.314  19.680  -9.576  0.00  0.00    -0.346 OA
HETATM   42  H   UNK N   1      29.159  20.538  -9.917  0.00  0.00     0.219 HD
ENDBRANCH  37  41
ENDBRANCH   8  37
TORSDOF 8
ENDMDL
MODEL 9
REMARK VINA RESULT:      -6.9      4.814      8.207
REMARK  8 active torsions:
REMARK  status: ('A' for Active; 'I' for Inactive)
REMARK    1  A    between atoms: C_27  and  C_17 
REMARK    2  A    between atoms: N_31  and  C_18 
REMARK    3  A    between atoms: O_38  and  C_19 
REMARK    4  A    between atoms: S_39  and  C_20 
REMARK    5  A    between atoms: S_39  and  C_21 
REMARK    6  A    between atoms: C_26  and  C_23 
REMARK    7  A    between atoms: N_31  and  C_25 
REMARK    8  A    between atoms: O_34  and  C_26 
REMARK       I    between atoms: N_33  and  C_27 
ROOT
HETATM    1  C   UNK N   1      25.227  18.834   4.162  0.00  0.00     0.050 C 
HETATM    2  C   UNK N   1      26.692  16.919   3.569  0.00  0.00     0.032 A 
HETATM    3  C   UNK N   1      28.662  16.414   4.818  0.00  0.00     0.039 A 
HETATM    4  C   UNK N   1      27.828  19.351   7.543  0.00  0.00     0.106 A 
HETATM    5  C   UNK N   1      26.451  18.023   4.398  0.00  0.00    -0.033 A 
HETATM    6  C   UNK N   1      27.825  16.150   3.805  0.00  0.00     0.061 A 
HETATM    7  C   UNK N   1      28.409  17.407   5.707  0.00  0.00     0.020 A 
HETATM    8  C   UNK N   1      28.862  18.442   7.815  0.00  0.00     0.057 A 
HETATM    9  C   UNK N   1      27.321  18.258   5.498  0.00  0.00     0.050 A 
HETATM   10  C   UNK N   1      29.208  17.468   6.865  0.00  0.00     0.061 A 
HETATM   11  N   UNK N   1      27.082  19.253   6.401  0.00  0.00    -0.364 N 
HETATM   12  H   UNK N   1      26.365  19.906   6.229  0.00  0.00     0.165 HD
ENDROOT
BRANCH   6  13
HETATM   13  S   UNK N   1      28.159  14.666   3.040  0.00  0.00     0.186 S 
HETATM   14  O   UNK N   1      28.381  14.978   1.554  0.00  0.00    -0.222 OA
HETATM   15  O   UNK N   1      29.633  14.371   3.393  0.00  0.00    -0.222 OA
BRANCH  13  16
HETATM   16  C   UNK N   1      27.316  13.115   3.252  0.00  0.00     0.160 C 
HETATM   17  C   UNK N   1      26.256  13.028   2.339  0.00  0.00    -0.003 C 
HETATM   18  C   UNK N   1      25.004  13.522   2.694  0.00  0.00    -0.001 C 
HETATM   19  C   UNK N   1      24.806  13.935   4.005  0.00  0.00     0.016 C 
HETATM   20  C   UNK N   1      25.808  13.673   4.965  0.00  0.00     0.029 C 
HETATM   21  C   UNK N   1      27.012  13.127   4.579  0.00  0.00     0.014 C 
BRANCH  20  22
HETATM   22  C   UNK N   1      25.620  13.956   6.367  0.00  0.00     0.252 C 
HETATM   23  N   UNK N   1      24.926  13.118   7.165  0.00  0.00    -0.357 N 
HETATM   24  C   UNK N   1      24.866  13.331   8.576  0.00  0.00     0.152 C 
HETATM   25  C   UNK N   1      24.387  11.876   6.639  0.00  0.00     0.152 C 
HETATM   26  O   UNK N   1      26.186  14.947   6.858  0.00  0.00    -0.268 OA
ENDBRANCH  20  22
ENDBRANCH  13  16
ENDBRANCH   6  13
BRANCH  10  27
HETATM   27  N   UNK N   1      30.092  16.585   7.171  0.00  0.00    -0.355 N 
ATOM     28  HN  UNK N   1      29.768  15.670   7.482  1.00  0.00     0.166 HD
BRANCH  27  29
HETATM   29  C   UNK N   1      31.500  16.810   7.102  0.00  0.00     0.035 A 
HETATM   30  C   UNK N   1      32.006  17.284   5.879  0.00  0.00     0.029 A 
HETATM   31  C   UNK N   1      33.362  17.325   5.631  0.00  0.00     0.005 A 
HETATM   32  C   UNK N   1      34.241  16.867   6.598  0.00  0.00     0.037 A 
HETATM   33  C   UNK N   1      33.768  16.376   7.827  0.00  0.00     0.070 A 
HETATM   34  C   UNK N   1      32.383  16.321   8.070  0.00  0.00     0.066 A 
BRANCH  33  35
HETATM   35  O   UNK N   1      34.634  15.954   8.776  0.00  0.00    -0.356 OA
HETATM   36  C   UNK N   1      34.904  16.694   9.909  0.00  0.00     0.210 C 
ENDBRANCH  33  35
ENDBRANCH  27  29
ENDBRANCH  10  27
BRANCH   8  37
HETATM   37  C   UNK N   1      29.372  18.294   9.216  0.00  0.00     0.147 C 
HETATM   38  N   UNK N   1      30.327  19.031   9.652  0.00  0.00    -0.379 N 
HETATM   39  H   UNK N   1      30.694  18.933  10.560  0.00  0.00     0.158 HD
ATOM     40  HN  UNK N   1      30.720  19.742   9.035  1.00  0.00     0.158 HD
BRANCH  37  41
HETATM   41  O   UNK N   1      28.980  17.245   9.958  0.00  0.00    -0.346 OA
HETATM   42  H   UNK N   1      28.282  17.335  10.577  0.00  0.00     0.219 HD
ENDBRANCH  37  41
ENDBRANCH   8  37
TORSDOF 8
ENDMDL
