REMARK WARNING: 32 MAX_TORS EXCEEDED!!!
REMARK  50 active torsions:
REMARK  status: ('A' for Active; 'I' for Inactive)
REMARK    1  A    between atoms: C_5  and  C_3 
REMARK    2  A    between atoms: C_6  and  C_4 
REMARK    3  A    between atoms: C_7  and  C_5 
REMARK    4  A    between atoms: C_8  and  C_6 
REMARK    5  A    between atoms: C_9  and  C_7 
REMARK    6  A    between atoms: C_10  and  C_8 
REMARK    7  A    between atoms: C_11  and  C_9 
REMARK    8  A    between atoms: C_12  and  C_10 
REMARK    9  A    between atoms: C_13  and  C_11 
REMARK   10  A    between atoms: C_14  and  C_12 
REMARK   11  A    between atoms: C_15  and  C_13 
REMARK   12  A    between atoms: C_16  and  C_14 
REMARK   13  A    between atoms: C_17  and  C_15 
REMARK   14  A    between atoms: C_28  and  C_16 
REMARK   15  A    between atoms: C_18  and  C_17 
REMARK   16  A    between atoms: C_19  and  C_18 
REMARK   17  A    between atoms: C_20  and  C_19 
REMARK   18  A    between atoms: C_21  and  C_20 
REMARK   19  A    between atoms: C_22  and  C_21 
REMARK   20  A    between atoms: C_23  and  C_22 
REMARK   21  A    between atoms: C_24  and  C_23 
REMARK   22  A    between atoms: C_25  and  C_24 
REMARK   23  A    between atoms: C_26  and  C_25 
REMARK   24  A    between atoms: C_27  and  C_26 
REMARK   25  A    between atoms: C_29  and  C_27 
REMARK   26  A    between atoms: C_30  and  C_28 
REMARK   27  A    between atoms: C_31  and  C_29 
REMARK   28  A    between atoms: C_32  and  C_30 
REMARK   29  A    between atoms: C_33  and  C_31 
REMARK   30  A    between atoms: C_34  and  C_32 
REMARK   31  A    between atoms: C_35  and  C_33 
REMARK   32  A    between atoms: C_36  and  C_34 
REMARK   33  A    between atoms: C_37  and  C_35 
REMARK   34  A    between atoms: C_38  and  C_36 
REMARK   35  A    between atoms: C_39  and  C_37 
REMARK   36  A    between atoms: C_43  and  C_38 
REMARK   37  A    between atoms: C_45  and  C_39 
REMARK   38  A    between atoms: C_44  and  C_40 
REMARK   39  A    between atoms: O_53  and  C_40 
REMARK   40  A    between atoms: C_42  and  C_41 
REMARK   41  A    between atoms: O_60  and  C_41 
REMARK   42  A    between atoms: C_46  and  C_42 
REMARK   43  A    between atoms: C_42  and  N_51 
REMARK   44  A    between atoms: C_46  and  C_43 
REMARK   45  A    between atoms: C_43  and  O_54 
REMARK   46  A    between atoms: C_45  and  O_55 
REMARK   47  A    between atoms: C_46  and  O_56 
REMARK   48  A    between atoms: C_48  and  O_58 
REMARK   49  A    between atoms: C_49  and  O_59 
REMARK   50  A    between atoms: C_50  and  O_60 
ROOT
HETATM    1  C   UNK N   1      36.034   8.380   0.531  0.00  0.00     0.179 C 
HETATM    2  C   UNK N   1      35.012   9.300  -0.178  0.00  0.00     0.180 C 
HETATM    3  C   UNK N   1      33.616   8.967   0.366  0.00  0.00     0.183 C 
HETATM    4  C   UNK N   1      33.346   7.461   0.246  0.00  0.00     0.204 C 
HETATM    5  C   UNK N   1      34.487   6.672   0.927  0.00  0.00     0.291 C 
HETATM    6  O   UNK N   1      35.049   9.102  -1.563  0.00  0.00    -0.390 OA
HETATM    7  O   UNK N   1      35.726   7.008   0.300  0.00  0.00    -0.348 OA
HETATM    8  H   UNK N   1      34.942   9.011  -2.522  0.00  0.00     0.210 HD
ENDROOT
BRANCH   1   9
HETATM    9  C   UNK N   1      37.465   8.670   0.083  0.00  0.00     0.198 C 
BRANCH   9  10
HETATM   10  O   UNK N   1      37.654   8.353  -1.263  0.00  0.00    -0.398 OA
HETATM   11  H   UNK N   1      37.529   8.129  -2.198  0.00  0.00     0.209 HD
ENDBRANCH   9  10
ENDBRANCH   1   9
BRANCH   3  12
HETATM   12  O   UNK N   1      32.634   9.700  -0.307  0.00  0.00    -0.390 OA
HETATM   13  H   UNK N   1      32.734  10.545  -0.774  0.00  0.00     0.210 HD
ENDBRANCH   3  12
BRANCH   4  14
HETATM   14  O   UNK N   1      33.254   7.086  -1.100  0.00  0.00    -0.388 OA
HETATM   15  H   UNK N   1      32.997   7.011  -2.032  0.00  0.00     0.210 HD
ENDBRANCH   4  14
BRANCH   5  16
HETATM   16  O   UNK N   1      34.172   5.294   0.814  0.00  0.00    -0.356 OA
BRANCH  16  17
HETATM   17  C   UNK N   1      35.316   4.475   0.907  0.00  0.00     0.199 C 
BRANCH  17  18
HETATM   18  C   UNK N   1      35.339   3.551  -0.313  0.00  0.00     0.138 C 
BRANCH  18  19
HETATM   19  C   UNK N   1      36.522   2.562  -0.390  0.00  0.00     0.171 C 
BRANCH  19  20
HETATM   20  C   UNK N   1      37.939   3.132  -0.307  0.00  0.00     0.149 C 
BRANCH  20  21
HETATM   21  C   UNK N   1      38.371   3.433   1.132  0.00  0.00     0.034 C 
BRANCH  21  22
HETATM   22  C   UNK N   1      39.852   3.798   1.264  0.00  0.00     0.002 C 
BRANCH  22  23
HETATM   23  C   UNK N   1      40.813   2.731   0.731  0.00  0.00     0.000 C 
BRANCH  23  24
HETATM   24  C   UNK N   1      41.034   2.893  -0.775  0.00  0.00     0.000 C 
BRANCH  24  25
HETATM   25  C   UNK N   1      42.075   3.941  -1.150  0.00  0.00     0.000 C 
BRANCH  25  26
HETATM   26  C   UNK N   1      41.802   5.312  -0.546  0.00  0.00     0.000 C 
BRANCH  26  27
HETATM   27  C   UNK N   1      42.536   5.471   0.780  0.00  0.00     0.000 C 
BRANCH  27  28
HETATM   28  C   UNK N   1      44.036   5.573   0.558  0.00  0.00     0.000 C 
BRANCH  28  29
HETATM   29  C   UNK N   1      44.681   4.199   0.562  0.00  0.00     0.000 C 
BRANCH  29  30
HETATM   30  C   UNK N   1      45.647   4.105  -0.602  0.00  0.00     0.000 C 
BRANCH  30  31
HETATM   31  C   UNK N   1      46.794   3.171  -0.273  0.00  0.00     0.000 C 
BRANCH  31  32
HETATM   32  C   UNK N   1      47.916   3.965   0.366  0.00  0.00    -0.000 C 
BRANCH  32  33
HETATM   33  C   UNK N   1      49.244   3.487  -0.183  0.00  0.00    -0.005 C 
HETATM   34  C   UNK N   1      50.334   4.457   0.222  0.00  0.00     0.005 C 
ENDBRANCH  32  33
ENDBRANCH  31  32
ENDBRANCH  30  31
ENDBRANCH  29  30
ENDBRANCH  28  29
ENDBRANCH  27  28
ENDBRANCH  26  27
ENDBRANCH  25  26
ENDBRANCH  24  25
ENDBRANCH  23  24
ENDBRANCH  22  23
ENDBRANCH  21  22
ENDBRANCH  20  21
BRANCH  20  35
HETATM   35  O   UNK N   1      38.081   4.261  -1.118  0.00  0.00    -0.393 OA
HETATM   36  H   UNK N   1      38.809   4.568  -1.680  0.00  0.00     0.210 HD
ENDBRANCH  20  35
ENDBRANCH  19  20
BRANCH  19  37
HETATM   37  O   UNK N   1      36.379   1.543   0.561  0.00  0.00    -0.391 OA
HETATM   38  H   UNK N   1      35.719   1.276   1.219  0.00  0.00     0.210 HD
ENDBRANCH  19  37
ENDBRANCH  18  19
BRANCH  18  39
HETATM   39  N   UNK N   1      34.134   2.740  -0.318  0.00  0.00    -0.365 N 
HETATM   40  C   UNK N   1      33.483   2.406  -1.380  0.00  0.00     0.111 C 
ATOM     41  HN  UNK N   1      33.778   2.413   0.580  1.00  0.00     0.161 HD
BRANCH  40  42
HETATM   42  C   UNK N   1      32.319   1.457  -1.290  0.00  0.00     0.083 C 
BRANCH  42  43
HETATM   43  C   UNK N   1      32.160   0.848   0.105  0.00  0.00     0.008 C 
BRANCH  43  44
HETATM   44  C   UNK N   1      30.941   1.393   0.837  0.00  0.00     0.000 C 
BRANCH  44  45
HETATM   45  C   UNK N   1      31.064   2.884   1.093  0.00  0.00     0.000 C 
BRANCH  45  46
HETATM   46  C   UNK N   1      30.469   3.643  -0.079  0.00  0.00     0.000 C 
BRANCH  46  47
HETATM   47  C   UNK N   1      30.798   5.121   0.010  0.00  0.00     0.000 C 
BRANCH  47  48
HETATM   48  C   UNK N   1      30.084   5.778   1.185  0.00  0.00     0.000 C 
BRANCH  48  49
HETATM   49  C   UNK N   1      28.727   6.343   0.787  0.00  0.00     0.000 C 
BRANCH  49  50
HETATM   50  C   UNK N   1      27.732   5.232   0.507  0.00  0.00     0.000 C 
BRANCH  50  51
HETATM   51  C   UNK N   1      27.614   5.024  -0.992  0.00  0.00     0.000 C 
BRANCH  51  52
HETATM   52  C   UNK N   1      27.323   3.568  -1.322  0.00  0.00     0.000 C 
BRANCH  52  53
HETATM   53  C   UNK N   1      25.878   3.215  -1.026  0.00  0.00     0.000 C 
BRANCH  53  54
HETATM   54  C   UNK N   1      25.737   2.676   0.388  0.00  0.00     0.000 C 
BRANCH  54  55
HETATM   55  C   UNK N   1      24.608   3.379   1.129  0.00  0.00     0.000 C 
BRANCH  55  56
HETATM   56  C   UNK N   1      23.232   2.933   0.652  0.00  0.00     0.000 C 
BRANCH  56  57
HETATM   57  C   UNK N   1      22.867   3.629  -0.649  0.00  0.00     0.000 C 
BRANCH  57  58
HETATM   58  C   UNK N   1      21.367   3.603  -0.861  0.00  0.00     0.000 C 
BRANCH  58  59
HETATM   59  C   UNK N   1      20.717   4.737  -0.089  0.00  0.00     0.000 C 
BRANCH  59  60
HETATM   60  C   UNK N   1      19.753   4.165   0.933  0.00  0.00     0.000 C 
BRANCH  60  61
HETATM   61  C   UNK N   1      18.382   4.805   0.800  0.00  0.00     0.000 C 
BRANCH  61  62
HETATM   62  C   UNK N   1      17.701   4.334  -0.473  0.00  0.00     0.000 C 
BRANCH  62  63
HETATM   63  C   UNK N   1      16.247   4.762  -0.479  0.00  0.00     0.000 C 
BRANCH  63  64
HETATM   64  C   UNK N   1      15.375   3.612  -0.018  0.00  0.00    -0.000 C 
BRANCH  64  65
HETATM   65  C   UNK N   1      13.919   4.024  -0.084  0.00  0.00    -0.005 C 
HETATM   66  C   UNK N   1      13.040   2.826   0.207  0.00  0.00     0.005 C 
ENDBRANCH  64  65
ENDBRANCH  63  64
ENDBRANCH  62  63
ENDBRANCH  61  62
ENDBRANCH  60  61
ENDBRANCH  59  60
ENDBRANCH  58  59
ENDBRANCH  57  58
ENDBRANCH  56  57
ENDBRANCH  55  56
ENDBRANCH  54  55
ENDBRANCH  53  54
ENDBRANCH  52  53
ENDBRANCH  51  52
ENDBRANCH  50  51
ENDBRANCH  49  50
ENDBRANCH  48  49
ENDBRANCH  47  48
ENDBRANCH  46  47
ENDBRANCH  45  46
ENDBRANCH  44  45
ENDBRANCH  43  44
ENDBRANCH  42  43
ENDBRANCH  40  42
BRANCH  40  67
HETATM   67  O   UNK N   1      33.866   2.853  -2.594  0.00  0.00    -0.350 OA
HETATM   68  H   UNK N   1      34.268   2.778  -3.438  0.00  0.00     0.219 HD
ENDBRANCH  40  67
ENDBRANCH  18  39
ENDBRANCH  17  18
ENDBRANCH  16  17
ENDBRANCH   5  16
TORSDOF 50
