MODEL 1
REMARK VINA RESULT:      -6.8      0.000      0.000
REMARK  4 active torsions:
REMARK  status: ('A' for Active; 'I' for Inactive)
REMARK    1  A    between atoms: O_2  and  C_3 
REMARK    2  A    between atoms: C_8  and  O_9 
REMARK    3  A    between atoms: C_17  and  O_25 
REMARK    4  A    between atoms: C_18  and  O_23 
ROOT
HETATM    1  C   UNK N   1      25.685  19.294   4.172  0.00  0.00     0.102 A 
HETATM    2  C   UNK N   1      26.527  20.176   4.866  0.00  0.00     0.040 A 
HETATM    3  C   UNK N   1      27.853  19.844   5.119  0.00  0.00     0.011 A 
HETATM    4  C   UNK N   1      28.361  18.622   4.689  0.00  0.00    -0.045 A 
HETATM    5  C   UNK N   1      27.544  17.719   3.993  0.00  0.00     0.013 A 
HETATM    6  C   UNK N   1      26.196  18.042   3.726  0.00  0.00     0.110 A 
HETATM    7  C   UNK N   1      28.095  16.385   3.531  0.00  0.00     0.315 C 
HETATM    8  N   UNK N   1      29.555  16.242   3.634  0.00  0.00     0.102 N 
HETATM    9  C   UNK N   1      29.783  14.795   3.650  0.00  0.00     0.278 C 
HETATM   10  C   UNK N   1      31.272  14.437   3.667  0.00  0.00     0.069 C 
HETATM   11  C   UNK N   1      32.093  15.363   4.514  0.00  0.00    -0.045 A 
HETATM   12  C   UNK N   1      33.446  15.081   4.720  0.00  0.00     0.047 A 
HETATM   13  C   UNK N   1      34.260  15.932   5.480  0.00  0.00     0.102 A 
HETATM   14  C   UNK N   1      33.698  17.117   6.026  0.00  0.00     0.102 A 
HETATM   15  C   UNK N   1      32.335  17.379   5.828  0.00  0.00     0.049 A 
HETATM   16  C   UNK N   1      31.526  16.512   5.084  0.00  0.00    -0.016 A 
HETATM   17  C   UNK N   1      30.054  16.800   4.901  0.00  0.00     0.261 C 
HETATM   18  C   UNK N   1      29.783  18.302   4.979  0.00  0.00     0.080 C 
ENDROOT
BRANCH   1  19
HETATM   19  O   UNK N   1      24.393  19.637   3.929  0.00  0.00    -0.353 OA
HETATM   20  C   UNK N   1      24.012  20.498   2.924  0.00  0.00     0.210 C 
ENDBRANCH   1  19
BRANCH   6  21
HETATM   21  O   UNK N   1      25.446  17.134   3.044  0.00  0.00    -0.352 OA
HETATM   22  C   UNK N   1      24.511  16.286   3.594  0.00  0.00     0.210 C 
ENDBRANCH   6  21
BRANCH  14  23
HETATM   23  O   UNK N   1      34.464  17.991   6.726  0.00  0.00    -0.353 OA
HETATM   24  C   UNK N   1      34.409  18.121   8.096  0.00  0.00     0.210 C 
ENDBRANCH  14  23
BRANCH  13  25
HETATM   25  O   UNK N   1      35.561  15.575   5.649  0.00  0.00    -0.353 OA
HETATM   26  C   UNK N   1      36.007  14.525   6.419  0.00  0.00     0.210 C 
ENDBRANCH  13  25
TORSDOF 4
ENDMDL
MODEL 2
REMARK VINA RESULT:      -6.7     11.005     14.496
REMARK  4 active torsions:
REMARK  status: ('A' for Active; 'I' for Inactive)
REMARK    1  A    between atoms: O_2  and  C_3 
REMARK    2  A    between atoms: C_8  and  O_9 
REMARK    3  A    between atoms: C_17  and  O_25 
REMARK    4  A    between atoms: C_18  and  O_23 
ROOT
HETATM    1  C   UNK N   1      34.671  11.633  11.046  0.00  0.00     0.102 A 
HETATM    2  C   UNK N   1      34.289  10.335  11.420  0.00  0.00     0.040 A 
HETATM    3  C   UNK N   1      34.208   9.975  12.760  0.00  0.00     0.011 A 
HETATM    4  C   UNK N   1      34.512  10.900  13.752  0.00  0.00    -0.045 A 
HETATM    5  C   UNK N   1      34.898  12.206  13.412  0.00  0.00     0.013 A 
HETATM    6  C   UNK N   1      34.984  12.589  12.055  0.00  0.00     0.110 A 
HETATM    7  C   UNK N   1      35.237  13.213  14.491  0.00  0.00     0.315 C 
HETATM    8  N   UNK N   1      34.885  12.805  15.859  0.00  0.00     0.102 N 
HETATM    9  C   UNK N   1      35.738  13.628  16.720  0.00  0.00     0.278 C 
HETATM   10  C   UNK N   1      35.454  13.408  18.209  0.00  0.00     0.069 C 
HETATM   11  C   UNK N   1      35.156  11.977  18.549  0.00  0.00    -0.045 A 
HETATM   12  C   UNK N   1      35.001  11.612  19.889  0.00  0.00     0.047 A 
HETATM   13  C   UNK N   1      34.694  10.294  20.253  0.00  0.00     0.102 A 
HETATM   14  C   UNK N   1      34.511   9.321  19.233  0.00  0.00     0.102 A 
HETATM   15  C   UNK N   1      34.688   9.697  17.894  0.00  0.00     0.049 A 
HETATM   16  C   UNK N   1      35.014  11.011  17.542  0.00  0.00    -0.016 A 
HETATM   17  C   UNK N   1      35.223  11.391  16.094  0.00  0.00     0.261 C 
HETATM   18  C   UNK N   1      34.415  10.477  15.174  0.00  0.00     0.080 C 
ENDROOT
BRANCH   1  19
HETATM   19  O   UNK N   1      34.741  11.970   9.733  0.00  0.00    -0.353 OA
HETATM   20  C   UNK N   1      33.634  12.106   8.924  0.00  0.00     0.210 C 
ENDBRANCH   1  19
BRANCH   6  21
HETATM   21  O   UNK N   1      35.358  13.867  11.776  0.00  0.00    -0.352 OA
HETATM   22  C   UNK N   1      34.532  14.865  11.313  0.00  0.00     0.210 C 
ENDBRANCH   6  21
BRANCH  14  23
HETATM   23  O   UNK N   1      34.164   8.047  19.543  0.00  0.00    -0.353 OA
HETATM   24  C   UNK N   1      32.860   7.608  19.595  0.00  0.00     0.210 C 
ENDBRANCH  14  23
BRANCH  13  25
HETATM   25  O   UNK N   1      34.579  10.017  21.579  0.00  0.00    -0.353 OA
HETATM   26  C   UNK N   1      33.438  10.171  22.331  0.00  0.00     0.210 C 
ENDBRANCH  13  25
TORSDOF 4
ENDMDL
MODEL 3
REMARK VINA RESULT:      -6.7      9.455     10.337
REMARK  4 active torsions:
REMARK  status: ('A' for Active; 'I' for Inactive)
REMARK    1  A    between atoms: O_2  and  C_3 
REMARK    2  A    between atoms: C_8  and  O_9 
REMARK    3  A    between atoms: C_17  and  O_25 
REMARK    4  A    between atoms: C_18  and  O_23 
ROOT
HETATM    1  C   UNK N   1      20.633  16.106   1.649  0.00  0.00     0.102 A 
HETATM    2  C   UNK N   1      21.419  14.944   1.620  0.00  0.00     0.040 A 
HETATM    3  C   UNK N   1      21.703  14.247   2.789  0.00  0.00     0.011 A 
HETATM    4  C   UNK N   1      21.213  14.700   4.009  0.00  0.00    -0.045 A 
HETATM    5  C   UNK N   1      20.425  15.859   4.071  0.00  0.00     0.013 A 
HETATM    6  C   UNK N   1      20.125  16.578   2.893  0.00  0.00     0.110 A 
HETATM    7  C   UNK N   1      19.897  16.358   5.400  0.00  0.00     0.315 C 
HETATM    8  N   UNK N   1      20.049  15.422   6.525  0.00  0.00     0.102 N 
HETATM    9  C   UNK N   1      19.976  16.267   7.719  0.00  0.00     0.278 C 
HETATM   10  C   UNK N   1      20.030  15.453   9.016  0.00  0.00     0.069 C 
HETATM   11  C   UNK N   1      20.971  14.287   8.944  0.00  0.00    -0.045 A 
HETATM   12  C   UNK N   1      21.212  13.532  10.095  0.00  0.00     0.047 A 
HETATM   13  C   UNK N   1      22.061  12.417  10.069  0.00  0.00     0.102 A 
HETATM   14  C   UNK N   1      22.663  12.036   8.840  0.00  0.00     0.102 A 
HETATM   15  C   UNK N   1      22.427  12.813   7.697  0.00  0.00     0.049 A 
HETATM   16  C   UNK N   1      21.594  13.937   7.737  0.00  0.00    -0.016 A 
HETATM   17  C   UNK N   1      21.370  14.774   6.499  0.00  0.00     0.261 C 
HETATM   18  C   UNK N   1      21.539  13.929   5.237  0.00  0.00     0.080 C 
ENDROOT
BRANCH   1  19
HETATM   19  O   UNK N   1      20.362  16.772   0.497  0.00  0.00    -0.353 OA
HETATM   20  C   UNK N   1      19.269  16.501  -0.298  0.00  0.00     0.210 C 
ENDBRANCH   1  19
BRANCH   6  21
HETATM   21  O   UNK N   1      19.353  17.692   3.005  0.00  0.00    -0.352 OA
HETATM   22  C   UNK N   1      19.776  18.988   2.810  0.00  0.00     0.210 C 
ENDBRANCH   6  21
BRANCH  14  23
HETATM   23  O   UNK N   1      23.450  10.934   8.764  0.00  0.00    -0.353 OA
HETATM   24  C   UNK N   1      23.684  10.249   7.592  0.00  0.00     0.210 C 
ENDBRANCH  14  23
BRANCH  13  25
HETATM   25  O   UNK N   1      22.259  11.749  11.236  0.00  0.00    -0.353 OA
HETATM   26  C   UNK N   1      23.294  11.967  12.116  0.00  0.00     0.210 C 
ENDBRANCH  13  25
TORSDOF 4
ENDMDL
MODEL 4
REMARK VINA RESULT:      -6.5      1.931      3.750
REMARK  4 active torsions:
REMARK  status: ('A' for Active; 'I' for Inactive)
REMARK    1  A    between atoms: O_2  and  C_3 
REMARK    2  A    between atoms: C_8  and  O_9 
REMARK    3  A    between atoms: C_17  and  O_25 
REMARK    4  A    between atoms: C_18  and  O_23 
ROOT
HETATM    1  C   UNK N   1      26.690  15.438   2.341  0.00  0.00     0.102 A 
HETATM    2  C   UNK N   1      27.949  15.050   1.859  0.00  0.00     0.040 A 
HETATM    3  C   UNK N   1      29.095  15.248   2.620  0.00  0.00     0.011 A 
HETATM    4  C   UNK N   1      29.007  15.842   3.874  0.00  0.00    -0.045 A 
HETATM    5  C   UNK N   1      27.763  16.241   4.385  0.00  0.00     0.013 A 
HETATM    6  C   UNK N   1      26.589  16.046   3.626  0.00  0.00     0.110 A 
HETATM    7  C   UNK N   1      27.666  16.895   5.748  0.00  0.00     0.315 C 
HETATM    8  N   UNK N   1      28.891  16.833   6.559  0.00  0.00     0.102 N 
HETATM    9  C   UNK N   1      28.746  17.920   7.529  0.00  0.00     0.278 C 
HETATM   10  C   UNK N   1      29.901  17.966   8.535  0.00  0.00     0.069 C 
HETATM   11  C   UNK N   1      31.231  17.642   7.923  0.00  0.00    -0.045 A 
HETATM   12  C   UNK N   1      32.388  17.768   8.697  0.00  0.00     0.047 A 
HETATM   13  C   UNK N   1      33.650  17.449   8.178  0.00  0.00     0.102 A 
HETATM   14  C   UNK N   1      33.745  16.963   6.846  0.00  0.00     0.102 A 
HETATM   15  C   UNK N   1      32.579  16.859   6.074  0.00  0.00     0.049 A 
HETATM   16  C   UNK N   1      31.326  17.200   6.595  0.00  0.00    -0.016 A 
HETATM   17  C   UNK N   1      30.084  17.103   5.740  0.00  0.00     0.261 C 
HETATM   18  C   UNK N   1      30.255  16.037   4.658  0.00  0.00     0.080 C 
ENDROOT
BRANCH   1  19
HETATM   19  O   UNK N   1      25.580  15.234   1.587  0.00  0.00    -0.353 OA
HETATM   20  C   UNK N   1      24.818  14.086   1.651  0.00  0.00     0.210 C 
ENDBRANCH   1  19
BRANCH   6  21
HETATM   21  O   UNK N   1      25.406  16.446   4.166  0.00  0.00    -0.352 OA
HETATM   22  C   UNK N   1      24.737  17.611   3.867  0.00  0.00     0.210 C 
ENDBRANCH   6  21
BRANCH  14  23
HETATM   23  O   UNK N   1      34.942  16.597   6.324  0.00  0.00    -0.353 OA
HETATM   24  C   UNK N   1      35.228  15.314   5.910  0.00  0.00     0.210 C 
ENDBRANCH  14  23
BRANCH  13  25
HETATM   25  O   UNK N   1      34.727  17.618   8.990  0.00  0.00    -0.353 OA
HETATM   26  C   UNK N   1      35.058  16.812  10.055  0.00  0.00     0.210 C 
ENDBRANCH  13  25
TORSDOF 4
ENDMDL
MODEL 5
REMARK VINA RESULT:      -6.4      3.468      9.164
REMARK  4 active torsions:
REMARK  status: ('A' for Active; 'I' for Inactive)
REMARK    1  A    between atoms: O_2  and  C_3 
REMARK    2  A    between atoms: C_8  and  O_9 
REMARK    3  A    between atoms: C_17  and  O_25 
REMARK    4  A    between atoms: C_18  and  O_23 
ROOT
HETATM    1  C   UNK N   1      36.233  14.009  10.774  0.00  0.00     0.102 A 
HETATM    2  C   UNK N   1      35.055  14.259  11.496  0.00  0.00     0.040 A 
HETATM    3  C   UNK N   1      33.930  14.778  10.865  0.00  0.00     0.011 A 
HETATM    4  C   UNK N   1      33.961  15.063   9.504  0.00  0.00    -0.045 A 
HETATM    5  C   UNK N   1      35.123  14.824   8.755  0.00  0.00     0.013 A 
HETATM    6  C   UNK N   1      36.274  14.296   9.380  0.00  0.00     0.110 A 
HETATM    7  C   UNK N   1      35.161  15.141   7.274  0.00  0.00     0.315 C 
HETATM    8  N   UNK N   1      33.857  15.450   6.668  0.00  0.00     0.102 N 
HETATM    9  C   UNK N   1      34.184  16.202   5.454  0.00  0.00     0.278 C 
HETATM   10  C   UNK N   1      32.942  16.547   4.626  0.00  0.00     0.069 C 
HETATM   11  C   UNK N   1      31.753  16.906   5.466  0.00  0.00    -0.045 A 
HETATM   12  C   UNK N   1      30.589  17.362   4.841  0.00  0.00     0.047 A 
HETATM   13  C   UNK N   1      29.443  17.681   5.582  0.00  0.00     0.102 A 
HETATM   14  C   UNK N   1      29.463  17.509   6.992  0.00  0.00     0.102 A 
HETATM   15  C   UNK N   1      30.642  17.069   7.608  0.00  0.00     0.049 A 
HETATM   16  C   UNK N   1      31.788  16.772   6.862  0.00  0.00    -0.016 A 
HETATM   17  C   UNK N   1      33.057  16.320   7.546  0.00  0.00     0.261 C 
HETATM   18  C   UNK N   1      32.739  15.617   8.866  0.00  0.00     0.080 C 
ENDROOT
BRANCH   1  19
HETATM   19  O   UNK N   1      37.321  13.498  11.405  0.00  0.00    -0.353 OA
HETATM   20  C   UNK N   1      37.408  12.189  11.830  0.00  0.00     0.210 C 
ENDBRANCH   1  19
BRANCH   6  21
HETATM   21  O   UNK N   1      37.374  14.078   8.610  0.00  0.00    -0.352 OA
HETATM   22  C   UNK N   1      37.787  12.860   8.120  0.00  0.00     0.210 C 
ENDBRANCH   6  21
BRANCH  14  23
HETATM   23  O   UNK N   1      28.358  17.760   7.738  0.00  0.00    -0.353 OA
HETATM   24  C   UNK N   1      28.380  18.495   8.903  0.00  0.00     0.210 C 
ENDBRANCH  14  23
BRANCH  13  25
HETATM   25  O   UNK N   1      28.359  18.137   4.900  0.00  0.00    -0.353 OA
HETATM   26  C   UNK N   1      28.044  19.461   4.695  0.00  0.00     0.210 C 
ENDBRANCH  13  25
TORSDOF 4
ENDMDL
MODEL 6
REMARK VINA RESULT:      -6.3      9.476     13.887
REMARK  4 active torsions:
REMARK  status: ('A' for Active; 'I' for Inactive)
REMARK    1  A    between atoms: O_2  and  C_3 
REMARK    2  A    between atoms: C_8  and  O_9 
REMARK    3  A    between atoms: C_17  and  O_25 
REMARK    4  A    between atoms: C_18  and  O_23 
ROOT
HETATM    1  C   UNK N   1      35.472  11.556  18.942  0.00  0.00     0.102 A 
HETATM    2  C   UNK N   1      35.108  12.884  18.673  0.00  0.00     0.040 A 
HETATM    3  C   UNK N   1      35.213  13.406  17.389  0.00  0.00     0.011 A 
HETATM    4  C   UNK N   1      35.689  12.613  16.350  0.00  0.00    -0.045 A 
HETATM    5  C   UNK N   1      36.061  11.281  16.586  0.00  0.00     0.013 A 
HETATM    6  C   UNK N   1      35.959  10.735  17.884  0.00  0.00     0.110 A 
HETATM    7  C   UNK N   1      36.586  10.419  15.457  0.00  0.00     0.315 C 
HETATM    8  N   UNK N   1      36.426  10.986  14.110  0.00  0.00     0.102 N 
HETATM    9  C   UNK N   1      37.421  10.286  13.294  0.00  0.00     0.278 C 
HETATM   10  C   UNK N   1      37.352  10.684  11.816  0.00  0.00     0.069 C 
HETATM   11  C   UNK N   1      37.062  12.141  11.609  0.00  0.00    -0.045 A 
HETATM   12  C   UNK N   1      37.094  12.666  10.314  0.00  0.00     0.047 A 
HETATM   13  C   UNK N   1      36.802  14.015  10.069  0.00  0.00     0.102 A 
HETATM   14  C   UNK N   1      36.441  14.852  11.158  0.00  0.00     0.102 A 
HETATM   15  C   UNK N   1      36.432  14.317  12.454  0.00  0.00     0.049 A 
HETATM   16  C   UNK N   1      36.744  12.974  12.692  0.00  0.00    -0.016 A 
HETATM   17  C   UNK N   1      36.750  12.422  14.098  0.00  0.00     0.261 C 
HETATM   18  C   UNK N   1      35.788  13.206  14.990  0.00  0.00     0.080 C 
ENDROOT
BRANCH   1  19
HETATM   19  O   UNK N   1      35.359  11.061  20.201  0.00  0.00    -0.353 OA
HETATM   20  C   UNK N   1      34.193  10.529  20.707  0.00  0.00     0.210 C 
ENDBRANCH   1  19
BRANCH   6  21
HETATM   21  O   UNK N   1      36.328   9.438  18.062  0.00  0.00    -0.352 OA
HETATM   22  C   UNK N   1      35.480   8.354  18.080  0.00  0.00     0.210 C 
ENDBRANCH   6  21
BRANCH  14  23
HETATM   23  O   UNK N   1      36.104  16.150  10.955  0.00  0.00    -0.353 OA
HETATM   24  C   UNK N   1      34.935  16.542  10.341  0.00  0.00     0.210 C 
ENDBRANCH  14  23
BRANCH  13  25
HETATM   25  O   UNK N   1      36.875  14.451   8.783  0.00  0.00    -0.353 OA
HETATM   26  C   UNK N   1      36.324  13.818   7.693  0.00  0.00     0.210 C 
ENDBRANCH  13  25
TORSDOF 4
ENDMDL
MODEL 7
REMARK VINA RESULT:      -6.2      1.903      7.839
REMARK  4 active torsions:
REMARK  status: ('A' for Active; 'I' for Inactive)
REMARK    1  A    between atoms: O_2  and  C_3 
REMARK    2  A    between atoms: C_8  and  O_9 
REMARK    3  A    between atoms: C_17  and  O_25 
REMARK    4  A    between atoms: C_18  and  O_23 
ROOT
HETATM    1  C   UNK N   1      33.271  15.740   8.117  0.00  0.00     0.102 A 
HETATM    2  C   UNK N   1      32.838  16.945   8.691  0.00  0.00     0.040 A 
HETATM    3  C   UNK N   1      31.676  17.568   8.249  0.00  0.00     0.011 A 
HETATM    4  C   UNK N   1      30.928  17.003   7.222  0.00  0.00    -0.045 A 
HETATM    5  C   UNK N   1      31.335  15.799   6.626  0.00  0.00     0.013 A 
HETATM    6  C   UNK N   1      32.512  15.153   7.065  0.00  0.00     0.110 A 
HETATM    7  C   UNK N   1      30.526  15.187   5.502  0.00  0.00     0.315 C 
HETATM    8  N   UNK N   1      29.203  15.790   5.283  0.00  0.00     0.102 N 
HETATM    9  C   UNK N   1      28.858  15.433   3.905  0.00  0.00     0.278 C 
HETATM   10  C   UNK N   1      27.455  15.906   3.511  0.00  0.00     0.069 C 
HETATM   11  C   UNK N   1      27.103  17.249   4.078  0.00  0.00    -0.045 A 
HETATM   12  C   UNK N   1      25.903  17.857   3.697  0.00  0.00     0.047 A 
HETATM   13  C   UNK N   1      25.518  19.098   4.222  0.00  0.00     0.102 A 
HETATM   14  C   UNK N   1      26.356  19.732   5.179  0.00  0.00     0.102 A 
HETATM   15  C   UNK N   1      27.565  19.120   5.538  0.00  0.00     0.049 A 
HETATM   16  C   UNK N   1      27.950  17.890   4.993  0.00  0.00    -0.016 A 
HETATM   17  C   UNK N   1      29.268  17.258   5.375  0.00  0.00     0.261 C 
HETATM   18  C   UNK N   1      29.693  17.698   6.776  0.00  0.00     0.080 C 
ENDROOT
BRANCH   1  19
HETATM   19  O   UNK N   1      34.406  15.143   8.564  0.00  0.00    -0.353 OA
HETATM   20  C   UNK N   1      34.483  14.453   9.754  0.00  0.00     0.210 C 
ENDBRANCH   1  19
BRANCH   6  21
HETATM   21  O   UNK N   1      32.862  13.986   6.459  0.00  0.00    -0.352 OA
HETATM   22  C   UNK N   1      33.849  13.835   5.512  0.00  0.00     0.210 C 
ENDBRANCH   6  21
BRANCH  14  23
HETATM   23  O   UNK N   1      25.994  20.910   5.747  0.00  0.00    -0.353 OA
HETATM   24  C   UNK N   1      26.850  21.685   6.498  0.00  0.00     0.210 C 
ENDBRANCH  14  23
BRANCH  13  25
HETATM   25  O   UNK N   1      24.346  19.631   3.785  0.00  0.00    -0.353 OA
HETATM   26  C   UNK N   1      24.218  20.560   2.779  0.00  0.00     0.210 C 
ENDBRANCH  13  25
TORSDOF 4
ENDMDL
MODEL 8
REMARK VINA RESULT:      -6.0     14.562     16.534
REMARK  4 active torsions:
REMARK  status: ('A' for Active; 'I' for Inactive)
REMARK    1  A    between atoms: O_2  and  C_3 
REMARK    2  A    between atoms: C_8  and  O_9 
REMARK    3  A    between atoms: C_17  and  O_25 
REMARK    4  A    between atoms: C_18  and  O_23 
ROOT
HETATM    1  C   UNK N   1      26.830  29.924  -3.814  0.00  0.00     0.102 A 
HETATM    2  C   UNK N   1      25.951  28.914  -3.393  0.00  0.00     0.040 A 
HETATM    3  C   UNK N   1      25.738  27.784  -4.173  0.00  0.00     0.011 A 
HETATM    4  C   UNK N   1      26.394  27.643  -5.392  0.00  0.00    -0.045 A 
HETATM    5  C   UNK N   1      27.279  28.635  -5.841  0.00  0.00     0.013 A 
HETATM    6  C   UNK N   1      27.508  29.788  -5.059  0.00  0.00     0.110 A 
HETATM    7  C   UNK N   1      27.988  28.485  -7.171  0.00  0.00     0.315 C 
HETATM    8  N   UNK N   1      27.881  27.156  -7.791  0.00  0.00     0.102 N 
HETATM    9  C   UNK N   1      28.154  27.389  -9.211  0.00  0.00     0.278 C 
HETATM   10  C   UNK N   1      28.173  26.091 -10.025  0.00  0.00     0.069 C 
HETATM   11  C   UNK N   1      27.135  25.102  -9.584  0.00  0.00    -0.045 A 
HETATM   12  C   UNK N   1      26.957  23.926 -10.319  0.00  0.00     0.047 A 
HETATM   13  C   UNK N   1      26.021  22.960  -9.929  0.00  0.00     0.102 A 
HETATM   14  C   UNK N   1      25.259  23.173  -8.749  0.00  0.00     0.102 A 
HETATM   15  C   UNK N   1      25.434  24.365  -8.032  0.00  0.00     0.049 A 
HETATM   16  C   UNK N   1      26.358  25.334  -8.440  0.00  0.00    -0.016 A 
HETATM   17  C   UNK N   1      26.515  26.622  -7.667  0.00  0.00     0.261 C 
HETATM   18  C   UNK N   1      26.140  26.421  -6.199  0.00  0.00     0.080 C 
ENDROOT
BRANCH   1  19
HETATM   19  O   UNK N   1      27.030  31.019  -3.037  0.00  0.00    -0.353 OA
HETATM   20  C   UNK N   1      27.812  31.013  -1.902  0.00  0.00     0.210 C 
ENDBRANCH   1  19
BRANCH   6  21
HETATM   21  O   UNK N   1      28.378  30.718  -5.536  0.00  0.00    -0.352 OA
HETATM   22  C   UNK N   1      29.683  30.885  -5.129  0.00  0.00     0.210 C 
ENDBRANCH   6  21
BRANCH  14  23
HETATM   23  O   UNK N   1      24.378  22.239  -8.312  0.00  0.00    -0.353 OA
HETATM   24  C   UNK N   1      24.648  21.366  -7.280  0.00  0.00     0.210 C 
ENDBRANCH  14  23
BRANCH  13  25
HETATM   25  O   UNK N   1      25.895  21.853 -10.709  0.00  0.00    -0.353 OA
HETATM   26  C   UNK N   1      26.933  21.174 -11.304  0.00  0.00     0.210 C 
ENDBRANCH  13  25
TORSDOF 4
ENDMDL
MODEL 9
REMARK VINA RESULT:      -6.0     10.332     13.348
REMARK  4 active torsions:
REMARK  status: ('A' for Active; 'I' for Inactive)
REMARK    1  A    between atoms: O_2  and  C_3 
REMARK    2  A    between atoms: C_8  and  O_9 
REMARK    3  A    between atoms: C_17  and  O_25 
REMARK    4  A    between atoms: C_18  and  O_23 
ROOT
HETATM    1  C   UNK N   1      35.991  10.898  17.190  0.00  0.00     0.102 A 
HETATM    2  C   UNK N   1      36.822   9.949  16.577  0.00  0.00     0.040 A 
HETATM    3  C   UNK N   1      37.311  10.154  15.292  0.00  0.00     0.011 A 
HETATM    4  C   UNK N   1      36.975  11.308  14.592  0.00  0.00    -0.045 A 
HETATM    5  C   UNK N   1      36.145  12.277  15.177  0.00  0.00     0.013 A 
HETATM    6  C   UNK N   1      35.641  12.084  16.482  0.00  0.00     0.110 A 
HETATM    7  C   UNK N   1      35.772  13.530  14.413  0.00  0.00     0.315 C 
HETATM    8  N   UNK N   1      36.532  13.758  13.175  0.00  0.00     0.102 N 
HETATM    9  C   UNK N   1      35.690  14.659  12.386  0.00  0.00     0.278 C 
HETATM   10  C   UNK N   1      36.358  15.088  11.076  0.00  0.00     0.069 C 
HETATM   11  C   UNK N   1      37.144  13.989  10.425  0.00  0.00    -0.045 A 
HETATM   12  C   UNK N   1      37.703  14.205   9.162  0.00  0.00     0.047 A 
HETATM   13  C   UNK N   1      38.469  13.218   8.528  0.00  0.00     0.102 A 
HETATM   14  C   UNK N   1      38.701  11.987   9.198  0.00  0.00     0.102 A 
HETATM   15  C   UNK N   1      38.119  11.776  10.456  0.00  0.00     0.049 A 
HETATM   16  C   UNK N   1      37.339  12.760  11.073  0.00  0.00    -0.016 A 
HETATM   17  C   UNK N   1      36.701  12.506  12.419  0.00  0.00     0.261 C 
HETATM   18  C   UNK N   1      37.516  11.491  13.220  0.00  0.00     0.080 C 
ENDROOT
BRANCH   1  19
HETATM   19  O   UNK N   1      35.525  10.685  18.447  0.00  0.00    -0.353 OA
HETATM   20  C   UNK N   1      34.593   9.718  18.758  0.00  0.00     0.210 C 
ENDBRANCH   1  19
BRANCH   6  21
HETATM   21  O   UNK N   1      34.845  13.054  17.007  0.00  0.00    -0.352 OA
HETATM   22  C   UNK N   1      35.214  13.968  17.968  0.00  0.00     0.210 C 
ENDBRANCH   6  21
BRANCH  14  23
HETATM   23  O   UNK N   1      39.478  11.026   8.638  0.00  0.00    -0.353 OA
HETATM   24  C   UNK N   1      40.848  10.983   8.777  0.00  0.00     0.210 C 
ENDBRANCH  14  23
BRANCH  13  25
HETATM   25  O   UNK N   1      38.960  13.499   7.292  0.00  0.00    -0.353 OA
HETATM   26  C   UNK N   1      40.072  14.267   7.030  0.00  0.00     0.210 C 
ENDBRANCH  13  25
TORSDOF 4
ENDMDL
