MODEL 1
REMARK VINA RESULT:      -7.3      0.000      0.000
REMARK  19 active torsions:
REMARK  status: ('A' for Active; 'I' for Inactive)
REMARK    1  A    between atoms: C_4  and  O_57 
REMARK    2  A    between atoms: C_8  and  O_55 
REMARK    3  A    between atoms: C_11  and  O_50 
REMARK    4  A    between atoms: C_13  and  O_39 
REMARK    5  A    between atoms: C_14  and  O_38 
REMARK    6  A    between atoms: C_19  and  O_20 
REMARK    7  A    between atoms: O_20  and  C_21 
REMARK    8  A    between atoms: C_21  and  C_23 
REMARK    9  A    between atoms: C_23  and  C_24 
REMARK   10  A    between atoms: C_23  and  O_37 
REMARK   11  A    between atoms: C_24  and  C_25 
REMARK   12  A    between atoms: C_24  and  N_29 
REMARK       I    between atoms: N_29  and  C_30 
REMARK   13  A    between atoms: C_30  and  O_32 
REMARK   14  A    between atoms: O_32  and  C_33 
REMARK   15  A    between atoms: O_39  and  C_40 
REMARK   16  A    between atoms: C_40  and  C_42 
REMARK   17  A    between atoms: O_50  and  C_51 
REMARK   18  A    between atoms: C_51  and  O_53 
REMARK   19  A    between atoms: O_57  and  C_58 
ROOT
HETATM    1  C   UNK N   1      26.296  17.433   2.796  0.00  0.00     0.046 C 
HETATM    2  C   UNK N   1      25.693  16.327   3.598  0.00  0.00    -0.048 C 
HETATM    3  C   UNK N   1      24.367  16.302   3.878  0.00  0.00    -0.028 C 
HETATM    4  C   UNK N   1      23.143  17.224   3.553  0.00  0.00     0.232 C 
HETATM    5  C   UNK N   1      21.635  16.561   3.749  0.00  0.00     0.171 C 
HETATM    6  O   UNK N   1      20.810  17.085   3.016  0.00  0.00    -0.294 OA
HETATM    7  C   UNK N   1      21.057  15.272   4.708  0.00  0.00     0.055 C 
HETATM    8  C   UNK N   1      19.550  15.154   4.401  0.00  0.00     0.137 C 
HETATM    9  C   UNK N   1      19.305  14.416   3.116  0.00  0.00     0.068 C 
HETATM   10  C   UNK N   1      19.449  12.926   3.410  0.00  0.00     0.162 A 
HETATM   11  C   UNK N   1      20.621  12.535   4.299  0.00  0.00     0.127 A 
HETATM   12  C   UNK N   1      21.651  13.641   4.703  0.00  0.00     0.076 C 
HETATM   13  C   UNK N   1      23.202  13.001   5.038  0.00  0.00     0.176 C 
HETATM   14  C   UNK N   1      24.504  13.906   4.959  0.00  0.00     0.098 C 
HETATM   15  C   UNK N   1      23.887  15.138   4.464  0.00  0.00     0.013 C 
HETATM   16  C   UNK N   1      23.484  15.830   5.803  0.00  0.00     0.023 C 
HETATM   17  C   UNK N   1      23.347  14.650   3.004  0.00  0.00     0.023 C 
HETATM   18  C   UNK N   1      25.743  13.784   3.989  0.00  0.00     0.078 C 
HETATM   19  C   UNK N   1      26.557  15.133   4.102  0.00  0.00     0.164 C 
HETATM   20  C   UNK N   1      19.531  12.280   5.319  0.00  0.00     0.210 A 
HETATM   21  O   UNK N   1      18.508  12.552   4.390  0.00  0.00    -0.380 OA
HETATM   22  C   UNK N   1      20.903  15.709   6.171  0.00  0.00     0.027 C 
ENDROOT
BRANCH  19  23
HETATM   23  O   UNK N   1      26.728  15.297   5.464  0.00  0.00    -0.309 OA
BRANCH  23  24
HETATM   24  C   UNK N   1      27.566  16.132   6.103  0.00  0.00     0.290 C 
HETATM   25  O   UNK N   1      28.771  15.970   5.997  0.00  0.00    -0.262 OA
BRANCH  24  26
HETATM   26  C   UNK N   1      27.039  17.144   7.033  0.00  0.00     0.241 C 
BRANCH  26  27
HETATM   27  C   UNK N   1      27.998  18.340   6.925  0.00  0.00     0.132 C 
BRANCH  27  28
HETATM   28  C   UNK N   1      27.568  19.540   6.016  0.00  0.00    -0.028 C 
HETATM   29  C   UNK N   1      27.762  20.886   6.696  0.00  0.00     0.016 C 
HETATM   30  C   UNK N   1      26.094  19.408   5.673  0.00  0.00     0.016 C 
HETATM   31  C   UNK N   1      28.321  19.560   4.701  0.00  0.00     0.016 C 
ENDBRANCH  27  28
BRANCH  27  32
HETATM   32  N   UNK N   1      28.646  18.656   8.173  0.00  0.00    -0.329 N 
HETATM   33  C   UNK N   1      29.959  18.462   8.403  0.00  0.00     0.361 C 
HETATM   34  O   UNK N   1      30.430  18.792   9.474  0.00  0.00    -0.238 OA
HETATM   35  H   UNK N   1      28.098  19.037   8.898  0.00  0.00     0.165 HD
BRANCH  33  36
HETATM   36  O   UNK N   1      30.734  17.883   7.443  0.00  0.00    -0.294 OA
BRANCH  36  37
HETATM   37  C   UNK N   1      31.879  17.151   7.694  0.00  0.00     0.061 C 
HETATM   38  C   UNK N   1      32.305  16.474   6.410  0.00  0.00     0.046 C 
HETATM   39  C   UNK N   1      31.607  16.076   8.734  0.00  0.00     0.046 C 
HETATM   40  C   UNK N   1      33.010  18.053   8.162  0.00  0.00     0.046 C 
ENDBRANCH  36  37
ENDBRANCH  33  36
ENDBRANCH  27  32
ENDBRANCH  26  27
BRANCH  26  41
HETATM   41  O   UNK N   1      27.037  16.616   8.325  0.00  0.00    -0.383 OA
HETATM   42  H   UNK N   1      27.107  16.903   9.250  0.00  0.00     0.210 HD
ENDBRANCH  26  41
ENDBRANCH  24  26
ENDBRANCH  23  24
ENDBRANCH  19  23
BRANCH  14  43
HETATM   43  O   UNK N   1      24.979  13.934   6.291  0.00  0.00    -0.386 OA
HETATM   44  H   UNK N   1      25.111  13.600   7.192  0.00  0.00     0.210 HD
ENDBRANCH  14  43
BRANCH  13  45
HETATM   45  O   UNK N   1      23.422  11.623   5.279  0.00  0.00    -0.308 OA
BRANCH  45  46
HETATM   46  C   UNK N   1      23.188  10.943   6.472  0.00  0.00     0.293 C 
HETATM   47  O   UNK N   1      23.079   9.731   6.497  0.00  0.00    -0.259 OA
BRANCH  46  48
HETATM   48  C   UNK N   1      23.036  11.622   7.774  0.00  0.00     0.039 A 
HETATM   49  C   UNK N   1      21.803  12.241   8.067  0.00  0.00     0.017 A 
HETATM   50  C   UNK N   1      21.605  12.909   9.273  0.00  0.00     0.001 A 
HETATM   51  C   UNK N   1      22.637  12.959  10.209  0.00  0.00     0.000 A 
HETATM   52  C   UNK N   1      23.861  12.340   9.932  0.00  0.00     0.001 A 
HETATM   53  C   UNK N   1      24.061  11.676   8.714  0.00  0.00     0.017 A 
ENDBRANCH  46  48
ENDBRANCH  45  46
ENDBRANCH  13  45
BRANCH   4  54
HETATM   54  O   UNK N   1      23.348  18.509   4.033  0.00  0.00    -0.304 OA
BRANCH  54  55
HETATM   55  C   UNK N   1      23.086  19.685   3.408  0.00  0.00     0.255 C 
HETATM   56  O   UNK N   1      21.954  20.133   3.339  0.00  0.00    -0.266 OA
HETATM   57  C   UNK N   1      24.214  20.458   2.820  0.00  0.00     0.126 C 
ENDBRANCH  54  55
ENDBRANCH   4  54
BRANCH  11  58
HETATM   58  O   UNK N   1      21.184  11.391   3.744  0.00  0.00    -0.281 OA
BRANCH  58  59
HETATM   59  C   UNK N   1      21.192  11.048   2.427  0.00  0.00     0.407 C 
HETATM   60  O   UNK N   1      20.350  10.283   1.973  0.00  0.00    -0.229 OA
BRANCH  59  61
HETATM   61  O   UNK N   1      22.146  11.572   1.622  0.00  0.00    -0.303 OA
HETATM   62  C   UNK N   1      23.471  11.222   1.726  0.00  0.00     0.215 C 
ENDBRANCH  59  61
ENDBRANCH  58  59
ENDBRANCH  11  58
BRANCH   8  63
HETATM   63  O   UNK N   1      18.838  16.360   4.458  0.00  0.00    -0.394 OA
HETATM   64  H   UNK N   1      18.680  16.803   5.306  0.00  0.00     0.210 HD
ENDBRANCH   8  63
TORSDOF 19
ENDMDL
MODEL 2
REMARK VINA RESULT:      -7.2      3.061      9.543
REMARK  19 active torsions:
REMARK  status: ('A' for Active; 'I' for Inactive)
REMARK    1  A    between atoms: C_4  and  O_57 
REMARK    2  A    between atoms: C_8  and  O_55 
REMARK    3  A    between atoms: C_11  and  O_50 
REMARK    4  A    between atoms: C_13  and  O_39 
REMARK    5  A    between atoms: C_14  and  O_38 
REMARK    6  A    between atoms: C_19  and  O_20 
REMARK    7  A    between atoms: O_20  and  C_21 
REMARK    8  A    between atoms: C_21  and  C_23 
REMARK    9  A    between atoms: C_23  and  C_24 
REMARK   10  A    between atoms: C_23  and  O_37 
REMARK   11  A    between atoms: C_24  and  C_25 
REMARK   12  A    between atoms: C_24  and  N_29 
REMARK       I    between atoms: N_29  and  C_30 
REMARK   13  A    between atoms: C_30  and  O_32 
REMARK   14  A    between atoms: O_32  and  C_33 
REMARK   15  A    between atoms: O_39  and  C_40 
REMARK   16  A    between atoms: C_40  and  C_42 
REMARK   17  A    between atoms: O_50  and  C_51 
REMARK   18  A    between atoms: C_51  and  O_53 
REMARK   19  A    between atoms: O_57  and  C_58 
ROOT
HETATM    1  C   UNK N   1      25.243  14.381   0.966  0.00  0.00     0.046 C 
HETATM    2  C   UNK N   1      26.030  14.588   2.218  0.00  0.00    -0.048 C 
HETATM    3  C   UNK N   1      27.219  13.966   2.416  0.00  0.00    -0.028 C 
HETATM    4  C   UNK N   1      28.102  12.967   1.593  0.00  0.00     0.232 C 
HETATM    5  C   UNK N   1      29.686  12.811   2.061  0.00  0.00     0.171 C 
HETATM    6  O   UNK N   1      30.404  12.479   1.129  0.00  0.00    -0.294 OA
HETATM    7  C   UNK N   1      30.483  13.088   3.545  0.00  0.00     0.055 C 
HETATM    8  C   UNK N   1      31.973  12.773   3.294  0.00  0.00     0.137 C 
HETATM    9  C   UNK N   1      32.669  13.915   2.612  0.00  0.00     0.068 C 
HETATM   10  C   UNK N   1      32.982  14.962   3.676  0.00  0.00     0.162 A 
HETATM   11  C   UNK N   1      31.870  15.240   4.680  0.00  0.00     0.127 A 
HETATM   12  C   UNK N   1      30.477  14.567   4.454  0.00  0.00     0.076 C 
HETATM   13  C   UNK N   1      29.195  15.465   5.143  0.00  0.00     0.176 C 
HETATM   14  C   UNK N   1      27.701  15.298   4.633  0.00  0.00     0.098 C 
HETATM   15  C   UNK N   1      27.948  14.377   3.522  0.00  0.00     0.013 C 
HETATM   16  C   UNK N   1      27.857  13.000   4.250  0.00  0.00     0.023 C 
HETATM   17  C   UNK N   1      28.867  15.307   2.547  0.00  0.00     0.023 C 
HETATM   18  C   UNK N   1      26.764  16.359   3.936  0.00  0.00     0.078 C 
HETATM   19  C   UNK N   1      25.540  15.568   3.325  0.00  0.00     0.164 C 
HETATM   20  C   UNK N   1      32.788  14.499   5.630  0.00  0.00     0.210 A 
HETATM   21  O   UNK N   1      33.807  14.389   4.665  0.00  0.00    -0.380 OA
HETATM   22  C   UNK N   1      30.225  11.935   4.525  0.00  0.00     0.027 C 
ENDROOT
BRANCH  19  23
HETATM   23  O   UNK N   1      25.088  14.800   4.382  0.00  0.00    -0.309 OA
BRANCH  23  24
HETATM   24  C   UNK N   1      23.829  14.660   4.832  0.00  0.00     0.290 C 
HETATM   25  O   UNK N   1      22.910  14.603   4.032  0.00  0.00    -0.262 OA
BRANCH  24  26
HETATM   26  C   UNK N   1      23.547  14.715   6.275  0.00  0.00     0.241 C 
BRANCH  26  27
HETATM   27  C   UNK N   1      22.094  15.204   6.392  0.00  0.00     0.132 C 
BRANCH  27  28
HETATM   28  C   UNK N   1      21.007  14.162   6.820  0.00  0.00    -0.028 C 
HETATM   29  C   UNK N   1      21.568  12.754   6.948  0.00  0.00     0.016 C 
HETATM   30  C   UNK N   1      19.908  14.123   5.772  0.00  0.00     0.016 C 
HETATM   31  C   UNK N   1      20.346  14.531   8.133  0.00  0.00     0.016 C 
ENDBRANCH  27  28
BRANCH  27  32
HETATM   32  N   UNK N   1      21.989  16.531   6.942  0.00  0.00    -0.329 N 
HETATM   33  C   UNK N   1      21.384  17.557   6.310  0.00  0.00     0.361 C 
HETATM   34  O   UNK N   1      21.309  18.635   6.864  0.00  0.00    -0.238 OA
HETATM   35  H   UNK N   1      22.380  16.699   7.830  0.00  0.00     0.165 HD
BRANCH  33  36
HETATM   36  O   UNK N   1      20.884  17.375   5.054  0.00  0.00    -0.294 OA
BRANCH  36  37
HETATM   37  C   UNK N   1      21.381  17.980   3.916  0.00  0.00     0.061 C 
HETATM   38  C   UNK N   1      21.005  17.133   2.721  0.00  0.00     0.046 C 
HETATM   39  C   UNK N   1      22.898  18.071   3.979  0.00  0.00     0.046 C 
HETATM   40  C   UNK N   1      20.785  19.366   3.732  0.00  0.00     0.046 C 
ENDBRANCH  36  37
ENDBRANCH  33  36
ENDBRANCH  27  32
ENDBRANCH  26  27
BRANCH  26  41
HETATM   41  O   UNK N   1      24.429  15.616   6.876  0.00  0.00    -0.383 OA
HETATM   42  H   UNK N   1      25.276  15.628   7.350  0.00  0.00     0.210 HD
ENDBRANCH  26  41
ENDBRANCH  24  26
ENDBRANCH  23  24
ENDBRANCH  19  23
BRANCH  14  43
HETATM   43  O   UNK N   1      27.018  14.764   5.751  0.00  0.00    -0.386 OA
HETATM   44  H   UNK N   1      26.602  14.070   6.287  0.00  0.00     0.210 HD
ENDBRANCH  14  43
BRANCH  13  45
HETATM   45  O   UNK N   1      29.408  16.483   6.106  0.00  0.00    -0.308 OA
BRANCH  45  46
HETATM   46  C   UNK N   1      28.426  17.236   6.744  0.00  0.00     0.293 C 
HETATM   47  O   UNK N   1      27.797  16.785   7.685  0.00  0.00    -0.259 OA
BRANCH  46  48
HETATM   48  C   UNK N   1      28.058  18.604   6.331  0.00  0.00     0.039 A 
HETATM   49  C   UNK N   1      27.501  19.469   7.296  0.00  0.00     0.017 A 
HETATM   50  C   UNK N   1      27.121  20.767   6.961  0.00  0.00     0.001 A 
HETATM   51  C   UNK N   1      27.303  21.221   5.655  0.00  0.00     0.000 A 
HETATM   52  C   UNK N   1      27.864  20.374   4.693  0.00  0.00     0.001 A 
HETATM   53  C   UNK N   1      28.237  19.066   5.030  0.00  0.00     0.017 A 
ENDBRANCH  46  48
ENDBRANCH  45  46
ENDBRANCH  13  45
BRANCH   4  54
HETATM   54  O   UNK N   1      27.399  11.807   1.301  0.00  0.00    -0.304 OA
BRANCH  54  55
HETATM   55  C   UNK N   1      27.855  10.529   1.318  0.00  0.00     0.255 C 
HETATM   56  O   UNK N   1      28.348  10.014   0.329  0.00  0.00    -0.266 OA
HETATM   57  C   UNK N   1      27.778   9.752   2.585  0.00  0.00     0.126 C 
ENDBRANCH  54  55
ENDBRANCH   4  54
BRANCH  11  58
HETATM   58  O   UNK N   1      31.827  16.618   4.861  0.00  0.00    -0.281 OA
BRANCH  58  59
HETATM   59  C   UNK N   1      32.615  17.352   5.694  0.00  0.00     0.407 C 
HETATM   60  O   UNK N   1      33.642  17.879   5.285  0.00  0.00    -0.229 OA
BRANCH  59  61
HETATM   61  O   UNK N   1      32.241  17.494   6.987  0.00  0.00    -0.303 OA
HETATM   62  C   UNK N   1      33.152  17.673   8.002  0.00  0.00     0.215 C 
ENDBRANCH  59  61
ENDBRANCH  58  59
ENDBRANCH  11  58
BRANCH   8  63
HETATM   63  O   UNK N   1      32.220  11.550   2.656  0.00  0.00    -0.394 OA
HETATM   64  H   UNK N   1      31.945  10.714   3.064  0.00  0.00     0.210 HD
ENDBRANCH   8  63
TORSDOF 19
ENDMDL
MODEL 3
REMARK VINA RESULT:      -7.1      2.596      8.244
REMARK  19 active torsions:
REMARK  status: ('A' for Active; 'I' for Inactive)
REMARK    1  A    between atoms: C_4  and  O_57 
REMARK    2  A    between atoms: C_8  and  O_55 
REMARK    3  A    between atoms: C_11  and  O_50 
REMARK    4  A    between atoms: C_13  and  O_39 
REMARK    5  A    between atoms: C_14  and  O_38 
REMARK    6  A    between atoms: C_19  and  O_20 
REMARK    7  A    between atoms: O_20  and  C_21 
REMARK    8  A    between atoms: C_21  and  C_23 
REMARK    9  A    between atoms: C_23  and  C_24 
REMARK   10  A    between atoms: C_23  and  O_37 
REMARK   11  A    between atoms: C_24  and  C_25 
REMARK   12  A    between atoms: C_24  and  N_29 
REMARK       I    between atoms: N_29  and  C_30 
REMARK   13  A    between atoms: C_30  and  O_32 
REMARK   14  A    between atoms: O_32  and  C_33 
REMARK   15  A    between atoms: O_39  and  C_40 
REMARK   16  A    between atoms: C_40  and  C_42 
REMARK   17  A    between atoms: O_50  and  C_51 
REMARK   18  A    between atoms: C_51  and  O_53 
REMARK   19  A    between atoms: O_57  and  C_58 
ROOT
HETATM    1  C   UNK N   1      27.810  11.859   1.718  0.00  0.00     0.046 C 
HETATM    2  C   UNK N   1      26.816  12.799   2.315  0.00  0.00    -0.048 C 
HETATM    3  C   UNK N   1      27.194  13.761   3.194  0.00  0.00    -0.028 C 
HETATM    4  C   UNK N   1      28.550  14.212   3.834  0.00  0.00     0.232 C 
HETATM    5  C   UNK N   1      28.582  15.717   4.532  0.00  0.00     0.171 C 
HETATM    6  O   UNK N   1      29.705  16.200   4.518  0.00  0.00    -0.294 OA
HETATM    7  C   UNK N   1      27.359  16.712   5.185  0.00  0.00     0.055 C 
HETATM    8  C   UNK N   1      28.062  18.004   5.651  0.00  0.00     0.137 C 
HETATM    9  C   UNK N   1      28.321  18.935   4.502  0.00  0.00     0.068 C 
HETATM   10  C   UNK N   1      27.013  19.657   4.194  0.00  0.00     0.162 A 
HETATM   11  C   UNK N   1      25.760  18.792   4.204  0.00  0.00     0.127 A 
HETATM   12  C   UNK N   1      25.923  17.245   4.368  0.00  0.00     0.076 C 
HETATM   13  C   UNK N   1      24.633  16.371   3.663  0.00  0.00     0.176 C 
HETATM   14  C   UNK N   1      24.798  14.851   3.238  0.00  0.00     0.098 C 
HETATM   15  C   UNK N   1      26.223  14.692   3.536  0.00  0.00     0.013 C 
HETATM   16  C   UNK N   1      26.169  14.269   5.037  0.00  0.00     0.023 C 
HETATM   17  C   UNK N   1      26.881  15.739   2.473  0.00  0.00     0.023 C 
HETATM   18  C   UNK N   1      24.723  14.207   1.799  0.00  0.00     0.078 C 
HETATM   19  C   UNK N   1      25.312  12.744   1.913  0.00  0.00     0.164 C 
HETATM   20  C   UNK N   1      25.471  19.540   5.490  0.00  0.00     0.210 A 
HETATM   21  O   UNK N   1      26.597  20.372   5.335  0.00  0.00    -0.380 OA
HETATM   22  C   UNK N   1      26.948  16.225   6.582  0.00  0.00     0.027 C 
ENDROOT
BRANCH  19  23
HETATM   23  O   UNK N   1      24.622  12.197   2.979  0.00  0.00    -0.309 OA
BRANCH  23  24
HETATM   24  C   UNK N   1      24.117  10.957   3.095  0.00  0.00     0.290 C 
HETATM   25  O   UNK N   1      24.875  10.002   3.131  0.00  0.00    -0.262 OA
BRANCH  24  26
HETATM   26  C   UNK N   1      22.662  10.741   3.041  0.00  0.00     0.241 C 
BRANCH  26  27
HETATM   27  C   UNK N   1      22.152  11.017   4.465  0.00  0.00     0.132 C 
BRANCH  27  28
HETATM   28  C   UNK N   1      20.613  11.228   4.659  0.00  0.00    -0.028 C 
HETATM   29  C   UNK N   1      19.897   9.950   5.067  0.00  0.00     0.016 C 
HETATM   30  C   UNK N   1      20.001  11.699   3.351  0.00  0.00     0.016 C 
HETATM   31  C   UNK N   1      20.308  12.294   5.693  0.00  0.00     0.016 C 
ENDBRANCH  27  28
BRANCH  27  32
HETATM   32  N   UNK N   1      22.846  10.253   5.470  0.00  0.00    -0.329 N 
HETATM   33  C   UNK N   1      23.562  10.807   6.469  0.00  0.00     0.361 C 
HETATM   34  O   UNK N   1      24.085  10.086   7.295  0.00  0.00    -0.238 OA
HETATM   35  H   UNK N   1      22.795   9.270   5.425  0.00  0.00     0.165 HD
BRANCH  33  36
HETATM   36  O   UNK N   1      23.703  12.161   6.527  0.00  0.00    -0.294 OA
BRANCH  36  37
HETATM   37  C   UNK N   1      23.522  12.921   7.666  0.00  0.00     0.061 C 
HETATM   38  C   UNK N   1      22.504  12.229   8.545  0.00  0.00     0.046 C 
HETATM   39  C   UNK N   1      22.988  14.299   7.309  0.00  0.00     0.046 C 
HETATM   40  C   UNK N   1      24.821  13.052   8.445  0.00  0.00     0.046 C 
ENDBRANCH  36  37
ENDBRANCH  33  36
ENDBRANCH  27  32
ENDBRANCH  26  27
BRANCH  26  41
HETATM   41  O   UNK N   1      22.414   9.419   2.667  0.00  0.00    -0.383 OA
HETATM   42  H   UNK N   1      22.857   8.556   2.635  0.00  0.00     0.210 HD
ENDBRANCH  26  41
ENDBRANCH  24  26
ENDBRANCH  23  24
ENDBRANCH  19  23
BRANCH  14  43
HETATM   43  O   UNK N   1      23.900  14.161   4.085  0.00  0.00    -0.386 OA
HETATM   44  H   UNK N   1      23.125  14.059   4.660  0.00  0.00     0.210 HD
ENDBRANCH  14  43
BRANCH  13  45
HETATM   45  O   UNK N   1      23.403  16.980   3.310  0.00  0.00    -0.308 OA
BRANCH  45  46
HETATM   46  C   UNK N   1      22.130  16.455   3.522  0.00  0.00     0.293 C 
HETATM   47  O   UNK N   1      21.541  15.853   2.641  0.00  0.00    -0.259 OA
BRANCH  46  48
HETATM   48  C   UNK N   1      21.396  16.598   4.795  0.00  0.00     0.039 A 
HETATM   49  C   UNK N   1      20.276  15.771   5.019  0.00  0.00     0.017 A 
HETATM   50  C   UNK N   1      19.536  15.871   6.196  0.00  0.00     0.001 A 
HETATM   51  C   UNK N   1      19.913  16.795   7.168  0.00  0.00     0.000 A 
HETATM   52  C   UNK N   1      21.028  17.614   6.959  0.00  0.00     0.001 A 
HETATM   53  C   UNK N   1      21.766  17.518   5.771  0.00  0.00     0.017 A 
ENDBRANCH  46  48
ENDBRANCH  45  46
ENDBRANCH  13  45
BRANCH   4  54
HETATM   54  O   UNK N   1      29.145  13.167   4.526  0.00  0.00    -0.304 OA
BRANCH  54  55
HETATM   55  C   UNK N   1      30.413  12.701   4.404  0.00  0.00     0.255 C 
HETATM   56  O   UNK N   1      30.951  12.069   5.298  0.00  0.00    -0.266 OA
HETATM   57  C   UNK N   1      31.151  12.940   3.133  0.00  0.00     0.126 C 
ENDBRANCH  54  55
ENDBRANCH   4  54
BRANCH  11  58
HETATM   58  O   UNK N   1      24.992  19.183   3.113  0.00  0.00    -0.281 OA
BRANCH  58  59
HETATM   59  C   UNK N   1      24.693  20.459   2.747  0.00  0.00     0.407 C 
HETATM   60  O   UNK N   1      25.500  21.140   2.126  0.00  0.00    -0.229 OA
BRANCH  59  61
HETATM   61  O   UNK N   1      23.482  20.966   3.077  0.00  0.00    -0.303 OA
HETATM   62  C   UNK N   1      22.306  20.327   2.761  0.00  0.00     0.215 C 
ENDBRANCH  59  61
ENDBRANCH  58  59
ENDBRANCH  11  58
BRANCH   8  63
HETATM   63  O   UNK N   1      29.207  17.805   6.434  0.00  0.00    -0.394 OA
HETATM   64  H   UNK N   1      29.440  18.429   7.140  0.00  0.00     0.210 HD
ENDBRANCH   8  63
TORSDOF 19
ENDMDL
MODEL 4
REMARK VINA RESULT:      -7.1      2.587      4.683
REMARK  19 active torsions:
REMARK  status: ('A' for Active; 'I' for Inactive)
REMARK    1  A    between atoms: C_4  and  O_57 
REMARK    2  A    between atoms: C_8  and  O_55 
REMARK    3  A    between atoms: C_11  and  O_50 
REMARK    4  A    between atoms: C_13  and  O_39 
REMARK    5  A    between atoms: C_14  and  O_38 
REMARK    6  A    between atoms: C_19  and  O_20 
REMARK    7  A    between atoms: O_20  and  C_21 
REMARK    8  A    between atoms: C_21  and  C_23 
REMARK    9  A    between atoms: C_23  and  C_24 
REMARK   10  A    between atoms: C_23  and  O_37 
REMARK   11  A    between atoms: C_24  and  C_25 
REMARK   12  A    between atoms: C_24  and  N_29 
REMARK       I    between atoms: N_29  and  C_30 
REMARK   13  A    between atoms: C_30  and  O_32 
REMARK   14  A    between atoms: O_32  and  C_33 
REMARK   15  A    between atoms: O_39  and  C_40 
REMARK   16  A    between atoms: C_40  and  C_42 
REMARK   17  A    between atoms: O_50  and  C_51 
REMARK   18  A    between atoms: C_51  and  O_53 
REMARK   19  A    between atoms: O_57  and  C_58 
ROOT
HETATM    1  C   UNK N   1      25.032  19.139   3.601  0.00  0.00     0.046 C 
HETATM    2  C   UNK N   1      25.503  17.763   3.939  0.00  0.00    -0.048 C 
HETATM    3  C   UNK N   1      24.649  16.820   4.409  0.00  0.00    -0.028 C 
HETATM    4  C   UNK N   1      23.118  16.769   4.733  0.00  0.00     0.232 C 
HETATM    5  C   UNK N   1      22.436  15.264   4.884  0.00  0.00     0.171 C 
HETATM    6  O   UNK N   1      21.246  15.274   4.606  0.00  0.00    -0.294 OA
HETATM    7  C   UNK N   1      23.088  13.735   5.277  0.00  0.00     0.055 C 
HETATM    8  C   UNK N   1      21.911  12.741   5.218  0.00  0.00     0.137 C 
HETATM    9  C   UNK N   1      21.601  12.337   3.805  0.00  0.00     0.068 C 
HETATM   10  C   UNK N   1      22.623  11.282   3.397  0.00  0.00     0.162 A 
HETATM   11  C   UNK N   1      24.063  11.558   3.809  0.00  0.00     0.127 A 
HETATM   12  C   UNK N   1      24.399  12.938   4.464  0.00  0.00     0.076 C 
HETATM   13  C   UNK N   1      26.025  13.404   4.213  0.00  0.00     0.176 C 
HETATM   14  C   UNK N   1      26.473  14.925   4.306  0.00  0.00     0.098 C 
HETATM   15  C   UNK N   1      25.155  15.532   4.508  0.00  0.00     0.013 C 
HETATM   16  C   UNK N   1      25.033  15.469   6.062  0.00  0.00     0.023 C 
HETATM   17  C   UNK N   1      24.422  15.156   3.100  0.00  0.00     0.023 C 
HETATM   18  C   UNK N   1      27.060  15.859   3.178  0.00  0.00     0.078 C 
HETATM   19  C   UNK N   1      26.987  17.343   3.718  0.00  0.00     0.164 C 
HETATM   20  C   UNK N   1      23.807  10.434   4.793  0.00  0.00     0.210 A 
HETATM   21  O   UNK N   1      22.526  10.177   4.267  0.00  0.00    -0.380 OA
HETATM   22  C   UNK N   1      23.337  13.622   6.787  0.00  0.00     0.027 C 
ENDROOT
BRANCH  19  23
HETATM   23  O   UNK N   1      27.581  17.265   4.965  0.00  0.00    -0.309 OA
BRANCH  23  24
HETATM   24  C   UNK N   1      28.314  18.198   5.597  0.00  0.00     0.290 C 
HETATM   25  O   UNK N   1      28.897  19.047   4.944  0.00  0.00    -0.262 OA
BRANCH  24  26
HETATM   26  C   UNK N   1      28.525  18.115   7.051  0.00  0.00     0.241 C 
BRANCH  26  27
HETATM   27  C   UNK N   1      29.837  17.334   7.233  0.00  0.00     0.132 C 
BRANCH  27  28
HETATM   28  C   UNK N   1      30.661  17.588   8.539  0.00  0.00    -0.028 C 
HETATM   29  C   UNK N   1      30.061  18.688   9.402  0.00  0.00     0.016 C 
HETATM   30  C   UNK N   1      32.071  18.014   8.169  0.00  0.00     0.016 C 
HETATM   31  C   UNK N   1      30.790  16.338   9.386  0.00  0.00     0.016 C 
ENDBRANCH  27  28
BRANCH  27  32
HETATM   32  N   UNK N   1      29.754  15.977   6.757  0.00  0.00    -0.329 N 
HETATM   33  C   UNK N   1      30.692  15.398   5.982  0.00  0.00     0.361 C 
HETATM   34  O   UNK N   1      30.559  14.234   5.657  0.00  0.00    -0.238 OA
HETATM   35  H   UNK N   1      28.968  15.441   7.014  0.00  0.00     0.165 HD
BRANCH  33  36
HETATM   36  O   UNK N   1      31.763  16.128   5.559  0.00  0.00    -0.294 OA
BRANCH  36  37
HETATM   37  C   UNK N   1      31.987  16.507   4.249  0.00  0.00     0.061 C 
HETATM   38  C   UNK N   1      33.046  15.599   3.664  0.00  0.00     0.046 C 
HETATM   39  C   UNK N   1      32.497  17.937   4.187  0.00  0.00     0.046 C 
HETATM   40  C   UNK N   1      30.722  16.369   3.418  0.00  0.00     0.046 C 
ENDBRANCH  36  37
ENDBRANCH  33  36
ENDBRANCH  27  32
ENDBRANCH  26  27
BRANCH  26  41
HETATM   41  O   UNK N   1      27.451  17.433   7.628  0.00  0.00    -0.383 OA
HETATM   42  H   UNK N   1      27.010  16.569   7.595  0.00  0.00     0.210 HD
ENDBRANCH  26  41
ENDBRANCH  24  26
ENDBRANCH  23  24
ENDBRANCH  19  23
BRANCH  14  43
HETATM   43  O   UNK N   1      27.352  14.953   5.414  0.00  0.00    -0.386 OA
HETATM   44  H   UNK N   1      27.978  14.586   6.058  0.00  0.00     0.210 HD
ENDBRANCH  14  43
BRANCH  13  45
HETATM   45  O   UNK N   1      27.024  12.492   3.792  0.00  0.00    -0.308 OA
BRANCH  45  46
HETATM   46  C   UNK N   1      27.891  12.655   2.714  0.00  0.00     0.293 C 
HETATM   47  O   UNK N   1      27.484  13.022   1.627  0.00  0.00    -0.259 OA
BRANCH  46  48
HETATM   48  C   UNK N   1      29.340  12.383   2.793  0.00  0.00     0.039 A 
HETATM   49  C   UNK N   1      29.801  11.485   3.778  0.00  0.00     0.017 A 
HETATM   50  C   UNK N   1      31.158  11.201   3.910  0.00  0.00     0.001 A 
HETATM   51  C   UNK N   1      32.074  11.805   3.049  0.00  0.00     0.000 A 
HETATM   52  C   UNK N   1      31.626  12.689   2.062  0.00  0.00     0.001 A 
HETATM   53  C   UNK N   1      30.261  12.981   1.937  0.00  0.00     0.017 A 
ENDBRANCH  46  48
ENDBRANCH  45  46
ENDBRANCH  13  45
BRANCH   4  54
HETATM   54  O   UNK N   1      22.778  17.727   5.677  0.00  0.00    -0.304 OA
BRANCH  54  55
HETATM   55  C   UNK N   1      21.638  18.460   5.749  0.00  0.00     0.255 C 
HETATM   56  O   UNK N   1      21.090  18.687   6.814  0.00  0.00    -0.266 OA
HETATM   57  C   UNK N   1      21.063  19.024   4.496  0.00  0.00     0.126 C 
ENDBRANCH  54  55
ENDBRANCH   4  54
BRANCH  11  58
HETATM   58  O   UNK N   1      24.865  11.218   2.726  0.00  0.00    -0.281 OA
BRANCH  58  59
HETATM   59  C   UNK N   1      24.523  11.286   1.410  0.00  0.00     0.407 C 
HETATM   60  O   UNK N   1      24.320  10.268   0.760  0.00  0.00    -0.229 OA
BRANCH  59  61
HETATM   61  O   UNK N   1      24.405  12.503   0.830  0.00  0.00    -0.303 OA
HETATM   62  C   UNK N   1      23.318  12.851   0.063  0.00  0.00     0.215 C 
ENDBRANCH  59  61
ENDBRANCH  58  59
ENDBRANCH  11  58
BRANCH   8  63
HETATM   63  O   UNK N   1      20.762  13.141   5.914  0.00  0.00    -0.394 OA
HETATM   64  H   UNK N   1      20.663  14.055   6.224  0.00  0.00     0.210 HD
ENDBRANCH   8  63
TORSDOF 19
ENDMDL
MODEL 5
REMARK VINA RESULT:      -7.1      3.364      9.172
REMARK  19 active torsions:
REMARK  status: ('A' for Active; 'I' for Inactive)
REMARK    1  A    between atoms: C_4  and  O_57 
REMARK    2  A    between atoms: C_8  and  O_55 
REMARK    3  A    between atoms: C_11  and  O_50 
REMARK    4  A    between atoms: C_13  and  O_39 
REMARK    5  A    between atoms: C_14  and  O_38 
REMARK    6  A    between atoms: C_19  and  O_20 
REMARK    7  A    between atoms: O_20  and  C_21 
REMARK    8  A    between atoms: C_21  and  C_23 
REMARK    9  A    between atoms: C_23  and  C_24 
REMARK   10  A    between atoms: C_23  and  O_37 
REMARK   11  A    between atoms: C_24  and  C_25 
REMARK   12  A    between atoms: C_24  and  N_29 
REMARK       I    between atoms: N_29  and  C_30 
REMARK   13  A    between atoms: C_30  and  O_32 
REMARK   14  A    between atoms: O_32  and  C_33 
REMARK   15  A    between atoms: O_39  and  C_40 
REMARK   16  A    between atoms: C_40  and  C_42 
REMARK   17  A    between atoms: O_50  and  C_51 
REMARK   18  A    between atoms: C_51  and  O_53 
REMARK   19  A    between atoms: O_57  and  C_58 
ROOT
HETATM    1  C   UNK N   1      24.276  14.105   0.920  0.00  0.00     0.046 C 
HETATM    2  C   UNK N   1      25.345  14.360   1.931  0.00  0.00    -0.048 C 
HETATM    3  C   UNK N   1      26.358  13.479   2.124  0.00  0.00    -0.028 C 
HETATM    4  C   UNK N   1      26.766  12.099   1.503  0.00  0.00     0.232 C 
HETATM    5  C   UNK N   1      28.326  11.597   1.760  0.00  0.00     0.171 C 
HETATM    6  O   UNK N   1      28.718  10.859   0.869  0.00  0.00    -0.294 OA
HETATM    7  C   UNK N   1      29.473  11.968   2.969  0.00  0.00     0.055 C 
HETATM    8  C   UNK N   1      30.747  11.177   2.605  0.00  0.00     0.137 C 
HETATM    9  C   UNK N   1      31.535  11.868   1.530  0.00  0.00     0.068 C 
HETATM   10  C   UNK N   1      32.321  12.995   2.191  0.00  0.00     0.162 A 
HETATM   11  C   UNK N   1      31.560  13.818   3.223  0.00  0.00     0.127 A 
HETATM   12  C   UNK N   1      30.030  13.553   3.406  0.00  0.00     0.076 C 
HETATM   13  C   UNK N   1      29.192  14.925   3.987  0.00  0.00     0.176 C 
HETATM   14  C   UNK N   1      27.628  15.092   3.770  0.00  0.00     0.098 C 
HETATM   15  C   UNK N   1      27.391  13.904   2.947  0.00  0.00     0.013 C 
HETATM   16  C   UNK N   1      27.127  12.828   4.045  0.00  0.00     0.023 C 
HETATM   17  C   UNK N   1      28.272  14.265   1.622  0.00  0.00     0.023 C 
HETATM   18  C   UNK N   1      26.850  16.187   2.942  0.00  0.00     0.078 C 
HETATM   19  C   UNK N   1      25.366  15.673   2.769  0.00  0.00     0.164 C 
HETATM   20  C   UNK N   1      32.454  13.084   4.202  0.00  0.00     0.210 A 
HETATM   21  O   UNK N   1      33.177  12.454   3.171  0.00  0.00    -0.380 OA
HETATM   22  C   UNK N   1      29.162  11.208   4.266  0.00  0.00     0.027 C 
ENDROOT
BRANCH  19  23
HETATM   23  O   UNK N   1      24.983  15.343   4.056  0.00  0.00    -0.309 OA
BRANCH  23  24
HETATM   24  C   UNK N   1      23.756  15.029   4.505  0.00  0.00     0.290 C 
HETATM   25  O   UNK N   1      22.824  14.981   3.720  0.00  0.00    -0.262 OA
BRANCH  24  26
HETATM   26  C   UNK N   1      23.510  14.881   5.949  0.00  0.00     0.241 C 
BRANCH  26  27
HETATM   27  C   UNK N   1      22.055  15.327   6.166  0.00  0.00     0.132 C 
BRANCH  27  28
HETATM   28  C   UNK N   1      21.014  14.236   6.585  0.00  0.00    -0.028 C 
HETATM   29  C   UNK N   1      19.844  14.144   5.617  0.00  0.00     0.016 C 
HETATM   30  C   UNK N   1      20.450  14.577   7.953  0.00  0.00     0.016 C 
HETATM   31  C   UNK N   1      21.641  12.861   6.702  0.00  0.00     0.016 C 
ENDBRANCH  27  28
BRANCH  27  32
HETATM   32  N   UNK N   1      21.950  16.617   6.799  0.00  0.00    -0.329 N 
HETATM   33  C   UNK N   1      21.367  17.687   6.223  0.00  0.00     0.361 C 
HETATM   34  O   UNK N   1      21.290  18.728   6.845  0.00  0.00    -0.238 OA
HETATM   35  H   UNK N   1      22.325  16.724   7.704  0.00  0.00     0.165 HD
BRANCH  33  36
HETATM   36  O   UNK N   1      20.891  17.591   4.949  0.00  0.00    -0.294 OA
BRANCH  36  37
HETATM   37  C   UNK N   1      21.365  18.322   3.877  0.00  0.00     0.061 C 
HETATM   38  C   UNK N   1      20.982  17.603   2.602  0.00  0.00     0.046 C 
HETATM   39  C   UNK N   1      22.881  18.425   3.931  0.00  0.00     0.046 C 
HETATM   40  C   UNK N   1      20.750  19.712   3.850  0.00  0.00     0.046 C 
ENDBRANCH  36  37
ENDBRANCH  33  36
ENDBRANCH  27  32
ENDBRANCH  26  27
BRANCH  26  41
HETATM   41  O   UNK N   1      24.397  15.703   6.647  0.00  0.00    -0.383 OA
HETATM   42  H   UNK N   1      25.201  15.645   7.187  0.00  0.00     0.210 HD
ENDBRANCH  26  41
ENDBRANCH  24  26
ENDBRANCH  23  24
ENDBRANCH  19  23
BRANCH  14  43
HETATM   43  O   UNK N   1      27.098  15.062   5.081  0.00  0.00    -0.386 OA
HETATM   44  H   UNK N   1      26.451  14.844   5.771  0.00  0.00     0.210 HD
ENDBRANCH  14  43
BRANCH  13  45
HETATM   45  O   UNK N   1      29.854  16.031   4.575  0.00  0.00    -0.308 OA
BRANCH  45  46
HETATM   46  C   UNK N   1      30.042  16.254   5.937  0.00  0.00     0.293 C 
HETATM   47  O   UNK N   1      30.820  15.577   6.585  0.00  0.00    -0.259 OA
BRANCH  46  48
HETATM   48  C   UNK N   1      29.317  17.292   6.696  0.00  0.00     0.039 A 
HETATM   49  C   UNK N   1      28.535  18.222   5.980  0.00  0.00     0.017 A 
HETATM   50  C   UNK N   1      27.839  19.232   6.641  0.00  0.00     0.001 A 
HETATM   51  C   UNK N   1      27.909  19.319   8.030  0.00  0.00     0.000 A 
HETATM   52  C   UNK N   1      28.673  18.395   8.750  0.00  0.00     0.001 A 
HETATM   53  C   UNK N   1      29.380  17.385   8.083  0.00  0.00     0.017 A 
ENDBRANCH  46  48
ENDBRANCH  45  46
ENDBRANCH  13  45
BRANCH   4  54
HETATM   54  O   UNK N   1      25.754  11.164   1.662  0.00  0.00    -0.304 OA
BRANCH  54  55
HETATM   55  C   UNK N   1      25.259  10.305   0.736  0.00  0.00     0.255 C 
HETATM   56  O   UNK N   1      25.839   9.271   0.450  0.00  0.00    -0.266 OA
HETATM   57  C   UNK N   1      23.961  10.621   0.078  0.00  0.00     0.126 C 
ENDBRANCH  54  55
ENDBRANCH   4  54
BRANCH  11  58
HETATM   58  O   UNK N   1      31.898  15.149   3.005  0.00  0.00    -0.281 OA
BRANCH  58  59
HETATM   59  C   UNK N   1      33.142  15.694   3.086  0.00  0.00     0.407 C 
HETATM   60  O   UNK N   1      33.895  15.688   2.120  0.00  0.00    -0.229 OA
BRANCH  59  61
HETATM   61  O   UNK N   1      33.535  16.251   4.255  0.00  0.00    -0.303 OA
HETATM   62  C   UNK N   1      33.137  17.510   4.642  0.00  0.00     0.215 C 
ENDBRANCH  59  61
ENDBRANCH  58  59
ENDBRANCH  11  58
BRANCH   8  63
HETATM   63  O   UNK N   1      30.541   9.821   2.316  0.00  0.00    -0.394 OA
HETATM   64  H   UNK N   1      31.167   9.332   1.760  0.00  0.00     0.210 HD
ENDBRANCH   8  63
TORSDOF 19
ENDMDL
MODEL 6
REMARK VINA RESULT:      -6.9      2.384      6.273
REMARK  19 active torsions:
REMARK  status: ('A' for Active; 'I' for Inactive)
REMARK    1  A    between atoms: C_4  and  O_57 
REMARK    2  A    between atoms: C_8  and  O_55 
REMARK    3  A    between atoms: C_11  and  O_50 
REMARK    4  A    between atoms: C_13  and  O_39 
REMARK    5  A    between atoms: C_14  and  O_38 
REMARK    6  A    between atoms: C_19  and  O_20 
REMARK    7  A    between atoms: O_20  and  C_21 
REMARK    8  A    between atoms: C_21  and  C_23 
REMARK    9  A    between atoms: C_23  and  C_24 
REMARK   10  A    between atoms: C_23  and  O_37 
REMARK   11  A    between atoms: C_24  and  C_25 
REMARK   12  A    between atoms: C_24  and  N_29 
REMARK       I    between atoms: N_29  and  C_30 
REMARK   13  A    between atoms: C_30  and  O_32 
REMARK   14  A    between atoms: O_32  and  C_33 
REMARK   15  A    between atoms: O_39  and  C_40 
REMARK   16  A    between atoms: C_40  and  C_42 
REMARK   17  A    between atoms: O_50  and  C_51 
REMARK   18  A    between atoms: C_51  and  O_53 
REMARK   19  A    between atoms: O_57  and  C_58 
ROOT
HETATM    1  C   UNK N   1      25.234  10.924   5.596  0.00  0.00     0.046 C 
HETATM    2  C   UNK N   1      25.152  12.339   5.127  0.00  0.00    -0.048 C 
HETATM    3  C   UNK N   1      24.086  12.788   4.418  0.00  0.00    -0.028 C 
HETATM    4  C   UNK N   1      22.754  12.154   3.892  0.00  0.00     0.232 C 
HETATM    5  C   UNK N   1      21.555  13.206   3.437  0.00  0.00     0.171 C 
HETATM    6  O   UNK N   1      20.445  12.708   3.556  0.00  0.00    -0.294 OA
HETATM    7  C   UNK N   1      21.582  14.832   2.916  0.00  0.00     0.055 C 
HETATM    8  C   UNK N   1      20.111  15.228   2.676  0.00  0.00     0.137 C 
HETATM    9  C   UNK N   1      19.414  15.566   3.962  0.00  0.00     0.068 C 
HETATM   10  C   UNK N   1      19.822  16.984   4.345  0.00  0.00     0.162 A 
HETATM   11  C   UNK N   1      21.297  17.321   4.168  0.00  0.00     0.127 A 
HETATM   12  C   UNK N   1      22.281  16.172   3.769  0.00  0.00     0.076 C 
HETATM   13  C   UNK N   1      23.881  16.467   4.296  0.00  0.00     0.176 C 
HETATM   14  C   UNK N   1      24.922  15.283   4.483  0.00  0.00     0.098 C 
HETATM   15  C   UNK N   1      24.029  14.157   4.201  0.00  0.00     0.013 C 
HETATM   16  C   UNK N   1      24.173  14.043   2.651  0.00  0.00     0.023 C 
HETATM   17  C   UNK N   1      22.966  14.288   5.431  0.00  0.00     0.023 C 
HETATM   18  C   UNK N   1      25.627  14.778   5.802  0.00  0.00     0.078 C 
HETATM   19  C   UNK N   1      26.267  13.370   5.477  0.00  0.00     0.164 C 
HETATM   20  C   UNK N   1      20.785  18.149   3.008  0.00  0.00     0.210 A 
HETATM   21  O   UNK N   1      19.439  17.872   3.319  0.00  0.00    -0.380 OA
HETATM   22  C   UNK N   1      22.029  14.926   1.451  0.00  0.00     0.027 C 
ENDROOT
BRANCH  19  23
HETATM   23  O   UNK N   1      26.990  13.600   4.321  0.00  0.00    -0.309 OA
BRANCH  23  24
HETATM   24  C   UNK N   1      28.196  13.112   3.983  0.00  0.00     0.290 C 
HETATM   25  O   UNK N   1      28.699  12.232   4.662  0.00  0.00    -0.262 OA
BRANCH  24  26
HETATM   26  C   UNK N   1      28.965  13.727   2.889  0.00  0.00     0.241 C 
BRANCH  26  27
HETATM   27  C   UNK N   1      30.175  14.395   3.561  0.00  0.00     0.132 C 
BRANCH  27  28
HETATM   28  C   UNK N   1      31.586  13.764   3.315  0.00  0.00    -0.028 C 
HETATM   29  C   UNK N   1      32.629  14.800   2.926  0.00  0.00     0.016 C 
HETATM   30  C   UNK N   1      31.496  12.757   2.181  0.00  0.00     0.016 C 
HETATM   31  C   UNK N   1      32.095  13.010   4.527  0.00  0.00     0.016 C 
ENDBRANCH  27  28
BRANCH  27  32
HETATM   32  N   UNK N   1      30.088  15.834   3.573  0.00  0.00    -0.329 N 
HETATM   33  C   UNK N   1      30.266  16.583   4.679  0.00  0.00     0.361 C 
HETATM   34  O   UNK N   1      30.211  17.794   4.591  0.00  0.00    -0.238 OA
HETATM   35  H   UNK N   1      29.888  16.295   2.726  0.00  0.00     0.165 HD
BRANCH  33  36
HETATM   36  O   UNK N   1      30.485  15.974   5.879  0.00  0.00    -0.294 OA
BRANCH  36  37
HETATM   37  C   UNK N   1      31.495  16.313   6.758  0.00  0.00     0.061 C 
HETATM   38  C   UNK N   1      31.936  15.062   7.486  0.00  0.00     0.046 C 
HETATM   39  C   UNK N   1      30.993  17.312   7.788  0.00  0.00     0.046 C 
HETATM   40  C   UNK N   1      32.692  16.887   6.018  0.00  0.00     0.046 C 
ENDBRANCH  36  37
ENDBRANCH  33  36
ENDBRANCH  27  32
ENDBRANCH  26  27
BRANCH  26  41
HETATM   41  O   UNK N   1      28.162  14.671   2.245  0.00  0.00    -0.383 OA
HETATM   42  H   UNK N   1      27.254  15.015   2.260  0.00  0.00     0.210 HD
ENDBRANCH  26  41
ENDBRANCH  24  26
ENDBRANCH  23  24
ENDBRANCH  19  23
BRANCH  14  43
HETATM   43  O   UNK N   1      25.919  15.550   3.516  0.00  0.00    -0.386 OA
HETATM   44  H   UNK N   1      26.290  15.624   2.623  0.00  0.00     0.210 HD
ENDBRANCH  14  43
BRANCH  13  45
HETATM   45  O   UNK N   1      24.324  17.748   4.708  0.00  0.00    -0.308 OA
BRANCH  45  46
HETATM   46  C   UNK N   1      25.458  18.418   4.251  0.00  0.00     0.293 C 
HETATM   47  O   UNK N   1      25.834  18.306   3.098  0.00  0.00    -0.259 OA
BRANCH  46  48
HETATM   48  C   UNK N   1      26.290  19.281   5.111  0.00  0.00     0.039 A 
HETATM   49  C   UNK N   1      26.076  20.674   5.070  0.00  0.00     0.017 A 
HETATM   50  C   UNK N   1      26.840  21.540   5.849  0.00  0.00     0.001 A 
HETATM   51  C   UNK N   1      27.825  21.022   6.688  0.00  0.00     0.000 A 
HETATM   52  C   UNK N   1      28.039  19.640   6.744  0.00  0.00     0.001 A 
HETATM   53  C   UNK N   1      27.274  18.772   5.953  0.00  0.00     0.017 A 
ENDBRANCH  46  48
ENDBRANCH  45  46
ENDBRANCH  13  45
BRANCH   4  54
HETATM   54  O   UNK N   1      23.013  11.074   3.060  0.00  0.00    -0.304 OA
BRANCH  54  55
HETATM   55  C   UNK N   1      22.581   9.795   3.196  0.00  0.00     0.255 C 
HETATM   56  O   UNK N   1      22.707   8.979   2.299  0.00  0.00    -0.266 OA
HETATM   57  C   UNK N   1      21.967   9.373   4.485  0.00  0.00     0.126 C 
ENDBRANCH  54  55
ENDBRANCH   4  54
BRANCH  11  58
HETATM   58  O   UNK N   1      21.680  18.052   5.287  0.00  0.00    -0.281 OA
BRANCH  58  59
HETATM   59  C   UNK N   1      21.260  17.858   6.566  0.00  0.00     0.407 C 
HETATM   60  O   UNK N   1      20.759  18.772   7.209  0.00  0.00    -0.229 OA
BRANCH  59  61
HETATM   61  O   UNK N   1      21.400  16.630   7.119  0.00  0.00    -0.303 OA
HETATM   62  C   UNK N   1      20.698  16.240   8.235  0.00  0.00     0.215 C 
ENDBRANCH  59  61
ENDBRANCH  58  59
ENDBRANCH  11  58
BRANCH   8  63
HETATM   63  O   UNK N   1      19.373  14.323   1.901  0.00  0.00    -0.394 OA
HETATM   64  H   UNK N   1      18.925  13.567   2.313  0.00  0.00     0.210 HD
ENDBRANCH   8  63
TORSDOF 19
ENDMDL
MODEL 7
REMARK VINA RESULT:      -6.9      3.967     10.289
REMARK  19 active torsions:
REMARK  status: ('A' for Active; 'I' for Inactive)
REMARK    1  A    between atoms: C_4  and  O_57 
REMARK    2  A    between atoms: C_8  and  O_55 
REMARK    3  A    between atoms: C_11  and  O_50 
REMARK    4  A    between atoms: C_13  and  O_39 
REMARK    5  A    between atoms: C_14  and  O_38 
REMARK    6  A    between atoms: C_19  and  O_20 
REMARK    7  A    between atoms: O_20  and  C_21 
REMARK    8  A    between atoms: C_21  and  C_23 
REMARK    9  A    between atoms: C_23  and  C_24 
REMARK   10  A    between atoms: C_23  and  O_37 
REMARK   11  A    between atoms: C_24  and  C_25 
REMARK   12  A    between atoms: C_24  and  N_29 
REMARK       I    between atoms: N_29  and  C_30 
REMARK   13  A    between atoms: C_30  and  O_32 
REMARK   14  A    between atoms: O_32  and  C_33 
REMARK   15  A    between atoms: O_39  and  C_40 
REMARK   16  A    between atoms: C_40  and  C_42 
REMARK   17  A    between atoms: O_50  and  C_51 
REMARK   18  A    between atoms: C_51  and  O_53 
REMARK   19  A    between atoms: O_57  and  C_58 
ROOT
HETATM    1  C   UNK N   1      26.733  15.980   6.531  0.00  0.00     0.046 C 
HETATM    2  C   UNK N   1      27.809  15.532   5.598  0.00  0.00    -0.048 C 
HETATM    3  C   UNK N   1      29.060  16.052   5.661  0.00  0.00    -0.028 C 
HETATM    4  C   UNK N   1      29.775  17.124   6.553  0.00  0.00     0.232 C 
HETATM    5  C   UNK N   1      31.434  17.121   6.538  0.00  0.00     0.171 C 
HETATM    6  O   UNK N   1      31.898  17.561   7.579  0.00  0.00    -0.294 OA
HETATM    7  C   UNK N   1      32.577  16.567   5.397  0.00  0.00     0.055 C 
HETATM    8  C   UNK N   1      33.964  16.840   6.015  0.00  0.00     0.137 C 
HETATM    9  C   UNK N   1      34.336  15.790   7.021  0.00  0.00     0.068 C 
HETATM   10  C   UNK N   1      34.827  14.570   6.248  0.00  0.00     0.162 A 
HETATM   11  C   UNK N   1      34.011  14.190   5.020  0.00  0.00     0.127 A 
HETATM   12  C   UNK N   1      32.679  14.963   4.742  0.00  0.00     0.076 C 
HETATM   13  C   UNK N   1      31.556  14.032   3.850  0.00  0.00     0.176 C 
HETATM   14  C   UNK N   1      30.002  14.355   3.884  0.00  0.00     0.098 C 
HETATM   15  C   UNK N   1      30.022  15.431   4.878  0.00  0.00     0.013 C 
HETATM   16  C   UNK N   1      30.264  16.675   3.968  0.00  0.00     0.023 C 
HETATM   17  C   UNK N   1      30.546  14.624   6.195  0.00  0.00     0.023 C 
HETATM   18  C   UNK N   1      28.813  13.471   4.427  0.00  0.00     0.078 C 
HETATM   19  C   UNK N   1      27.550  14.412   4.546  0.00  0.00     0.164 C 
HETATM   20  C   UNK N   1      35.219  14.720   4.275  0.00  0.00     0.210 A 
HETATM   21  O   UNK N   1      35.942  14.932   5.466  0.00  0.00    -0.380 OA
HETATM   22  C   UNK N   1      32.707  17.557   4.232  0.00  0.00     0.027 C 
ENDROOT
BRANCH  19  23
HETATM   23  O   UNK N   1      27.480  15.022   3.307  0.00  0.00    -0.309 OA
BRANCH  23  24
HETATM   24  C   UNK N   1      26.384  15.384   2.619  0.00  0.00     0.290 C 
HETATM   25  O   UNK N   1      25.922  16.503   2.771  0.00  0.00    -0.262 OA
BRANCH  24  26
HETATM   26  C   UNK N   1      25.666  14.398   1.795  0.00  0.00     0.241 C 
BRANCH  26  27
HETATM   27  C   UNK N   1      24.260  14.295   2.407  0.00  0.00     0.132 C 
BRANCH  27  28
HETATM   28  C   UNK N   1      23.101  13.783   1.489  0.00  0.00    -0.028 C 
HETATM   29  C   UNK N   1      22.456  12.511   2.017  0.00  0.00     0.016 C 
HETATM   30  C   UNK N   1      23.651  13.478   0.107  0.00  0.00     0.016 C 
HETATM   31  C   UNK N   1      22.014  14.824   1.306  0.00  0.00     0.016 C 
ENDBRANCH  27  28
BRANCH  27  32
HETATM   32  N   UNK N   1      24.274  13.834   3.773  0.00  0.00    -0.329 N 
HETATM   33  C   UNK N   1      23.761  14.534   4.803  0.00  0.00     0.361 C 
HETATM   34  O   UNK N   1      23.783  14.052   5.919  0.00  0.00    -0.238 OA
HETATM   35  H   UNK N   1      24.680  12.957   3.963  0.00  0.00     0.165 HD
BRANCH  33  36
HETATM   36  O   UNK N   1      23.245  15.777   4.584  0.00  0.00    -0.294 OA
BRANCH  36  37
HETATM   37  C   UNK N   1      21.968  16.169   4.935  0.00  0.00     0.061 C 
HETATM   38  C   UNK N   1      21.544  17.295   4.018  0.00  0.00     0.046 C 
HETATM   39  C   UNK N   1      21.943  16.684   6.366  0.00  0.00     0.046 C 
HETATM   40  C   UNK N   1      20.983  15.023   4.778  0.00  0.00     0.046 C 
ENDBRANCH  36  37
ENDBRANCH  33  36
ENDBRANCH  27  32
ENDBRANCH  26  27
BRANCH  26  41
HETATM   41  O   UNK N   1      26.336  13.174   1.865  0.00  0.00    -0.383 OA
HETATM   42  H   UNK N   1      26.243  12.294   2.261  0.00  0.00     0.210 HD
ENDBRANCH  26  41
ENDBRANCH  24  26
ENDBRANCH  23  24
ENDBRANCH  19  23
BRANCH  14  43
HETATM   43  O   UNK N   1      29.705  14.736   2.554  0.00  0.00    -0.386 OA
HETATM   44  H   UNK N   1      29.877  14.855   1.607  0.00  0.00     0.210 HD
ENDBRANCH  14  43
BRANCH  13  45
HETATM   45  O   UNK N   1      31.926  12.862   3.141  0.00  0.00    -0.308 OA
BRANCH  45  46
HETATM   46  C   UNK N   1      32.339  12.796   1.812  0.00  0.00     0.293 C 
HETATM   47  O   UNK N   1      33.380  13.312   1.448  0.00  0.00    -0.259 OA
BRANCH  46  48
HETATM   48  C   UNK N   1      31.556  12.128   0.753  0.00  0.00     0.039 A 
HETATM   49  C   UNK N   1      30.224  11.762   1.036  0.00  0.00     0.017 A 
HETATM   50  C   UNK N   1      29.441  11.116   0.081  0.00  0.00     0.001 A 
HETATM   51  C   UNK N   1      29.978  10.837  -1.175  0.00  0.00     0.000 A 
HETATM   52  C   UNK N   1      31.296  11.206  -1.468  0.00  0.00     0.001 A 
HETATM   53  C   UNK N   1      32.085  11.847  -0.503  0.00  0.00     0.017 A 
ENDBRANCH  46  48
ENDBRANCH  45  46
ENDBRANCH  13  45
BRANCH   4  54
HETATM   54  O   UNK N   1      29.133  18.351   6.466  0.00  0.00    -0.304 OA
BRANCH  54  55
HETATM   55  C   UNK N   1      28.395  18.974   7.418  0.00  0.00     0.255 C 
HETATM   56  O   UNK N   1      27.672  19.919   7.150  0.00  0.00    -0.266 OA
HETATM   57  C   UNK N   1      28.449  18.470   8.819  0.00  0.00     0.126 C 
ENDBRANCH  54  55
ENDBRANCH   4  54
BRANCH  11  58
HETATM   58  O   UNK N   1      33.888  12.805   5.029  0.00  0.00    -0.281 OA
BRANCH  58  59
HETATM   59  C   UNK N   1      33.754  12.010   6.126  0.00  0.00     0.407 C 
HETATM   60  O   UNK N   1      32.700  11.969   6.747  0.00  0.00    -0.229 OA
BRANCH  59  61
HETATM   61  O   UNK N   1      34.809  11.258   6.518  0.00  0.00    -0.303 OA
HETATM   62  C   UNK N   1      35.197  11.164   7.834  0.00  0.00     0.215 C 
ENDBRANCH  59  61
ENDBRANCH  58  59
ENDBRANCH  11  58
BRANCH   8  63
HETATM   63  O   UNK N   1      34.143  18.136   6.518  0.00  0.00    -0.394 OA
HETATM   64  H   UNK N   1      33.383  18.664   6.810  0.00  0.00     0.210 HD
ENDBRANCH   8  63
TORSDOF 19
ENDMDL
MODEL 8
REMARK VINA RESULT:      -6.9     13.829     17.703
REMARK  19 active torsions:
REMARK  status: ('A' for Active; 'I' for Inactive)
REMARK    1  A    between atoms: C_4  and  O_57 
REMARK    2  A    between atoms: C_8  and  O_55 
REMARK    3  A    between atoms: C_11  and  O_50 
REMARK    4  A    between atoms: C_13  and  O_39 
REMARK    5  A    between atoms: C_14  and  O_38 
REMARK    6  A    between atoms: C_19  and  O_20 
REMARK    7  A    between atoms: O_20  and  C_21 
REMARK    8  A    between atoms: C_21  and  C_23 
REMARK    9  A    between atoms: C_23  and  C_24 
REMARK   10  A    between atoms: C_23  and  O_37 
REMARK   11  A    between atoms: C_24  and  C_25 
REMARK   12  A    between atoms: C_24  and  N_29 
REMARK       I    between atoms: N_29  and  C_30 
REMARK   13  A    between atoms: C_30  and  O_32 
REMARK   14  A    between atoms: O_32  and  C_33 
REMARK   15  A    between atoms: O_39  and  C_40 
REMARK   16  A    between atoms: C_40  and  C_42 
REMARK   17  A    between atoms: O_50  and  C_51 
REMARK   18  A    between atoms: C_51  and  O_53 
REMARK   19  A    between atoms: O_57  and  C_58 
ROOT
HETATM    1  C   UNK N   1      30.275  22.435  -3.119  0.00  0.00     0.046 C 
HETATM    2  C   UNK N   1      29.950  23.055  -4.438  0.00  0.00    -0.048 C 
HETATM    3  C   UNK N   1      30.388  22.509  -5.600  0.00  0.00    -0.028 C 
HETATM    4  C   UNK N   1      31.244  21.256  -5.988  0.00  0.00     0.232 C 
HETATM    5  C   UNK N   1      31.161  20.755  -7.568  0.00  0.00     0.171 C 
HETATM    6  O   UNK N   1      31.382  19.558  -7.676  0.00  0.00    -0.294 OA
HETATM    7  C   UNK N   1      30.767  21.566  -9.017  0.00  0.00     0.055 C 
HETATM    8  C   UNK N   1      30.855  20.509 -10.136  0.00  0.00     0.137 C 
HETATM    9  C   UNK N   1      29.622  19.652 -10.184  0.00  0.00     0.068 C 
HETATM   10  C   UNK N   1      28.540  20.449 -10.905  0.00  0.00     0.162 A 
HETATM   11  C   UNK N   1      28.430  21.918 -10.520  0.00  0.00     0.127 A 
HETATM   12  C   UNK N   1      29.305  22.446  -9.336  0.00  0.00     0.076 C 
HETATM   13  C   UNK N   1      28.608  23.801  -8.560  0.00  0.00     0.176 C 
HETATM   14  C   UNK N   1      28.997  24.191  -7.070  0.00  0.00     0.098 C 
HETATM   15  C   UNK N   1      29.872  23.057  -6.766  0.00  0.00     0.013 C 
HETATM   16  C   UNK N   1      31.246  23.597  -7.270  0.00  0.00     0.023 C 
HETATM   17  C   UNK N   1      28.815  21.818  -6.857  0.00  0.00     0.023 C 
HETATM   18  C   UNK N   1      28.088  24.220  -5.780  0.00  0.00     0.078 C 
HETATM   19  C   UNK N   1      29.054  24.325  -4.534  0.00  0.00     0.164 C 
HETATM   20  C   UNK N   1      29.025  22.137 -11.896  0.00  0.00     0.210 A 
HETATM   21  O   UNK N   1      28.982  20.764 -12.205  0.00  0.00    -0.380 OA
HETATM   22  C   UNK N   1      31.944  22.426  -9.497  0.00  0.00     0.027 C 
ENDROOT
BRANCH  19  23
HETATM   23  O   UNK N   1      29.881  25.387  -4.851  0.00  0.00    -0.309 OA
BRANCH  23  24
HETATM   24  C   UNK N   1      30.634  26.131  -4.023  0.00  0.00     0.290 C 
HETATM   25  O   UNK N   1      30.777  25.781  -2.864  0.00  0.00    -0.262 OA
BRANCH  24  26
HETATM   26  C   UNK N   1      31.169  27.428  -4.471  0.00  0.00     0.241 C 
BRANCH  26  27
HETATM   27  C   UNK N   1      30.005  28.422  -4.334  0.00  0.00     0.132 C 
BRANCH  27  28
HETATM   28  C   UNK N   1      30.170  29.601  -3.317  0.00  0.00    -0.028 C 
HETATM   29  C   UNK N   1      29.845  30.953  -3.934  0.00  0.00     0.016 C 
HETATM   30  C   UNK N   1      31.610  29.651  -2.835  0.00  0.00     0.016 C 
HETATM   31  C   UNK N   1      29.304  29.420  -2.087  0.00  0.00     0.016 C 
ENDBRANCH  27  28
BRANCH  27  32
HETATM   32  N   UNK N   1      29.368  28.719  -5.592  0.00  0.00    -0.329 N 
HETATM   33  C   UNK N   1      28.135  28.288  -5.925  0.00  0.00     0.361 C 
HETATM   34  O   UNK N   1      27.659  28.617  -6.994  0.00  0.00    -0.238 OA
HETATM   35  H   UNK N   1      29.860  29.269  -6.244  0.00  0.00     0.165 HD
BRANCH  33  36
HETATM   36  O   UNK N   1      27.451  27.476  -5.071  0.00  0.00    -0.294 OA
BRANCH  36  37
HETATM   37  C   UNK N   1      26.283  27.827  -4.420  0.00  0.00     0.061 C 
HETATM   38  C   UNK N   1      26.228  27.085  -3.103  0.00  0.00     0.046 C 
HETATM   39  C   UNK N   1      25.071  27.425  -5.245  0.00  0.00     0.046 C 
HETATM   40  C   UNK N   1      26.246  29.319  -4.135  0.00  0.00     0.046 C 
ENDBRANCH  36  37
ENDBRANCH  33  36
ENDBRANCH  27  32
ENDBRANCH  26  27
BRANCH  26  41
HETATM   41  O   UNK N   1      31.579  27.314  -5.801  0.00  0.00    -0.383 OA
HETATM   42  H   UNK N   1      31.221  27.102  -6.678  0.00  0.00     0.210 HD
ENDBRANCH  26  41
ENDBRANCH  24  26
ENDBRANCH  23  24
ENDBRANCH  19  23
BRANCH  14  43
HETATM   43  O   UNK N   1      29.626  25.451  -7.203  0.00  0.00    -0.386 OA
HETATM   44  H   UNK N   1      30.374  26.063  -7.293  0.00  0.00     0.210 HD
ENDBRANCH  14  43
BRANCH  13  45
HETATM   45  O   UNK N   1      27.569  24.565  -9.146  0.00  0.00    -0.308 OA
BRANCH  45  46
HETATM   46  C   UNK N   1      27.723  25.708  -9.928  0.00  0.00     0.293 C 
HETATM   47  O   UNK N   1      28.785  26.302  -9.974  0.00  0.00    -0.259 OA
BRANCH  46  48
HETATM   48  C   UNK N   1      26.632  26.292 -10.732  0.00  0.00     0.039 A 
HETATM   49  C   UNK N   1      25.301  26.001 -10.367  0.00  0.00     0.017 A 
HETATM   50  C   UNK N   1      24.230  26.512 -11.097  0.00  0.00     0.001 A 
HETATM   51  C   UNK N   1      24.476  27.331 -12.198  0.00  0.00     0.000 A 
HETATM   52  C   UNK N   1      25.793  27.634 -12.562  0.00  0.00     0.001 A 
HETATM   53  C   UNK N   1      26.869  27.111 -11.832  0.00  0.00     0.017 A 
ENDBRANCH  46  48
ENDBRANCH  45  46
ENDBRANCH  13  45
BRANCH   4  54
HETATM   54  O   UNK N   1      32.497  21.306  -5.393  0.00  0.00    -0.304 OA
BRANCH  54  55
HETATM   55  C   UNK N   1      33.054  20.405  -4.547  0.00  0.00     0.255 C 
HETATM   56  O   UNK N   1      33.104  19.217  -4.820  0.00  0.00    -0.266 OA
HETATM   57  C   UNK N   1      33.647  20.885  -3.268  0.00  0.00     0.126 C 
ENDBRANCH  54  55
ENDBRANCH   4  54
BRANCH  11  58
HETATM   58  O   UNK N   1      27.074  22.207 -10.415  0.00  0.00    -0.281 OA
BRANCH  58  59
HETATM   59  C   UNK N   1      26.082  21.334 -10.090  0.00  0.00     0.407 C 
HETATM   60  O   UNK N   1      25.322  20.899 -10.947  0.00  0.00    -0.229 OA
BRANCH  59  61
HETATM   61  O   UNK N   1      25.950  20.948  -8.799  0.00  0.00    -0.303 OA
HETATM   62  C   UNK N   1      25.146  21.620  -7.908  0.00  0.00     0.215 C 
ENDBRANCH  59  61
ENDBRANCH  58  59
ENDBRANCH  11  58
BRANCH   8  63
HETATM   63  O   UNK N   1      32.028  19.741 -10.135  0.00  0.00    -0.394 OA
HETATM   64  H   UNK N   1      32.778  19.983  -9.569  0.00  0.00     0.210 HD
ENDBRANCH   8  63
TORSDOF 19
ENDMDL
MODEL 9
REMARK VINA RESULT:      -6.8      2.926      5.724
REMARK  19 active torsions:
REMARK  status: ('A' for Active; 'I' for Inactive)
REMARK    1  A    between atoms: C_4  and  O_57 
REMARK    2  A    between atoms: C_8  and  O_55 
REMARK    3  A    between atoms: C_11  and  O_50 
REMARK    4  A    between atoms: C_13  and  O_39 
REMARK    5  A    between atoms: C_14  and  O_38 
REMARK    6  A    between atoms: C_19  and  O_20 
REMARK    7  A    between atoms: O_20  and  C_21 
REMARK    8  A    between atoms: C_21  and  C_23 
REMARK    9  A    between atoms: C_23  and  C_24 
REMARK   10  A    between atoms: C_23  and  O_37 
REMARK   11  A    between atoms: C_24  and  C_25 
REMARK   12  A    between atoms: C_24  and  N_29 
REMARK       I    between atoms: N_29  and  C_30 
REMARK   13  A    between atoms: C_30  and  O_32 
REMARK   14  A    between atoms: O_32  and  C_33 
REMARK   15  A    between atoms: O_39  and  C_40 
REMARK   16  A    between atoms: C_40  and  C_42 
REMARK   17  A    between atoms: O_50  and  C_51 
REMARK   18  A    between atoms: C_51  and  O_53 
REMARK   19  A    between atoms: O_57  and  C_58 
ROOT
HETATM    1  C   UNK N   1      29.176  17.108   3.442  0.00  0.00     0.046 C 
HETATM    2  C   UNK N   1      27.997  16.193   3.433  0.00  0.00    -0.048 C 
HETATM    3  C   UNK N   1      26.835  16.533   4.045  0.00  0.00    -0.028 C 
HETATM    4  C   UNK N   1      26.327  17.772   4.858  0.00  0.00     0.232 C 
HETATM    5  C   UNK N   1      24.686  17.919   5.047  0.00  0.00     0.171 C 
HETATM    6  O   UNK N   1      24.348  19.085   5.190  0.00  0.00    -0.294 OA
HETATM    7  C   UNK N   1      23.413  16.782   5.010  0.00  0.00     0.055 C 
HETATM    8  C   UNK N   1      22.115  17.586   5.232  0.00  0.00     0.137 C 
HETATM    9  C   UNK N   1      21.661  18.258   3.968  0.00  0.00     0.068 C 
HETATM   10  C   UNK N   1      20.963  17.205   3.115  0.00  0.00     0.162 A 
HETATM   11  C   UNK N   1      21.646  15.845   3.049  0.00  0.00     0.127 A 
HETATM   12  C   UNK N   1      23.053  15.685   3.714  0.00  0.00     0.076 C 
HETATM   13  C   UNK N   1      23.984  14.448   2.988  0.00  0.00     0.176 C 
HETATM   14  C   UNK N   1      25.567  14.426   3.107  0.00  0.00     0.098 C 
HETATM   15  C   UNK N   1      25.753  15.696   3.812  0.00  0.00     0.013 C 
HETATM   16  C   UNK N   1      25.632  15.233   5.297  0.00  0.00     0.023 C 
HETATM   17  C   UNK N   1      25.200  16.753   2.699  0.00  0.00     0.023 C 
HETATM   18  C   UNK N   1      26.652  14.558   1.969  0.00  0.00     0.078 C 
HETATM   19  C   UNK N   1      28.038  14.832   2.676  0.00  0.00     0.164 C 
HETATM   20  C   UNK N   1      20.481  15.418   3.917  0.00  0.00     0.210 A 
HETATM   21  O   UNK N   1      19.865  16.681   3.827  0.00  0.00    -0.380 OA
HETATM   22  C   UNK N   1      23.353  15.989   6.323  0.00  0.00     0.027 C 
ENDROOT
BRANCH  19  23
HETATM   23  O   UNK N   1      28.119  13.834   3.631  0.00  0.00    -0.309 OA
BRANCH  23  24
HETATM   24  C   UNK N   1      29.203  13.416   4.307  0.00  0.00     0.290 C 
HETATM   25  O   UNK N   1      29.497  13.955   5.361  0.00  0.00    -0.262 OA
BRANCH  24  26
HETATM   26  C   UNK N   1      30.104  12.413   3.717  0.00  0.00     0.241 C 
BRANCH  26  27
HETATM   27  C   UNK N   1      31.526  12.901   4.033  0.00  0.00     0.132 C 
BRANCH  27  28
HETATM   28  C   UNK N   1      32.555  11.850   4.569  0.00  0.00    -0.028 C 
HETATM   29  C   UNK N   1      32.005  10.433   4.549  0.00  0.00     0.016 C 
HETATM   30  C   UNK N   1      32.912  12.184   6.007  0.00  0.00     0.016 C 
HETATM   31  C   UNK N   1      33.851  11.866   3.783  0.00  0.00     0.016 C 
ENDBRANCH  27  28
BRANCH  27  32
HETATM   32  N   UNK N   1      32.009  13.876   3.088  0.00  0.00    -0.329 N 
HETATM   33  C   UNK N   1      32.320  15.146   3.417  0.00  0.00     0.361 C 
HETATM   34  O   UNK N   1      32.756  15.892   2.562  0.00  0.00    -0.238 OA
HETATM   35  H   UNK N   1      32.120  13.599   2.149  0.00  0.00     0.165 HD
BRANCH  33  36
HETATM   36  O   UNK N   1      32.123  15.579   4.694  0.00  0.00    -0.294 OA
BRANCH  36  37
HETATM   37  C   UNK N   1      33.120  16.056   5.524  0.00  0.00     0.061 C 
HETATM   38  C   UNK N   1      33.250  17.547   5.307  0.00  0.00     0.046 C 
HETATM   39  C   UNK N   1      34.451  15.406   5.185  0.00  0.00     0.046 C 
HETATM   40  C   UNK N   1      32.777  15.809   6.984  0.00  0.00     0.046 C 
ENDBRANCH  36  37
ENDBRANCH  33  36
ENDBRANCH  27  32
ENDBRANCH  26  27
BRANCH  26  41
HETATM   41  O   UNK N   1      29.885  12.361   2.338  0.00  0.00    -0.383 OA
HETATM   42  H   UNK N   1      30.379  12.315   1.505  0.00  0.00     0.210 HD
ENDBRANCH  26  41
ENDBRANCH  24  26
ENDBRANCH  23  24
ENDBRANCH  19  23
BRANCH  14  43
HETATM   43  O   UNK N   1      25.836  13.252   3.848  0.00  0.00    -0.386 OA
HETATM   44  H   UNK N   1      26.218  12.727   4.569  0.00  0.00     0.210 HD
ENDBRANCH  14  43
BRANCH  13  45
HETATM   45  O   UNK N   1      23.416  13.459   2.148  0.00  0.00    -0.308 OA
BRANCH  45  46
HETATM   46  C   UNK N   1      23.833  13.126   0.861  0.00  0.00     0.293 C 
HETATM   47  O   UNK N   1      23.878  13.962  -0.023  0.00  0.00    -0.259 OA
BRANCH  46  48
HETATM   48  C   UNK N   1      24.228  11.760   0.466  0.00  0.00     0.039 A 
HETATM   49  C   UNK N   1      25.414  11.222   1.006  0.00  0.00     0.017 A 
HETATM   50  C   UNK N   1      25.845   9.943   0.659  0.00  0.00     0.001 A 
HETATM   51  C   UNK N   1      25.088   9.181  -0.229  0.00  0.00     0.000 A 
HETATM   52  C   UNK N   1      23.904   9.701  -0.763  0.00  0.00     0.001 A 
HETATM   53  C   UNK N   1      23.477  10.991  -0.419  0.00  0.00     0.017 A 
ENDBRANCH  46  48
ENDBRANCH  45  46
ENDBRANCH  13  45
BRANCH   4  54
HETATM   54  O   UNK N   1      27.127  17.998   5.970  0.00  0.00    -0.304 OA
BRANCH  54  55
HETATM   55  C   UNK N   1      27.692  19.166   6.366  0.00  0.00     0.255 C 
HETATM   56  O   UNK N   1      28.154  19.305   7.486  0.00  0.00    -0.266 OA
HETATM   57  C   UNK N   1      27.778  20.292   5.396  0.00  0.00     0.126 C 
ENDBRANCH  54  55
ENDBRANCH   4  54
BRANCH  11  58
HETATM   58  O   UNK N   1      21.577  15.424   1.726  0.00  0.00    -0.281 OA
BRANCH  58  59
HETATM   59  C   UNK N   1      20.514  15.555   0.887  0.00  0.00     0.407 C 
HETATM   60  O   UNK N   1      20.350  16.580   0.236  0.00  0.00    -0.229 OA
BRANCH  59  61
HETATM   61  O   UNK N   1      19.638  14.529   0.778  0.00  0.00    -0.303 OA
HETATM   62  C   UNK N   1      20.041  13.214   0.772  0.00  0.00     0.215 C 
ENDBRANCH  59  61
ENDBRANCH  58  59
ENDBRANCH  11  58
BRANCH   8  63
HETATM   63  O   UNK N   1      22.146  18.473   6.317  0.00  0.00    -0.394 OA
HETATM   64  H   UNK N   1      22.809  18.374   7.019  0.00  0.00     0.210 HD
ENDBRANCH   8  63
TORSDOF 19
ENDMDL
