REMARK  13 active torsions:
REMARK  status: ('A' for Active; 'I' for Inactive)
REMARK    1  A    between atoms: O_2  and  C_3 
REMARK    2  A    between atoms: C_8  and  O_9 
REMARK    3  A    between atoms: O_9  and  C_10 
REMARK    4  A    between atoms: C_10  and  C_11 
REMARK    5  A    between atoms: C_11  and  C_12 
REMARK    6  A    between atoms: C_12  and  C_13 
REMARK    7  A    between atoms: C_13  and  C_14 
REMARK    8  A    between atoms: C_14  and  C_15 
REMARK    9  A    between atoms: C_15  and  C_16 
REMARK       I    between atoms: C_16  and  N_18 
REMARK   10  A    between atoms: N_18  and  O_19 
REMARK   11  A    between atoms: C_20  and  N_26 
REMARK   12  A    between atoms: N_26  and  C_27 
REMARK   13  A    between atoms: C_31  and  C_33 
ROOT
HETATM    1  C   UNK N   1      -1.352   0.858  -0.192  0.00  0.00     0.103 A 
HETATM    2  C   UNK N   1      -2.616   1.476  -0.044  0.00  0.00     0.070 A 
HETATM    3  C   UNK N   1      -3.768   0.686   0.005  0.00  0.00     0.050 A 
HETATM    4  C   UNK N   1      -3.627  -0.700   0.014  0.00  0.00     0.038 A 
HETATM    5  C   UNK N   1      -2.421  -1.291  -0.135  0.00  0.00     0.057 A 
HETATM    6  C   UNK N   1      -1.286  -0.561  -0.302  0.00  0.00     0.103 A 
HETATM    7  C   UNK N   1      -4.703  -1.504   0.127  0.00  0.00     0.119 A 
HETATM    8  N   UNK N   1      -5.945  -0.929   0.109  0.00  0.00    -0.338 N 
ATOM      9  HN  UNK N   1      -6.771  -1.528   0.146  1.00  0.00     0.168 HD
HETATM   10  C   UNK N   1      -6.106   0.420   0.043  0.00  0.00     0.182 A 
HETATM   11  N   UNK N   1      -5.013   1.232   0.031  0.00  0.00    -0.351 N 
ATOM     12  HN  UNK N   1      -5.128   2.246   0.040  1.00  0.00     0.166 HD
ENDROOT
BRANCH   6  13
HETATM   13  O   UNK N   1      -0.163  -1.230  -0.633  0.00  0.00    -0.348 OA
BRANCH  13  14
HETATM   14  C   UNK N   1      -0.192  -2.547  -1.097  0.00  0.00     0.176 C 
BRANCH  14  15
HETATM   15  C   UNK N   1      -0.453  -3.557   0.027  0.00  0.00     0.027 C 
BRANCH  15  16
HETATM   16  C   UNK N   1       0.426  -3.301   1.248  0.00  0.00     0.002 C 
BRANCH  16  17
HETATM   17  C   UNK N   1       1.904  -3.353   0.888  0.00  0.00     0.001 C 
BRANCH  17  18
HETATM   18  C   UNK N   1       2.300  -2.048   0.235  0.00  0.00     0.009 C 
BRANCH  18  19
HETATM   19  C   UNK N   1       3.558  -2.165  -0.589  0.00  0.00     0.105 C 
BRANCH  19  20
HETATM   20  C   UNK N   1       4.511  -1.118  -0.125  0.00  0.00     0.240 C 
HETATM   21  O   UNK N   1       4.112   0.014   0.115  0.00  0.00    -0.271 OA
HETATM   22  N   UNK N   1       5.813  -1.426   0.032  0.00  0.00    -0.237 N 
HETATM   23  H   UNK N   1       6.125  -2.340  -0.161  0.00  0.00     0.197 HD
BRANCH  22  24
HETATM   24  O   UNK N   1       6.687  -0.500   0.447  0.00  0.00    -0.287 OA
HETATM   25  H   UNK N   1       7.584  -0.712   0.748  0.00  0.00     0.244 HD
ENDBRANCH  22  24
ENDBRANCH  19  20
ENDBRANCH  18  19
ENDBRANCH  17  18
ENDBRANCH  16  17
ENDBRANCH  15  16
ENDBRANCH  14  15
ENDBRANCH  13  14
ENDBRANCH   6  13
BRANCH   1  26
HETATM   26  O   UNK N   1      -0.261   1.654  -0.283  0.00  0.00    -0.353 OA
HETATM   27  C   UNK N   1       1.018   1.196  -0.490  0.00  0.00     0.210 C 
ENDBRANCH   1  26
BRANCH   7  28
HETATM   28  N   UNK N   1      -4.479  -2.925   0.268  0.00  0.00    -0.342 N 
HETATM   29  H   UNK N   1      -3.556  -3.265   0.243  0.00  0.00     0.167 HD
BRANCH  28  30
HETATM   30  C   UNK N   1      -5.527  -3.833   0.437  0.00  0.00     0.035 A 
HETATM   31  C   UNK N   1      -5.405  -5.172   0.054  0.00  0.00     0.029 A 
HETATM   32  C   UNK N   1      -6.581  -5.920  -0.142  0.00  0.00     0.004 A 
HETATM   33  C   UNK N   1      -7.839  -5.278  -0.063  0.00  0.00     0.021 A 
HETATM   34  C   UNK N   1      -7.890  -3.938   0.341  0.00  0.00     0.019 A 
HETATM   35  C   UNK N   1      -6.756  -3.291   0.627  0.00  0.00     0.050 A 
BRANCH  34  36
HETATM   36  C   UNK N   1      -9.001  -3.058   0.194  0.00  0.00    -0.078 C 
HETATM   37  C   UNK N   1      -9.806  -2.163   0.144  0.00  0.00     0.018 C 
ENDBRANCH  34  36
ENDBRANCH  28  30
ENDBRANCH   7  28
TORSDOF 13
