MODEL 1
REMARK VINA RESULT:      -9.0      0.000      0.000
REMARK  4 active torsions:
REMARK  status: ('A' for Active; 'I' for Inactive)
REMARK    1  A    between atoms: C_21  and  C_16 
REMARK    2  A    between atoms: N_27  and  C_18 
REMARK    3  A    between atoms: N_32  and  C_19 
REMARK    4  A    between atoms: N_27  and  C_22 
ROOT
HETATM    1  C   UNK N   1      38.067  11.937  10.311  0.00  0.00     0.107 A 
HETATM    2  C   UNK N   1      37.926  11.105  11.414  0.00  0.00     0.115 A 
HETATM    3  C   UNK N   1      36.940  11.441  13.617  0.00  0.00     0.128 A 
HETATM    4  C   UNK N   1      36.276  12.394  14.407  0.00  0.00     0.060 A 
HETATM    5  C   UNK N   1      36.442  14.026  12.669  0.00  0.00     0.152 A 
HETATM    6  C   UNK N   1      37.085  13.040  11.871  0.00  0.00     0.156 A 
HETATM    7  N   UNK N   1      37.530  13.144  10.603  0.00  0.00    -0.347 N 
ATOM      8  HN  UNK N   1      37.473  13.959   9.993  1.00  0.00     0.167 HD
HETATM    9  N   UNK N   1      36.050  13.640  13.904  0.00  0.00    -0.338 N 
HETATM   10  N   UNK N   1      37.305  11.816  12.365  0.00  0.00    -0.312 N 
HETATM   11  H   UNK N   1      35.576  14.294  14.468  0.00  0.00     0.167 HD
ENDROOT
BRANCH   5  12
HETATM   12  N   UNK N   1      36.193  15.247  12.312  0.00  0.00    -0.339 N 
ATOM     13  HN  UNK N   1      36.725  15.986  12.771  1.00  0.00     0.167 HD
BRANCH  12  14
HETATM   14  C   UNK N   1      35.250  15.637  11.341  0.00  0.00     0.033 A 
HETATM   15  C   UNK N   1      34.193  14.780  11.026  0.00  0.00     0.032 A 
HETATM   16  C   UNK N   1      33.392  15.053   9.917  0.00  0.00     0.031 A 
HETATM   17  C   UNK N   1      33.661  16.176   9.115  0.00  0.00     0.030 A 
HETATM   18  C   UNK N   1      34.654  17.080   9.509  0.00  0.00     0.031 A 
HETATM   19  C   UNK N   1      35.426  16.826  10.629  0.00  0.00     0.032 A 
BRANCH  17  20
HETATM   20  N   UNK N   1      32.998  16.362   7.870  0.00  0.00    -0.377 N 
HETATM   21  C   UNK N   1      32.148  15.332   7.310  0.00  0.00     0.149 C 
HETATM   22  C   UNK N   1      32.652  14.992   5.903  0.00  0.00     0.187 C 
HETATM   23  O   UNK N   1      32.752  16.167   5.132  0.00  0.00    -0.388 OA
HETATM   24  C   UNK N   1      33.809  16.919   5.678  0.00  0.00     0.187 C 
HETATM   25  C   UNK N   1      33.356  17.483   7.025  0.00  0.00     0.149 C 
ENDBRANCH  17  20
ENDBRANCH  12  14
ENDBRANCH   5  12
BRANCH   4  26
HETATM   26  C   UNK N   1      35.883  12.149  15.796  0.00  0.00    -0.006 A 
HETATM   27  C   UNK N   1      35.822  10.848  16.362  0.00  0.00     0.015 A 
HETATM   28  C   UNK N   1      35.539  10.690  17.736  0.00  0.00     0.016 A 
HETATM   29  C   UNK N   1      35.330  11.845  18.490  0.00  0.00     0.009 A 
HETATM   30  C   UNK N   1      35.064  12.043  19.825  0.00  0.00     0.120 A 
HETATM   31  C   UNK N   1      35.376  13.082  17.936  0.00  0.00     0.060 A 
HETATM   32  N   UNK N   1      34.957  13.383  20.023  0.00  0.00    -0.311 N 
HETATM   33  N   UNK N   1      35.147  14.014  18.868  0.00  0.00    -0.300 N 
HETATM   34  H   UNK N   1      34.769  13.819  20.885  0.00  0.00     0.186 HD
ATOM     35  HN  UNK N   1      35.125  15.022  18.720  1.00  0.00     0.187 HD
HETATM   36  C   UNK N   1      35.648  13.279  16.603  0.00  0.00     0.045 A 
ENDBRANCH   4  26
TORSDOF 4
ENDMDL
MODEL 2
REMARK VINA RESULT:      -8.4      1.497      2.005
REMARK  4 active torsions:
REMARK  status: ('A' for Active; 'I' for Inactive)
REMARK    1  A    between atoms: C_21  and  C_16 
REMARK    2  A    between atoms: N_27  and  C_18 
REMARK    3  A    between atoms: N_32  and  C_19 
REMARK    4  A    between atoms: N_27  and  C_22 
ROOT
HETATM    1  C   UNK N   1      36.402   9.590  10.731  0.00  0.00     0.107 A 
HETATM    2  C   UNK N   1      35.968   9.282  12.014  0.00  0.00     0.115 A 
HETATM    3  C   UNK N   1      35.812  10.595  14.060  0.00  0.00     0.128 A 
HETATM    4  C   UNK N   1      36.041  11.880  14.580  0.00  0.00     0.060 A 
HETATM    5  C   UNK N   1      36.882  12.638  12.475  0.00  0.00     0.152 A 
HETATM    6  C   UNK N   1      36.616  11.341  11.957  0.00  0.00     0.156 A 
HETATM    7  N   UNK N   1      36.798  10.883  10.702  0.00  0.00    -0.347 N 
ATOM      8  HN  UNK N   1      37.156  11.402   9.901  1.00  0.00     0.167 HD
HETATM    9  N   UNK N   1      36.558  12.847  13.771  0.00  0.00    -0.338 N 
HETATM   10  N   UNK N   1      36.106  10.392  12.751  0.00  0.00    -0.312 N 
HETATM   11  H   UNK N   1      36.704  13.745  14.149  0.00  0.00     0.167 HD
ENDROOT
BRANCH   5  12
HETATM   12  N   UNK N   1      37.392  13.629  11.814  0.00  0.00    -0.339 N 
ATOM     13  HN  UNK N   1      38.401  13.759  11.871  1.00  0.00     0.167 HD
BRANCH  12  14
HETATM   14  C   UNK N   1      36.666  14.541  11.022  0.00  0.00     0.033 A 
HETATM   15  C   UNK N   1      36.071  15.651  11.623  0.00  0.00     0.032 A 
HETATM   16  C   UNK N   1      35.170  16.429  10.895  0.00  0.00     0.031 A 
HETATM   17  C   UNK N   1      34.854  16.083   9.569  0.00  0.00     0.030 A 
HETATM   18  C   UNK N   1      35.542  15.032   8.951  0.00  0.00     0.031 A 
HETATM   19  C   UNK N   1      36.461  14.283   9.664  0.00  0.00     0.032 A 
BRANCH  17  20
HETATM   20  N   UNK N   1      33.792  16.728   8.878  0.00  0.00    -0.377 N 
HETATM   21  C   UNK N   1      32.502  16.088   8.715  0.00  0.00     0.149 C 
HETATM   22  C   UNK N   1      32.168  16.033   7.221  0.00  0.00     0.187 C 
HETATM   23  O   UNK N   1      32.270  17.322   6.659  0.00  0.00    -0.388 OA
HETATM   24  C   UNK N   1      33.635  17.660   6.669  0.00  0.00     0.187 C 
HETATM   25  C   UNK N   1      34.056  17.930   8.114  0.00  0.00     0.149 C 
ENDBRANCH  17  20
ENDBRANCH  12  14
ENDBRANCH   5  12
BRANCH   4  26
HETATM   26  C   UNK N   1      35.831  12.224  15.987  0.00  0.00    -0.006 A 
HETATM   27  C   UNK N   1      35.532  13.542  16.423  0.00  0.00     0.015 A 
HETATM   28  C   UNK N   1      35.235  13.785  17.782  0.00  0.00     0.016 A 
HETATM   29  C   UNK N   1      35.247  12.694  18.652  0.00  0.00     0.009 A 
HETATM   30  C   UNK N   1      34.987  12.582  19.997  0.00  0.00     0.120 A 
HETATM   31  C   UNK N   1      35.549  11.442  18.227  0.00  0.00     0.060 A 
HETATM   32  N   UNK N   1      35.142  11.274  20.331  0.00  0.00    -0.311 N 
HETATM   33  N   UNK N   1      35.486  10.582  19.249  0.00  0.00    -0.300 N 
HETATM   34  H   UNK N   1      35.021  10.897  21.233  0.00  0.00     0.186 HD
ATOM     35  HN  UNK N   1      35.667   9.580  19.206  1.00  0.00     0.187 HD
HETATM   36  C   UNK N   1      35.843  11.164  16.914  0.00  0.00     0.045 A 
ENDBRANCH   4  26
TORSDOF 4
ENDMDL
MODEL 3
REMARK VINA RESULT:      -8.3      6.129     11.820
REMARK  4 active torsions:
REMARK  status: ('A' for Active; 'I' for Inactive)
REMARK    1  A    between atoms: C_21  and  C_16 
REMARK    2  A    between atoms: N_27  and  C_18 
REMARK    3  A    between atoms: N_32  and  C_19 
REMARK    4  A    between atoms: N_27  and  C_22 
ROOT
HETATM    1  C   UNK N   1      29.029  13.369   2.138  0.00  0.00     0.107 A 
HETATM    2  C   UNK N   1      27.952  14.081   2.650  0.00  0.00     0.115 A 
HETATM    3  C   UNK N   1      27.756  16.313   3.606  0.00  0.00     0.128 A 
HETATM    4  C   UNK N   1      28.502  17.465   3.910  0.00  0.00     0.060 A 
HETATM    5  C   UNK N   1      30.511  16.432   3.129  0.00  0.00     0.152 A 
HETATM    6  C   UNK N   1      29.736  15.286   2.800  0.00  0.00     0.156 A 
HETATM    7  N   UNK N   1      30.140  14.135   2.227  0.00  0.00    -0.347 N 
ATOM      8  HN  UNK N   1      31.083  13.893   1.925  1.00  0.00     0.167 HD
HETATM    9  N   UNK N   1      29.841  17.481   3.657  0.00  0.00    -0.338 N 
HETATM   10  N   UNK N   1      28.421  15.271   3.047  0.00  0.00    -0.312 N 
HETATM   11  H   UNK N   1      30.346  18.299   3.868  0.00  0.00     0.167 HD
ENDROOT
BRANCH   5  12
HETATM   12  N   UNK N   1      31.789  16.558   2.959  0.00  0.00    -0.339 N 
ATOM     13  HN  UNK N   1      32.116  16.783   2.020  1.00  0.00     0.167 HD
BRANCH  12  14
HETATM   14  C   UNK N   1      32.765  16.412   3.965  0.00  0.00     0.033 A 
HETATM   15  C   UNK N   1      33.400  15.181   4.133  0.00  0.00     0.032 A 
HETATM   16  C   UNK N   1      34.193  14.962   5.260  0.00  0.00     0.031 A 
HETATM   17  C   UNK N   1      34.336  15.974   6.226  0.00  0.00     0.030 A 
HETATM   18  C   UNK N   1      33.781  17.236   5.986  0.00  0.00     0.031 A 
HETATM   19  C   UNK N   1      33.023  17.462   4.851  0.00  0.00     0.032 A 
BRANCH  17  20
HETATM   20  N   UNK N   1      34.962  15.710   7.475  0.00  0.00    -0.377 N 
HETATM   21  C   UNK N   1      35.746  14.510   7.685  0.00  0.00     0.149 C 
HETATM   22  C   UNK N   1      35.178  13.758   8.894  0.00  0.00     0.187 C 
HETATM   23  O   UNK N   1      35.102  14.623  10.004  0.00  0.00    -0.388 OA
HETATM   24  C   UNK N   1      34.100  15.567   9.713  0.00  0.00     0.187 C 
HETATM   25  C   UNK N   1      34.625  16.513   8.633  0.00  0.00     0.149 C 
ENDBRANCH  17  20
ENDBRANCH  12  14
ENDBRANCH   5  12
BRANCH   4  26
HETATM   26  C   UNK N   1      27.929  18.637   4.573  0.00  0.00    -0.006 A 
HETATM   27  C   UNK N   1      27.342  19.716   3.861  0.00  0.00     0.015 A 
HETATM   28  C   UNK N   1      26.713  20.766   4.565  0.00  0.00     0.016 A 
HETATM   29  C   UNK N   1      26.694  20.691   5.958  0.00  0.00     0.009 A 
HETATM   30  C   UNK N   1      26.157  21.512   6.921  0.00  0.00     0.120 A 
HETATM   31  C   UNK N   1      27.272  19.663   6.628  0.00  0.00     0.060 A 
HETATM   32  N   UNK N   1      26.431  20.953   8.129  0.00  0.00    -0.311 N 
HETATM   33  N   UNK N   1      27.112  19.826   7.946  0.00  0.00    -0.300 N 
HETATM   34  H   UNK N   1      26.168  21.324   9.002  0.00  0.00     0.186 HD
ATOM     35  HN  UNK N   1      27.449  19.199   8.676  1.00  0.00     0.187 HD
HETATM   36  C   UNK N   1      27.894  18.623   5.981  0.00  0.00     0.045 A 
ENDBRANCH   4  26
TORSDOF 4
ENDMDL
MODEL 4
REMARK VINA RESULT:      -8.2      6.896     11.559
REMARK  4 active torsions:
REMARK  status: ('A' for Active; 'I' for Inactive)
REMARK    1  A    between atoms: C_21  and  C_16 
REMARK    2  A    between atoms: N_27  and  C_18 
REMARK    3  A    between atoms: N_32  and  C_19 
REMARK    4  A    between atoms: N_27  and  C_22 
ROOT
HETATM    1  C   UNK N   1      25.956  15.652   2.149  0.00  0.00     0.107 A 
HETATM    2  C   UNK N   1      25.075  14.753   2.737  0.00  0.00     0.115 A 
HETATM    3  C   UNK N   1      24.485  14.302   5.057  0.00  0.00     0.128 A 
HETATM    4  C   UNK N   1      24.751  14.711   6.375  0.00  0.00     0.060 A 
HETATM    5  C   UNK N   1      26.360  16.304   5.609  0.00  0.00     0.152 A 
HETATM    6  C   UNK N   1      26.057  15.899   4.281  0.00  0.00     0.156 A 
HETATM    7  N   UNK N   1      26.559  16.372   3.122  0.00  0.00    -0.347 N 
ATOM      8  HN  UNK N   1      27.248  17.114   3.005  1.00  0.00     0.167 HD
HETATM    9  N   UNK N   1      25.669  15.694   6.598  0.00  0.00    -0.338 N 
HETATM   10  N   UNK N   1      25.154  14.936   4.062  0.00  0.00    -0.312 N 
HETATM   11  H   UNK N   1      25.837  15.974   7.527  0.00  0.00     0.167 HD
ENDROOT
BRANCH   5  12
HETATM   12  N   UNK N   1      27.226  17.206   5.949  0.00  0.00    -0.339 N 
ATOM     13  HN  UNK N   1      27.041  18.165   5.656  1.00  0.00     0.167 HD
BRANCH  12  14
HETATM   14  C   UNK N   1      28.401  16.972   6.690  0.00  0.00     0.033 A 
HETATM   15  C   UNK N   1      28.569  17.594   7.928  0.00  0.00     0.032 A 
HETATM   16  C   UNK N   1      29.812  17.551   8.559  0.00  0.00     0.031 A 
HETATM   17  C   UNK N   1      30.892  16.895   7.940  0.00  0.00     0.030 A 
HETATM   18  C   UNK N   1      30.676  16.186   6.753  0.00  0.00     0.031 A 
HETATM   19  C   UNK N   1      29.433  16.202   6.146  0.00  0.00     0.032 A 
BRANCH  17  20
HETATM   20  N   UNK N   1      32.212  17.012   8.457  0.00  0.00    -0.377 N 
HETATM   21  C   UNK N   1      33.003  18.205   8.234  0.00  0.00     0.149 C 
HETATM   22  C   UNK N   1      34.324  17.800   7.571  0.00  0.00     0.187 C 
HETATM   23  O   UNK N   1      34.957  16.797   8.334  0.00  0.00    -0.388 OA
HETATM   24  C   UNK N   1      34.167  15.639   8.211  0.00  0.00     0.187 C 
HETATM   25  C   UNK N   1      32.876  15.846   9.002  0.00  0.00     0.149 C 
ENDBRANCH  17  20
ENDBRANCH  12  14
ENDBRANCH   5  12
BRANCH   4  26
HETATM   26  C   UNK N   1      24.152  14.073   7.548  0.00  0.00    -0.006 A 
HETATM   27  C   UNK N   1      22.798  13.647   7.587  0.00  0.00     0.015 A 
HETATM   28  C   UNK N   1      22.312  12.942   8.710  0.00  0.00     0.016 A 
HETATM   29  C   UNK N   1      23.207  12.689   9.751  0.00  0.00     0.009 A 
HETATM   30  C   UNK N   1      23.070  12.024  10.947  0.00  0.00     0.120 A 
HETATM   31  C   UNK N   1      24.494  13.114   9.709  0.00  0.00     0.060 A 
HETATM   32  N   UNK N   1      24.272  12.075  11.578  0.00  0.00    -0.311 N 
HETATM   33  N   UNK N   1      25.138  12.741  10.821  0.00  0.00    -0.300 N 
HETATM   34  H   UNK N   1      24.471  11.682  12.459  0.00  0.00     0.186 HD
ATOM     35  HN  UNK N   1      26.114  12.932  11.045  1.00  0.00     0.187 HD
HETATM   36  C   UNK N   1      25.005  13.802   8.635  0.00  0.00     0.045 A 
ENDBRANCH   4  26
TORSDOF 4
ENDMDL
MODEL 5
REMARK VINA RESULT:      -8.1      9.842     13.200
REMARK  4 active torsions:
REMARK  status: ('A' for Active; 'I' for Inactive)
REMARK    1  A    between atoms: C_21  and  C_16 
REMARK    2  A    between atoms: N_27  and  C_18 
REMARK    3  A    between atoms: N_32  and  C_19 
REMARK    4  A    between atoms: N_27  and  C_22 
ROOT
HETATM    1  C   UNK N   1      27.995  18.566   8.373  0.00  0.00     0.107 A 
HETATM    2  C   UNK N   1      28.980  17.598   8.223  0.00  0.00     0.115 A 
HETATM    3  C   UNK N   1      30.257  16.831   6.295  0.00  0.00     0.128 A 
HETATM    4  C   UNK N   1      30.440  17.052   4.920  0.00  0.00     0.060 A 
HETATM    5  C   UNK N   1      28.737  18.729   4.911  0.00  0.00     0.152 A 
HETATM    6  C   UNK N   1      28.586  18.514   6.308  0.00  0.00     0.156 A 
HETATM    7  N   UNK N   1      27.761  19.141   7.171  0.00  0.00    -0.347 N 
ATOM      8  HN  UNK N   1      27.102  19.889   6.962  1.00  0.00     0.167 HD
HETATM    9  N   UNK N   1      29.682  17.990   4.286  0.00  0.00    -0.338 N 
HETATM   10  N   UNK N   1      29.332  17.594   6.931  0.00  0.00    -0.312 N 
HETATM   11  H   UNK N   1      29.829  18.138   3.324  0.00  0.00     0.167 HD
ENDROOT
BRANCH   5  12
HETATM   12  N   UNK N   1      28.061  19.572   4.195  0.00  0.00    -0.339 N 
ATOM     13  HN  UNK N   1      28.548  20.408   3.872  1.00  0.00     0.167 HD
BRANCH  12  14
HETATM   14  C   UNK N   1      26.709  19.428   3.825  0.00  0.00     0.033 A 
HETATM   15  C   UNK N   1      26.048  20.492   3.210  0.00  0.00     0.032 A 
HETATM   16  C   UNK N   1      24.663  20.442   3.048  0.00  0.00     0.031 A 
HETATM   17  C   UNK N   1      23.940  19.331   3.517  0.00  0.00     0.030 A 
HETATM   18  C   UNK N   1      24.632  18.228   4.032  0.00  0.00     0.031 A 
HETATM   19  C   UNK N   1      26.009  18.266   4.161  0.00  0.00     0.032 A 
BRANCH  17  20
HETATM   20  N   UNK N   1      22.519  19.345   3.554  0.00  0.00    -0.377 N 
HETATM   21  C   UNK N   1      21.767  18.213   4.056  0.00  0.00     0.149 C 
HETATM   22  C   UNK N   1      20.783  17.759   2.973  0.00  0.00     0.187 C 
HETATM   23  O   UNK N   1      20.002  18.852   2.546  0.00  0.00    -0.388 OA
HETATM   24  C   UNK N   1      20.865  19.718   1.851  0.00  0.00     0.187 C 
HETATM   25  C   UNK N   1      21.792  20.392   2.863  0.00  0.00     0.149 C 
ENDBRANCH  17  20
ENDBRANCH  12  14
ENDBRANCH   5  12
BRANCH   4  26
HETATM   26  C   UNK N   1      31.355  16.260   4.096  0.00  0.00    -0.006 A 
HETATM   27  C   UNK N   1      32.498  16.814   3.463  0.00  0.00     0.015 A 
HETATM   28  C   UNK N   1      33.398  15.973   2.771  0.00  0.00     0.016 A 
HETATM   29  C   UNK N   1      33.116  14.607   2.744  0.00  0.00     0.009 A 
HETATM   30  C   UNK N   1      33.780  13.536   2.194  0.00  0.00     0.120 A 
HETATM   31  C   UNK N   1      32.012  14.091   3.340  0.00  0.00     0.060 A 
HETATM   32  N   UNK N   1      33.055  12.422   2.475  0.00  0.00    -0.311 N 
HETATM   33  N   UNK N   1      31.977  12.765   3.173  0.00  0.00    -0.300 N 
HETATM   34  H   UNK N   1      33.290  11.505   2.204  0.00  0.00     0.186 HD
ATOM     35  HN  UNK N   1      31.257  12.132   3.520  1.00  0.00     0.187 HD
HETATM   36  C   UNK N   1      31.113  14.874   4.023  0.00  0.00     0.045 A 
ENDBRANCH   4  26
TORSDOF 4
ENDMDL
MODEL 6
REMARK VINA RESULT:      -7.9      8.433     14.529
REMARK  4 active torsions:
REMARK  status: ('A' for Active; 'I' for Inactive)
REMARK    1  A    between atoms: C_21  and  C_16 
REMARK    2  A    between atoms: N_27  and  C_18 
REMARK    3  A    between atoms: N_32  and  C_19 
REMARK    4  A    between atoms: N_27  and  C_22 
ROOT
HETATM    1  C   UNK N   1      25.363  12.111   5.652  0.00  0.00     0.107 A 
HETATM    2  C   UNK N   1      24.315  12.552   4.854  0.00  0.00     0.115 A 
HETATM    3  C   UNK N   1      23.375  14.760   4.437  0.00  0.00     0.128 A 
HETATM    4  C   UNK N   1      23.526  16.117   4.769  0.00  0.00     0.060 A 
HETATM    5  C   UNK N   1      25.332  15.605   6.249  0.00  0.00     0.152 A 
HETATM    6  C   UNK N   1      25.184  14.240   5.880  0.00  0.00     0.156 A 
HETATM    7  N   UNK N   1      25.907  13.177   6.283  0.00  0.00    -0.347 N 
ATOM      8  HN  UNK N   1      26.697  13.175   6.928  1.00  0.00     0.167 HD
HETATM    9  N   UNK N   1      24.497  16.485   5.653  0.00  0.00    -0.338 N 
HETATM   10  N   UNK N   1      24.233  13.879   5.010  0.00  0.00    -0.312 N 
HETATM   11  H   UNK N   1      24.595  17.441   5.868  0.00  0.00     0.167 HD
ENDROOT
BRANCH   5  12
HETATM   12  N   UNK N   1      26.197  16.073   7.093  0.00  0.00    -0.339 N 
ATOM     13  HN  UNK N   1      25.877  16.242   8.046  1.00  0.00     0.167 HD
BRANCH  12  14
HETATM   14  C   UNK N   1      27.544  16.367   6.802  0.00  0.00     0.033 A 
HETATM   15  C   UNK N   1      28.169  15.732   5.727  0.00  0.00     0.032 A 
HETATM   16  C   UNK N   1      29.551  15.841   5.571  0.00  0.00     0.031 A 
HETATM   17  C   UNK N   1      30.308  16.574   6.502  0.00  0.00     0.030 A 
HETATM   18  C   UNK N   1      29.651  17.291   7.509  0.00  0.00     0.031 A 
HETATM   19  C   UNK N   1      28.277  17.209   7.642  0.00  0.00     0.032 A 
BRANCH  17  20
HETATM   20  N   UNK N   1      31.729  16.530   6.486  0.00  0.00    -0.377 N 
HETATM   21  C   UNK N   1      32.505  16.847   7.667  0.00  0.00     0.149 C 
HETATM   22  C   UNK N   1      33.488  17.970   7.321  0.00  0.00     0.187 C 
HETATM   23  O   UNK N   1      34.246  17.612   6.188  0.00  0.00    -0.388 OA
HETATM   24  C   UNK N   1      33.361  17.611   5.094  0.00  0.00     0.187 C 
HETATM   25  C   UNK N   1      32.431  16.406   5.224  0.00  0.00     0.149 C 
ENDBRANCH  17  20
ENDBRANCH  12  14
ENDBRANCH   5  12
BRANCH   4  26
HETATM   26  C   UNK N   1      22.633  17.167   4.278  0.00  0.00    -0.006 A 
HETATM   27  C   UNK N   1      23.055  18.508   4.077  0.00  0.00     0.015 A 
HETATM   28  C   UNK N   1      22.172  19.446   3.499  0.00  0.00     0.016 A 
HETATM   29  C   UNK N   1      20.899  19.001   3.142  0.00  0.00     0.009 A 
HETATM   30  C   UNK N   1      19.831  19.634   2.551  0.00  0.00     0.120 A 
HETATM   31  C   UNK N   1      20.501  17.722   3.353  0.00  0.00     0.060 A 
HETATM   32  N   UNK N   1      18.834  18.717   2.429  0.00  0.00    -0.311 N 
HETATM   33  N   UNK N   1      19.247  17.553   2.920  0.00  0.00    -0.300 N 
HETATM   34  H   UNK N   1      17.946  18.889   2.040  0.00  0.00     0.186 HD
ATOM     35  HN  UNK N   1      18.707  16.689   2.959  1.00  0.00     0.187 HD
HETATM   36  C   UNK N   1      21.330  16.779   3.912  0.00  0.00     0.045 A 
ENDBRANCH   4  26
TORSDOF 4
ENDMDL
MODEL 7
REMARK VINA RESULT:      -7.9      7.989     11.537
REMARK  4 active torsions:
REMARK  status: ('A' for Active; 'I' for Inactive)
REMARK    1  A    between atoms: C_21  and  C_16 
REMARK    2  A    between atoms: N_27  and  C_18 
REMARK    3  A    between atoms: N_32  and  C_19 
REMARK    4  A    between atoms: N_27  and  C_22 
ROOT
HETATM    1  C   UNK N   1      25.301  14.062   2.919  0.00  0.00     0.107 A 
HETATM    2  C   UNK N   1      24.725  13.086   3.722  0.00  0.00     0.115 A 
HETATM    3  C   UNK N   1      24.380  12.921   6.128  0.00  0.00     0.128 A 
HETATM    4  C   UNK N   1      24.581  13.616   7.333  0.00  0.00     0.060 A 
HETATM    5  C   UNK N   1      25.660  15.409   6.179  0.00  0.00     0.152 A 
HETATM    6  C   UNK N   1      25.422  14.707   4.965  0.00  0.00     0.156 A 
HETATM    7  N   UNK N   1      25.726  15.077   3.706  0.00  0.00    -0.347 N 
ATOM      8  HN  UNK N   1      26.181  15.940   3.408  1.00  0.00     0.167 HD
HETATM    9  N   UNK N   1      25.205  14.828   7.311  0.00  0.00    -0.338 N 
HETATM   10  N   UNK N   1      24.808  13.518   4.987  0.00  0.00    -0.312 N 
HETATM   11  H   UNK N   1      25.330  15.304   8.163  0.00  0.00     0.167 HD
ENDROOT
BRANCH   5  12
HETATM   12  N   UNK N   1      26.261  16.552   6.288  0.00  0.00    -0.339 N 
ATOM     13  HN  UNK N   1      25.676  17.385   6.343  1.00  0.00     0.167 HD
BRANCH  12  14
HETATM   14  C   UNK N   1      27.657  16.738   6.340  0.00  0.00     0.033 A 
HETATM   15  C   UNK N   1      28.485  15.952   5.538  0.00  0.00     0.032 A 
HETATM   16  C   UNK N   1      29.865  15.969   5.745  0.00  0.00     0.031 A 
HETATM   17  C   UNK N   1      30.411  16.765   6.768  0.00  0.00     0.030 A 
HETATM   18  C   UNK N   1      29.577  17.627   7.488  0.00  0.00     0.031 A 
HETATM   19  C   UNK N   1      28.213  17.633   7.258  0.00  0.00     0.032 A 
BRANCH  17  20
HETATM   20  N   UNK N   1      31.780  16.645   7.136  0.00  0.00    -0.377 N 
HETATM   21  C   UNK N   1      32.310  17.331   8.296  0.00  0.00     0.149 C 
HETATM   22  C   UNK N   1      33.494  18.198   7.853  0.00  0.00     0.187 C 
HETATM   23  O   UNK N   1      34.427  17.411   7.147  0.00  0.00    -0.388 OA
HETATM   24  C   UNK N   1      33.816  17.057   5.930  0.00  0.00     0.187 C 
HETATM   25  C   UNK N   1      32.720  16.032   6.219  0.00  0.00     0.149 C 
ENDBRANCH  17  20
ENDBRANCH  12  14
ENDBRANCH   5  12
BRANCH   4  26
HETATM   26  C   UNK N   1      24.230  13.065   8.643  0.00  0.00    -0.006 A 
HETATM   27  C   UNK N   1      25.190  12.824   9.661  0.00  0.00     0.015 A 
HETATM   28  C   UNK N   1      24.770  12.393  10.938  0.00  0.00     0.016 A 
HETATM   29  C   UNK N   1      23.400  12.224  11.146  0.00  0.00     0.009 A 
HETATM   30  C   UNK N   1      22.672  11.848  12.250  0.00  0.00     0.120 A 
HETATM   31  C   UNK N   1      22.493  12.443  10.161  0.00  0.00     0.060 A 
HETATM   32  N   UNK N   1      21.361  11.852  11.891  0.00  0.00    -0.311 N 
HETATM   33  N   UNK N   1      21.256  12.215  10.616  0.00  0.00    -0.300 N 
HETATM   34  H   UNK N   1      20.607  11.623  12.481  0.00  0.00     0.186 HD
ATOM     35  HN  UNK N   1      20.392  12.304  10.083  1.00  0.00     0.187 HD
HETATM   36  C   UNK N   1      22.861  12.862   8.906  0.00  0.00     0.045 A 
ENDBRANCH   4  26
TORSDOF 4
ENDMDL
MODEL 8
REMARK VINA RESULT:      -7.9      3.160      4.897
REMARK  4 active torsions:
REMARK  status: ('A' for Active; 'I' for Inactive)
REMARK    1  A    between atoms: C_21  and  C_16 
REMARK    2  A    between atoms: N_27  and  C_18 
REMARK    3  A    between atoms: N_32  and  C_19 
REMARK    4  A    between atoms: N_27  and  C_22 
ROOT
HETATM    1  C   UNK N   1      36.158  13.539   5.858  0.00  0.00     0.107 A 
HETATM    2  C   UNK N   1      36.511  12.802   6.982  0.00  0.00     0.115 A 
HETATM    3  C   UNK N   1      36.077  13.112   9.359  0.00  0.00     0.128 A 
HETATM    4  C   UNK N   1      35.433  13.963  10.273  0.00  0.00     0.060 A 
HETATM    5  C   UNK N   1      34.747  15.422   8.509  0.00  0.00     0.152 A 
HETATM    6  C   UNK N   1      35.379  14.535   7.595  0.00  0.00     0.156 A 
HETATM    7  N   UNK N   1      35.442  14.617   6.251  0.00  0.00    -0.347 N 
ATOM      8  HN  UNK N   1      35.035  15.339   5.656  1.00  0.00     0.167 HD
HETATM    9  N   UNK N   1      34.792  15.075   9.815  0.00  0.00    -0.338 N 
HETATM   10  N   UNK N   1      36.006  13.442   8.045  0.00  0.00    -0.312 N 
HETATM   11  H   UNK N   1      34.338  15.655  10.468  0.00  0.00     0.167 HD
ENDROOT
BRANCH   5  12
HETATM   12  N   UNK N   1      34.129  16.518   8.198  0.00  0.00    -0.339 N 
ATOM     13  HN  UNK N   1      34.639  17.393   8.319  1.00  0.00     0.167 HD
BRANCH  12  14
HETATM   14  C   UNK N   1      32.811  16.601   7.706  0.00  0.00     0.033 A 
HETATM   15  C   UNK N   1      32.599  16.859   6.351  0.00  0.00     0.032 A 
HETATM   16  C   UNK N   1      31.315  17.166   5.900  0.00  0.00     0.031 A 
HETATM   17  C   UNK N   1      30.246  17.229   6.813  0.00  0.00     0.030 A 
HETATM   18  C   UNK N   1      30.459  16.862   8.146  0.00  0.00     0.031 A 
HETATM   19  C   UNK N   1      31.727  16.524   8.584  0.00  0.00     0.032 A 
BRANCH  17  20
HETATM   20  N   UNK N   1      28.978  17.739   6.420  0.00  0.00    -0.377 N 
HETATM   21  C   UNK N   1      28.630  17.895   5.023  0.00  0.00     0.149 C 
HETATM   22  C   UNK N   1      28.225  19.352   4.777  0.00  0.00     0.187 C 
HETATM   23  O   UNK N   1      27.219  19.731   5.689  0.00  0.00    -0.388 OA
HETATM   24  C   UNK N   1      27.821  19.775   6.960  0.00  0.00     0.187 C 
HETATM   25  C   UNK N   1      28.108  18.342   7.409  0.00  0.00     0.149 C 
ENDBRANCH  17  20
ENDBRANCH  12  14
ENDBRANCH   5  12
BRANCH   4  26
HETATM   26  C   UNK N   1      35.482  13.766  11.723  0.00  0.00    -0.006 A 
HETATM   27  C   UNK N   1      34.876  12.657  12.371  0.00  0.00     0.015 A 
HETATM   28  C   UNK N   1      35.053  12.470  13.760  0.00  0.00     0.016 A 
HETATM   29  C   UNK N   1      35.833  13.403  14.444  0.00  0.00     0.009 A 
HETATM   30  C   UNK N   1      36.215  13.500  15.761  0.00  0.00     0.120 A 
HETATM   31  C   UNK N   1      36.394  14.466  13.816  0.00  0.00     0.060 A 
HETATM   32  N   UNK N   1      36.986  14.614  15.878  0.00  0.00    -0.311 N 
HETATM   33  N   UNK N   1      37.092  15.201  14.690  0.00  0.00    -0.300 N 
HETATM   34  H   UNK N   1      37.400  14.936  16.711  0.00  0.00     0.186 HD
ATOM     35  HN  UNK N   1      37.610  16.053  14.482  1.00  0.00     0.187 HD
HETATM   36  C   UNK N   1      36.247  14.684  12.468  0.00  0.00     0.045 A 
ENDBRANCH   4  26
TORSDOF 4
ENDMDL
MODEL 9
REMARK VINA RESULT:      -7.7      9.793     14.816
REMARK  4 active torsions:
REMARK  status: ('A' for Active; 'I' for Inactive)
REMARK    1  A    between atoms: C_21  and  C_16 
REMARK    2  A    between atoms: N_27  and  C_18 
REMARK    3  A    between atoms: N_32  and  C_19 
REMARK    4  A    between atoms: N_27  and  C_22 
ROOT
HETATM    1  C   UNK N   1      20.736  20.248   1.879  0.00  0.00     0.107 A 
HETATM    2  C   UNK N   1      20.147  19.202   2.580  0.00  0.00     0.115 A 
HETATM    3  C   UNK N   1      20.961  17.740   4.350  0.00  0.00     0.128 A 
HETATM    4  C   UNK N   1      22.083  17.482   5.155  0.00  0.00     0.060 A 
HETATM    5  C   UNK N   1      23.327  19.205   4.062  0.00  0.00     0.152 A 
HETATM    6  C   UNK N   1      22.173  19.473   3.276  0.00  0.00     0.156 A 
HETATM    7  N   UNK N   1      22.000  20.416   2.329  0.00  0.00    -0.347 N 
ATOM      8  HN  UNK N   1      22.680  21.110   2.017  1.00  0.00     0.167 HD
HETATM    9  N   UNK N   1      23.214  18.224   4.985  0.00  0.00    -0.338 N 
HETATM   10  N   UNK N   1      21.062  18.746   3.445  0.00  0.00    -0.312 N 
HETATM   11  H   UNK N   1      23.988  18.036   5.563  0.00  0.00     0.167 HD
ENDROOT
BRANCH   5  12
HETATM   12  N   UNK N   1      24.463  19.823   3.977  0.00  0.00    -0.339 N 
ATOM     13  HN  UNK N   1      24.437  20.832   3.831  1.00  0.00     0.167 HD
BRANCH  12  14
HETATM   14  C   UNK N   1      25.731  19.216   4.070  0.00  0.00     0.033 A 
HETATM   15  C   UNK N   1      25.954  17.990   3.442  0.00  0.00     0.032 A 
HETATM   16  C   UNK N   1      27.122  17.278   3.715  0.00  0.00     0.031 A 
HETATM   17  C   UNK N   1      28.059  17.789   4.631  0.00  0.00     0.030 A 
HETATM   18  C   UNK N   1      27.869  19.068   5.166  0.00  0.00     0.031 A 
HETATM   19  C   UNK N   1      26.726  19.788   4.868  0.00  0.00     0.032 A 
BRANCH  17  20
HETATM   20  N   UNK N   1      29.149  16.995   5.083  0.00  0.00    -0.377 N 
HETATM   21  C   UNK N   1      29.342  16.714   6.490  0.00  0.00     0.149 C 
HETATM   22  C   UNK N   1      30.749  17.169   6.892  0.00  0.00     0.187 C 
HETATM   23  O   UNK N   1      31.705  16.592   6.032  0.00  0.00    -0.388 OA
HETATM   24  C   UNK N   1      31.523  17.187   4.770  0.00  0.00     0.187 C 
HETATM   25  C   UNK N   1      30.222  16.659   4.168  0.00  0.00     0.149 C 
ENDBRANCH  17  20
ENDBRANCH  12  14
ENDBRANCH   5  12
BRANCH   4  26
HETATM   26  C   UNK N   1      22.138  16.388   6.126  0.00  0.00    -0.006 A 
HETATM   27  C   UNK N   1      23.211  15.460   6.182  0.00  0.00     0.015 A 
HETATM   28  C   UNK N   1      23.255  14.494   7.211  0.00  0.00     0.016 A 
HETATM   29  C   UNK N   1      22.220  14.499   8.147  0.00  0.00     0.009 A 
HETATM   30  C   UNK N   1      21.977  13.729   9.260  0.00  0.00     0.120 A 
HETATM   31  C   UNK N   1      21.192  15.380   8.074  0.00  0.00     0.060 A 
HETATM   32  N   UNK N   1      20.817  14.172   9.812  0.00  0.00    -0.311 N 
HETATM   33  N   UNK N   1      20.340  15.178   9.086  0.00  0.00    -0.300 N 
HETATM   34  H   UNK N   1      20.394  13.805  10.622  0.00  0.00     0.186 HD
ATOM     35  HN  UNK N   1      19.485  15.701   9.267  1.00  0.00     0.187 HD
HETATM   36  C   UNK N   1      21.112  16.335   7.089  0.00  0.00     0.045 A 
ENDBRANCH   4  26
TORSDOF 4
ENDMDL
