MODEL 1
REMARK VINA RESULT:      -4.7      0.000      0.000
REMARK  8 active torsions:
REMARK  status: ('A' for Active; 'I' for Inactive)
REMARK    1  A    between atoms: C_4  and  C_3 
REMARK    2  A    between atoms: S_13  and  C_3 
REMARK    3  A    between atoms: C_5  and  C_4 
REMARK    4  A    between atoms: C_4  and  N_8 
REMARK    5  A    between atoms: O_11  and  C_5 
REMARK    6  A    between atoms: C_7  and  C_6 
REMARK    7  A    between atoms: C_6  and  O_12 
REMARK    8  A    between atoms: S_14  and  C_7 
ROOT
HETATM    1  C   UNK N   1      34.895  16.041  10.262  0.00  0.00     0.130 C 
HETATM    2  N   UNK N   1      34.146  16.150   9.212  0.00  0.00    -0.358 N 
ATOM      3  HN  UNK N   1      33.994  15.311   8.653  1.00  0.00     0.162 HD
ENDROOT
BRANCH   2   4
HETATM    4  C   UNK N   1      33.507  17.379   8.772  0.00  0.00     0.190 C 
BRANCH   4   5
HETATM    5  C   UNK N   1      32.261  16.974   7.986  0.00  0.00     0.106 C 
BRANCH   5   6
HETATM    6  S   UNK N   1      30.745  17.794   8.572  0.00  0.00    -0.180 SA
HETATM    7  H   UNK N   1      30.347  17.805   9.872  0.00  0.00     0.101 HD
ENDBRANCH   5   6
ENDBRANCH   4   5
BRANCH   4   8
HETATM    8  C   UNK N   1      34.413  18.247   7.917  0.00  0.00     0.164 C 
HETATM    9  O   UNK N   1      34.428  18.136   6.702  0.00  0.00    -0.648 OA
BRANCH   8  10
HETATM   10  O   UNK N   1      35.230  19.144   8.505  0.00  0.00    -0.775 OA
HETATM   11  H   UNK N   1      34.904  19.935   8.886  0.00  0.00     0.167 HD
ENDBRANCH   8  10
ENDBRANCH   4   8
ENDBRANCH   2   4
BRANCH   1  12
HETATM   12  C   UNK N   1      35.459  14.696  10.662  0.00  0.00     0.062 C 
HETATM   13  C   UNK N   1      36.913  14.616  10.236  0.00  0.00     0.035 C 
HETATM   14  C   UNK N   1      35.396  14.462  12.166  0.00  0.00     0.035 C 
BRANCH  12  15
HETATM   15  S   UNK N   1      34.531  13.370   9.840  0.00  0.00    -0.164 SA
HETATM   16  H   UNK N   1      34.440  13.110   8.508  0.00  0.00     0.102 HD
ENDBRANCH  12  15
ENDBRANCH   1  12
BRANCH   1  17
HETATM   17  O   UNK N   1      35.173  17.124  11.022  0.00  0.00    -0.348 OA
HETATM   18  H   UNK N   1      35.940  17.637  11.184  0.00  0.00     0.219 HD
ENDBRANCH   1  17
TORSDOF 8
ENDMDL
MODEL 2
REMARK VINA RESULT:      -4.4      3.780      5.085
REMARK  8 active torsions:
REMARK  status: ('A' for Active; 'I' for Inactive)
REMARK    1  A    between atoms: C_4  and  C_3 
REMARK    2  A    between atoms: S_13  and  C_3 
REMARK    3  A    between atoms: C_5  and  C_4 
REMARK    4  A    between atoms: C_4  and  N_8 
REMARK    5  A    between atoms: O_11  and  C_5 
REMARK    6  A    between atoms: C_7  and  C_6 
REMARK    7  A    between atoms: C_6  and  O_12 
REMARK    8  A    between atoms: S_14  and  C_7 
ROOT
HETATM    1  C   UNK N   1      35.835  13.603  13.379  0.00  0.00     0.130 C 
HETATM    2  N   UNK N   1      36.671  14.033  12.489  0.00  0.00    -0.358 N 
ATOM      3  HN  UNK N   1      37.635  14.186  12.783  1.00  0.00     0.162 HD
ENDROOT
BRANCH   2   4
HETATM    4  C   UNK N   1      36.336  14.313  11.102  0.00  0.00     0.190 C 
BRANCH   4   5
HETATM    5  C   UNK N   1      37.631  14.189  10.300  0.00  0.00     0.106 C 
BRANCH   5   6
HETATM    6  S   UNK N   1      37.378  13.515   8.628  0.00  0.00    -0.180 SA
HETATM    7  H   UNK N   1      36.152  13.276   8.088  0.00  0.00     0.101 HD
ENDBRANCH   5   6
ENDBRANCH   4   5
BRANCH   4   8
HETATM    8  C   UNK N   1      35.721  15.687  10.905  0.00  0.00     0.164 C 
HETATM    9  O   UNK N   1      36.413  16.653  10.629  0.00  0.00    -0.648 OA
BRANCH   8  10
HETATM   10  O   UNK N   1      34.392  15.852  11.054  0.00  0.00    -0.775 OA
HETATM   11  H   UNK N   1      33.897  15.355  11.676  0.00  0.00     0.167 HD
ENDBRANCH   8  10
ENDBRANCH   4   8
ENDBRANCH   2   4
BRANCH   1  12
HETATM   12  C   UNK N   1      36.308  13.285  14.779  0.00  0.00     0.062 C 
HETATM   13  C   UNK N   1      37.258  12.103  14.730  0.00  0.00     0.035 C 
HETATM   14  C   UNK N   1      37.043  14.452  15.424  0.00  0.00     0.035 C 
BRANCH  12  15
HETATM   15  S   UNK N   1      34.888  12.857  15.827  0.00  0.00    -0.164 SA
HETATM   16  H   UNK N   1      34.847  11.985  16.870  0.00  0.00     0.102 HD
ENDBRANCH  12  15
ENDBRANCH   1  12
BRANCH   1  17
HETATM   17  O   UNK N   1      34.532  13.423  13.066  0.00  0.00    -0.348 OA
HETATM   18  H   UNK N   1      33.757  13.944  13.140  0.00  0.00     0.219 HD
ENDBRANCH   1  17
TORSDOF 8
ENDMDL
MODEL 3
REMARK VINA RESULT:      -4.1      2.233      5.203
REMARK  8 active torsions:
REMARK  status: ('A' for Active; 'I' for Inactive)
REMARK    1  A    between atoms: C_4  and  C_3 
REMARK    2  A    between atoms: S_13  and  C_3 
REMARK    3  A    between atoms: C_5  and  C_4 
REMARK    4  A    between atoms: C_4  and  N_8 
REMARK    5  A    between atoms: O_11  and  C_5 
REMARK    6  A    between atoms: C_7  and  C_6 
REMARK    7  A    between atoms: C_6  and  O_12 
REMARK    8  A    between atoms: S_14  and  C_7 
ROOT
HETATM    1  C   UNK N   1      35.062  16.483   9.573  0.00  0.00     0.130 C 
HETATM    2  N   UNK N   1      35.352  15.251   9.845  0.00  0.00    -0.358 N 
ATOM      3  HN  UNK N   1      34.910  14.527   9.280  1.00  0.00     0.162 HD
ENDROOT
BRANCH   2   4
HETATM    4  C   UNK N   1      36.262  14.825  10.896  0.00  0.00     0.190 C 
BRANCH   4   5
HETATM    5  C   UNK N   1      36.981  13.580  10.381  0.00  0.00     0.106 C 
BRANCH   5   6
HETATM    6  S   UNK N   1      38.498  13.961   9.450  0.00  0.00    -0.180 SA
HETATM    7  H   UNK N   1      38.625  15.031   8.619  0.00  0.00     0.101 HD
ENDBRANCH   5   6
ENDBRANCH   4   5
BRANCH   4   8
HETATM    8  C   UNK N   1      35.556  14.526  12.207  0.00  0.00     0.164 C 
HETATM    9  O   UNK N   1      36.084  14.780  13.278  0.00  0.00    -0.648 OA
BRANCH   8  10
HETATM   10  O   UNK N   1      34.336  13.954  12.195  0.00  0.00    -0.775 OA
HETATM   11  H   UNK N   1      34.122  13.230  12.749  0.00  0.00     0.167 HD
ENDBRANCH   8  10
ENDBRANCH   4   8
ENDBRANCH   2   4
BRANCH   1  12
HETATM   12  C   UNK N   1      34.150  16.814   8.413  0.00  0.00     0.062 C 
HETATM   13  C   UNK N   1      32.722  16.458   8.783  0.00  0.00     0.035 C 
HETATM   14  C   UNK N   1      34.186  18.292   8.048  0.00  0.00     0.035 C 
BRANCH  12  15
HETATM   15  S   UNK N   1      34.637  15.854   6.952  0.00  0.00    -0.164 SA
HETATM   16  H   UNK N   1      34.463  14.523   6.725  0.00  0.00     0.102 HD
ENDBRANCH  12  15
ENDBRANCH   1  12
BRANCH   1  17
HETATM   17  O   UNK N   1      35.580  17.489  10.312  0.00  0.00    -0.348 OA
HETATM   18  H   UNK N   1      35.288  17.980  11.055  0.00  0.00     0.219 HD
ENDBRANCH   1  17
TORSDOF 8
ENDMDL
MODEL 4
REMARK VINA RESULT:      -4.0      3.914      5.119
REMARK  8 active torsions:
REMARK  status: ('A' for Active; 'I' for Inactive)
REMARK    1  A    between atoms: C_4  and  C_3 
REMARK    2  A    between atoms: S_13  and  C_3 
REMARK    3  A    between atoms: C_5  and  C_4 
REMARK    4  A    between atoms: C_4  and  N_8 
REMARK    5  A    between atoms: O_11  and  C_5 
REMARK    6  A    between atoms: C_7  and  C_6 
REMARK    7  A    between atoms: C_6  and  O_12 
REMARK    8  A    between atoms: S_14  and  C_7 
ROOT
HETATM    1  C   UNK N   1      31.550  16.931   8.202  0.00  0.00     0.130 C 
HETATM    2  N   UNK N   1      30.464  17.372   7.652  0.00  0.00    -0.358 N 
ATOM      3  HN  UNK N   1      30.552  17.869   6.767  1.00  0.00     0.162 HD
ENDROOT
BRANCH   2   4
HETATM    4  C   UNK N   1      29.129  17.209   8.204  0.00  0.00     0.190 C 
BRANCH   4   5
HETATM    5  C   UNK N   1      28.170  17.103   7.019  0.00  0.00     0.106 C 
BRANCH   5   6
HETATM    6  S   UNK N   1      28.821  17.862   5.499  0.00  0.00    -0.180 SA
HETATM    7  H   UNK N   1      29.044  19.197   5.357  0.00  0.00     0.101 HD
ENDBRANCH   5   6
ENDBRANCH   4   5
BRANCH   4   8
HETATM    8  C   UNK N   1      28.720  18.351   9.117  0.00  0.00     0.164 C 
HETATM    9  O   UNK N   1      29.415  18.678  10.065  0.00  0.00    -0.648 OA
BRANCH   8  10
HETATM   10  O   UNK N   1      27.564  19.006   8.893  0.00  0.00    -0.775 OA
HETATM   11  H   UNK N   1      26.731  18.623   9.089  0.00  0.00     0.167 HD
ENDBRANCH   8  10
ENDBRANCH   4   8
ENDBRANCH   2   4
BRANCH   1  12
HETATM   12  C   UNK N   1      32.881  17.102   7.506  0.00  0.00     0.062 C 
HETATM   13  C   UNK N   1      32.646  17.324   6.024  0.00  0.00     0.035 C 
HETATM   14  C   UNK N   1      33.667  18.293   8.040  0.00  0.00     0.035 C 
BRANCH  12  15
HETATM   15  S   UNK N   1      33.889  15.609   7.727  0.00  0.00    -0.164 SA
HETATM   16  H   UNK N   1      33.881  14.737   8.771  0.00  0.00     0.102 HD
ENDBRANCH  12  15
ENDBRANCH   1  12
BRANCH   1  17
HETATM   17  O   UNK N   1      31.507  16.301   9.397  0.00  0.00    -0.348 OA
HETATM   18  H   UNK N   1      31.963  16.397  10.210  0.00  0.00     0.219 HD
ENDBRANCH   1  17
TORSDOF 8
ENDMDL
MODEL 5
REMARK VINA RESULT:      -4.0      2.076      2.330
REMARK  8 active torsions:
REMARK  status: ('A' for Active; 'I' for Inactive)
REMARK    1  A    between atoms: C_4  and  C_3 
REMARK    2  A    between atoms: S_13  and  C_3 
REMARK    3  A    between atoms: C_5  and  C_4 
REMARK    4  A    between atoms: C_4  and  N_8 
REMARK    5  A    between atoms: O_11  and  C_5 
REMARK    6  A    between atoms: C_7  and  C_6 
REMARK    7  A    between atoms: C_6  and  O_12 
REMARK    8  A    between atoms: S_14  and  C_7 
ROOT
HETATM    1  C   UNK N   1      34.522  14.698  10.571  0.00  0.00     0.130 C 
HETATM    2  N   UNK N   1      34.893  15.259   9.465  0.00  0.00    -0.358 N 
ATOM      3  HN  UNK N   1      35.810  15.010   9.095  1.00  0.00     0.162 HD
ENDROOT
BRANCH   2   4
HETATM    4  C   UNK N   1      34.100  16.216   8.712  0.00  0.00     0.190 C 
BRANCH   4   5
HETATM    5  C   UNK N   1      33.923  15.639   7.308  0.00  0.00     0.106 C 
BRANCH   5   6
HETATM    6  S   UNK N   1      35.366  14.688   6.736  0.00  0.00    -0.180 SA
HETATM    7  H   UNK N   1      35.565  14.325   5.441  0.00  0.00     0.101 HD
ENDBRANCH   5   6
ENDBRANCH   4   5
BRANCH   4   8
HETATM    8  C   UNK N   1      34.738  17.592   8.642  0.00  0.00     0.164 C 
HETATM    9  O   UNK N   1      35.331  18.060   9.601  0.00  0.00    -0.648 OA
BRANCH   8  10
HETATM   10  O   UNK N   1      34.635  18.321   7.513  0.00  0.00    -0.775 OA
HETATM   11  H   UNK N   1      35.219  18.200   6.790  0.00  0.00     0.167 HD
ENDBRANCH   8  10
ENDBRANCH   4   8
ENDBRANCH   2   4
BRANCH   1  12
HETATM   12  C   UNK N   1      35.404  13.667  11.237  0.00  0.00     0.062 C 
HETATM   13  C   UNK N   1      36.849  13.920  10.852  0.00  0.00     0.035 C 
HETATM   14  C   UNK N   1      35.308  13.714  12.757  0.00  0.00     0.035 C 
BRANCH  12  15
HETATM   15  S   UNK N   1      34.930  12.003  10.688  0.00  0.00    -0.164 SA
HETATM   16  H   UNK N   1      34.499  11.616   9.456  0.00  0.00     0.102 HD
ENDBRANCH  12  15
ENDBRANCH   1  12
BRANCH   1  17
HETATM   17  O   UNK N   1      33.337  15.018  11.138  0.00  0.00    -0.348 OA
HETATM   18  H   UNK N   1      32.557  14.543  11.348  0.00  0.00     0.219 HD
ENDBRANCH   1  17
TORSDOF 8
ENDMDL
MODEL 6
REMARK VINA RESULT:      -4.0     15.814     17.808
REMARK  8 active torsions:
REMARK  status: ('A' for Active; 'I' for Inactive)
REMARK    1  A    between atoms: C_4  and  C_3 
REMARK    2  A    between atoms: S_13  and  C_3 
REMARK    3  A    between atoms: C_5  and  C_4 
REMARK    4  A    between atoms: C_4  and  N_8 
REMARK    5  A    between atoms: O_11  and  C_5 
REMARK    6  A    between atoms: C_7  and  C_6 
REMARK    7  A    between atoms: C_6  and  O_12 
REMARK    8  A    between atoms: S_14  and  C_7 
ROOT
HETATM    1  C   UNK N   1      27.650  24.692  -3.609  0.00  0.00     0.130 C 
HETATM    2  N   UNK N   1      27.448  25.787  -4.269  0.00  0.00    -0.358 N 
ATOM      3  HN  UNK N   1      28.244  26.197  -4.756  1.00  0.00     0.162 HD
ENDROOT
BRANCH   2   4
HETATM    4  C   UNK N   1      26.171  26.474  -4.366  0.00  0.00     0.190 C 
BRANCH   4   5
HETATM    5  C   UNK N   1      26.164  27.209  -5.706  0.00  0.00     0.106 C 
BRANCH   5   6
HETATM    6  S   UNK N   1      25.935  26.100  -7.131  0.00  0.00    -0.180 SA
HETATM    7  H   UNK N   1      26.273  26.430  -8.407  0.00  0.00     0.101 HD
ENDBRANCH   5   6
ENDBRANCH   4   5
BRANCH   4   8
HETATM    8  C   UNK N   1      25.932  27.448  -3.226  0.00  0.00     0.164 C 
HETATM    9  O   UNK N   1      25.971  27.079  -2.064  0.00  0.00    -0.648 OA
BRANCH   8  10
HETATM   10  O   UNK N   1      25.655  28.739  -3.496  0.00  0.00    -0.775 OA
HETATM   11  H   UNK N   1      24.781  29.076  -3.463  0.00  0.00     0.167 HD
ENDBRANCH   8  10
ENDBRANCH   4   8
ENDBRANCH   2   4
BRANCH   1  12
HETATM   12  C   UNK N   1      29.008  24.028  -3.628  0.00  0.00     0.062 C 
HETATM   13  C   UNK N   1      30.087  25.095  -3.578  0.00  0.00     0.035 C 
HETATM   14  C   UNK N   1      29.216  23.094  -2.443  0.00  0.00     0.035 C 
BRANCH  12  15
HETATM   15  S   UNK N   1      29.203  23.065  -5.154  0.00  0.00    -0.164 SA
HETATM   16  H   UNK N   1      29.316  21.716  -5.287  0.00  0.00     0.102 HD
ENDBRANCH  12  15
ENDBRANCH   1  12
BRANCH   1  17
HETATM   17  O   UNK N   1      26.647  24.120  -2.905  0.00  0.00    -0.348 OA
HETATM   18  H   UNK N   1      25.814  23.752  -3.123  0.00  0.00     0.219 HD
ENDBRANCH   1  17
TORSDOF 8
ENDMDL
MODEL 7
REMARK VINA RESULT:      -4.0     11.877     13.288
REMARK  8 active torsions:
REMARK  status: ('A' for Active; 'I' for Inactive)
REMARK    1  A    between atoms: C_4  and  C_3 
REMARK    2  A    between atoms: S_13  and  C_3 
REMARK    3  A    between atoms: C_5  and  C_4 
REMARK    4  A    between atoms: C_4  and  N_8 
REMARK    5  A    between atoms: O_11  and  C_5 
REMARK    6  A    between atoms: C_7  and  C_6 
REMARK    7  A    between atoms: C_6  and  O_12 
REMARK    8  A    between atoms: S_14  and  C_7 
ROOT
HETATM    1  C   UNK N   1      41.748  22.606   1.883  0.00  0.00     0.130 C 
HETATM    2  N   UNK N   1      42.896  22.247   2.363  0.00  0.00    -0.358 N 
ATOM      3  HN  UNK N   1      43.145  21.261   2.303  1.00  0.00     0.162 HD
ENDROOT
BRANCH   2   4
HETATM    4  C   UNK N   1      43.855  23.148   2.981  0.00  0.00     0.190 C 
BRANCH   4   5
HETATM    5  C   UNK N   1      44.919  23.452   1.928  0.00  0.00     0.106 C 
BRANCH   5   6
HETATM    6  S   UNK N   1      45.639  25.116   2.094  0.00  0.00    -0.180 SA
HETATM    7  H   UNK N   1      46.255  25.777   1.077  0.00  0.00     0.101 HD
ENDBRANCH   5   6
ENDBRANCH   4   5
BRANCH   4   8
HETATM    8  C   UNK N   1      44.495  22.569   4.230  0.00  0.00     0.164 C 
HETATM    9  O   UNK N   1      43.876  22.496   5.279  0.00  0.00    -0.648 OA
BRANCH   8  10
HETATM   10  O   UNK N   1      45.773  22.143   4.191  0.00  0.00    -0.775 OA
HETATM   11  H   UNK N   1      46.486  22.729   4.030  0.00  0.00     0.167 HD
ENDBRANCH   8  10
ENDBRANCH   4   8
ENDBRANCH   2   4
BRANCH   1  12
HETATM   12  C   UNK N   1      40.855  21.592   1.205  0.00  0.00     0.062 C 
HETATM   13  C   UNK N   1      39.872  21.034   2.217  0.00  0.00     0.035 C 
HETATM   14  C   UNK N   1      40.055  22.197   0.058  0.00  0.00     0.035 C 
BRANCH  12  15
HETATM   15  S   UNK N   1      41.858  20.231   0.544  0.00  0.00    -0.164 SA
HETATM   16  H   UNK N   1      41.891  18.935   0.957  0.00  0.00     0.102 HD
ENDBRANCH  12  15
ENDBRANCH   1  12
BRANCH   1  17
HETATM   17  O   UNK N   1      41.339  23.891   1.971  0.00  0.00    -0.348 OA
HETATM   18  H   UNK N   1      40.960  24.418   2.647  0.00  0.00     0.219 HD
ENDBRANCH   1  17
TORSDOF 8
ENDMDL
MODEL 8
REMARK VINA RESULT:      -3.9      4.428      5.861
REMARK  8 active torsions:
REMARK  status: ('A' for Active; 'I' for Inactive)
REMARK    1  A    between atoms: C_4  and  C_3 
REMARK    2  A    between atoms: S_13  and  C_3 
REMARK    3  A    between atoms: C_5  and  C_4 
REMARK    4  A    between atoms: C_4  and  N_8 
REMARK    5  A    between atoms: O_11  and  C_5 
REMARK    6  A    between atoms: C_7  and  C_6 
REMARK    7  A    between atoms: C_6  and  O_12 
REMARK    8  A    between atoms: S_14  and  C_7 
ROOT
HETATM    1  C   UNK N   1      35.976  13.048  14.430  0.00  0.00     0.130 C 
HETATM    2  N   UNK N   1      35.440  13.306  13.281  0.00  0.00    -0.358 N 
ATOM      3  HN  UNK N   1      34.530  12.893  13.081  1.00  0.00     0.162 HD
ENDROOT
BRANCH   2   4
HETATM    4  C   UNK N   1      36.039  14.143  12.254  0.00  0.00     0.190 C 
BRANCH   4   5
HETATM    5  C   UNK N   1      34.895  14.878  11.558  0.00  0.00     0.106 C 
BRANCH   5   6
HETATM    6  S   UNK N   1      35.419  16.428  10.758  0.00  0.00    -0.180 SA
HETATM    7  H   UNK N   1      36.707  16.865  10.732  0.00  0.00     0.101 HD
ENDBRANCH   5   6
ENDBRANCH   4   5
BRANCH   4   8
HETATM    8  C   UNK N   1      36.854  13.354  11.245  0.00  0.00     0.164 C 
HETATM    9  O   UNK N   1      36.311  12.628  10.427  0.00  0.00    -0.648 OA
BRANCH   8  10
HETATM   10  O   UNK N   1      38.199  13.436  11.259  0.00  0.00    -0.775 OA
HETATM   11  H   UNK N   1      38.741  12.683  11.392  0.00  0.00     0.167 HD
ENDBRANCH   8  10
ENDBRANCH   4   8
ENDBRANCH   2   4
BRANCH   1  12
HETATM   12  C   UNK N   1      35.233  12.214  15.449  0.00  0.00     0.062 C 
HETATM   13  C   UNK N   1      34.777  13.106  16.589  0.00  0.00     0.035 C 
HETATM   14  C   UNK N   1      34.001  11.539  14.860  0.00  0.00     0.035 C 
BRANCH  12  15
HETATM   15  S   UNK N   1      36.328  10.927  16.110  0.00  0.00    -0.164 SA
HETATM   16  H   UNK N   1      37.565  11.077  16.658  0.00  0.00     0.102 HD
ENDBRANCH  12  15
ENDBRANCH   1  12
BRANCH   1  17
HETATM   17  O   UNK N   1      37.201  13.530  14.740  0.00  0.00    -0.348 OA
HETATM   18  H   UNK N   1      37.571  13.961  15.484  0.00  0.00     0.219 HD
ENDBRANCH   1  17
TORSDOF 8
ENDMDL
MODEL 9
REMARK VINA RESULT:      -3.9      2.111      5.089
REMARK  8 active torsions:
REMARK  status: ('A' for Active; 'I' for Inactive)
REMARK    1  A    between atoms: C_4  and  C_3 
REMARK    2  A    between atoms: S_13  and  C_3 
REMARK    3  A    between atoms: C_5  and  C_4 
REMARK    4  A    between atoms: C_4  and  N_8 
REMARK    5  A    between atoms: O_11  and  C_5 
REMARK    6  A    between atoms: C_7  and  C_6 
REMARK    7  A    between atoms: C_6  and  O_12 
REMARK    8  A    between atoms: S_14  and  C_7 
ROOT
HETATM    1  C   UNK N   1      33.657  16.655   6.665  0.00  0.00     0.130 C 
HETATM    2  N   UNK N   1      33.870  15.742   7.558  0.00  0.00    -0.358 N 
ATOM      3  HN  UNK N   1      33.182  14.996   7.644  1.00  0.00     0.162 HD
ENDROOT
BRANCH   2   4
HETATM    4  C   UNK N   1      35.020  15.704   8.447  0.00  0.00     0.190 C 
BRANCH   4   5
HETATM    5  C   UNK N   1      35.197  14.250   8.880  0.00  0.00     0.106 C 
BRANCH   5   6
HETATM    6  S   UNK N   1      36.942  13.761   9.055  0.00  0.00    -0.180 SA
HETATM    7  H   UNK N   1      37.980  14.466   8.530  0.00  0.00     0.101 HD
ENDBRANCH   5   6
ENDBRANCH   4   5
BRANCH   4   8
HETATM    8  C   UNK N   1      34.863  16.604   9.660  0.00  0.00     0.164 C 
HETATM    9  O   UNK N   1      35.201  17.776   9.623  0.00  0.00    -0.648 OA
BRANCH   8  10
HETATM   10  O   UNK N   1      34.360  16.102  10.805  0.00  0.00    -0.775 OA
HETATM   11  H   UNK N   1      34.516  15.216  11.069  0.00  0.00     0.167 HD
ENDBRANCH   8  10
ENDBRANCH   4   8
ENDBRANCH   2   4
BRANCH   1  12
HETATM   12  C   UNK N   1      32.457  16.560   5.750  0.00  0.00     0.062 C 
HETATM   13  C   UNK N   1      32.647  17.502   4.576  0.00  0.00     0.035 C 
HETATM   14  C   UNK N   1      32.256  15.155   5.197  0.00  0.00     0.035 C 
BRANCH  12  15
HETATM   15  S   UNK N   1      30.955  17.037   6.651  0.00  0.00    -0.164 SA
HETATM   16  H   UNK N   1      30.312  16.352   7.634  0.00  0.00     0.102 HD
ENDBRANCH  12  15
ENDBRANCH   1  12
BRANCH   1  17
HETATM   17  O   UNK N   1      34.508  17.696   6.530  0.00  0.00    -0.348 OA
HETATM   18  H   UNK N   1      35.308  17.953   6.945  0.00  0.00     0.219 HD
ENDBRANCH   1  17
TORSDOF 8
ENDMDL
