MODEL 1
REMARK VINA RESULT:      -7.4      0.000      0.000
REMARK  3 active torsions:
REMARK  status: ('A' for Active; 'I' for Inactive)
REMARK    1  A    between atoms: N_2  and  C_3 
REMARK    2  A    between atoms: C_3  and  C_4 
REMARK    3  A    between atoms: C_7  and  C_10 
ROOT
HETATM    1  C   UNK N   1      21.250  16.776   5.640  0.00  0.00     0.050 A 
HETATM    2  C   UNK N   1      20.954  16.314   4.358  0.00  0.00    -0.015 A 
HETATM    3  C   UNK N   1      20.813  17.425   3.569  0.00  0.00     0.015 A 
HETATM    4  C   UNK N   1      20.461  17.564   2.216  0.00  0.00     0.048 A 
HETATM    5  C   UNK N   1      20.444  18.878   1.699  0.00  0.00     0.060 A 
HETATM    6  C   UNK N   1      20.733  19.990   2.520  0.00  0.00     0.119 A 
HETATM    7  C   UNK N   1      21.044  19.809   3.879  0.00  0.00     0.072 A 
HETATM    8  C   UNK N   1      21.078  18.508   4.370  0.00  0.00     0.047 A 
HETATM    9  N   UNK N   1      21.339  18.130   5.638  0.00  0.00    -0.354 N 
HETATM   10  F   UNK N   1      20.686  21.239   1.998  0.00  0.00    -0.206 F 
HETATM   11  C   UNK N   1      20.084  16.428   1.312  0.00  0.00     0.252 C 
HETATM   12  O   UNK N   1      20.052  16.634   0.111  0.00  0.00    -0.268 OA
HETATM   13  N   UNK N   1      19.715  15.191   1.756  0.00  0.00    -0.357 N 
HETATM   14  C   UNK N   1      19.518  14.799   3.132  0.00  0.00     0.127 C 
HETATM   15  C   UNK N   1      20.803  14.909   3.903  0.00  0.00     0.061 C 
HETATM   16  H   UNK N   1      21.548  18.715   6.402  0.00  0.00     0.166 HD
HETATM   17  H   UNK N   1      19.569  14.498   1.073  0.00  0.00     0.162 HD
ENDROOT
BRANCH   1  18
HETATM   18  C   UNK N   1      21.386  15.946   6.859  0.00  0.00    -0.009 A 
HETATM   19  C   UNK N   1      22.416  15.000   6.951  0.00  0.00     0.014 A 
HETATM   20  C   UNK N   1      22.503  14.143   8.045  0.00  0.00     0.010 A 
HETATM   21  C   UNK N   1      21.559  14.213   9.069  0.00  0.00    -0.041 A 
HETATM   22  C   UNK N   1      20.529  15.166   8.996  0.00  0.00     0.010 A 
HETATM   23  C   UNK N   1      20.441  16.027   7.893  0.00  0.00     0.014 A 
BRANCH  21  24
HETATM   24  C   UNK N   1      21.683  13.246  10.208  0.00  0.00     0.152 C 
BRANCH  24  25
HETATM   25  N   UNK N   1      23.063  13.019  10.599  0.00  0.00    -0.422 N 
HETATM   26  C   UNK N   1      23.027  11.998  11.630  0.00  0.00     0.140 C 
HETATM   27  H   UNK N   1      23.890  13.483  10.226  0.00  0.00     0.153 HD
ENDBRANCH  24  25
ENDBRANCH  21  24
ENDBRANCH   1  18
TORSDOF 3
ENDMDL
MODEL 2
REMARK VINA RESULT:      -7.3      7.637     10.120
REMARK  3 active torsions:
REMARK  status: ('A' for Active; 'I' for Inactive)
REMARK    1  A    between atoms: N_2  and  C_3 
REMARK    2  A    between atoms: C_3  and  C_4 
REMARK    3  A    between atoms: C_7  and  C_10 
ROOT
HETATM    1  C   UNK N   1      28.016  18.264   4.459  0.00  0.00     0.050 A 
HETATM    2  C   UNK N   1      28.626  18.246   5.713  0.00  0.00    -0.015 A 
HETATM    3  C   UNK N   1      29.755  17.480   5.583  0.00  0.00     0.015 A 
HETATM    4  C   UNK N   1      30.715  17.074   6.525  0.00  0.00     0.048 A 
HETATM    5  C   UNK N   1      31.794  16.304   6.037  0.00  0.00     0.060 A 
HETATM    6  C   UNK N   1      31.872  15.937   4.676  0.00  0.00     0.119 A 
HETATM    7  C   UNK N   1      30.870  16.333   3.773  0.00  0.00     0.072 A 
HETATM    8  C   UNK N   1      29.824  17.109   4.263  0.00  0.00     0.047 A 
HETATM    9  N   UNK N   1      28.768  17.572   3.566  0.00  0.00    -0.354 N 
HETATM   10  F   UNK N   1      32.908  15.179   4.245  0.00  0.00    -0.206 F 
HETATM   11  C   UNK N   1      30.652  17.380   7.992  0.00  0.00     0.252 C 
HETATM   12  O   UNK N   1      31.657  17.204   8.661  0.00  0.00    -0.268 OA
HETATM   13  N   UNK N   1      29.520  17.786   8.638  0.00  0.00    -0.357 N 
HETATM   14  C   UNK N   1      28.197  17.883   8.068  0.00  0.00     0.127 C 
HETATM   15  C   UNK N   1      28.170  18.902   6.964  0.00  0.00     0.061 C 
HETATM   16  H   UNK N   1      28.580  17.436   2.609  0.00  0.00     0.166 HD
HETATM   17  H   UNK N   1      29.615  18.038   9.585  0.00  0.00     0.162 HD
ENDROOT
BRANCH   1  18
HETATM   18  C   UNK N   1      26.709  18.879   4.133  0.00  0.00    -0.009 A 
HETATM   19  C   UNK N   1      25.520  18.213   4.459  0.00  0.00     0.014 A 
HETATM   20  C   UNK N   1      24.285  18.726   4.074  0.00  0.00     0.010 A 
HETATM   21  C   UNK N   1      24.213  19.917   3.351  0.00  0.00    -0.041 A 
HETATM   22  C   UNK N   1      25.397  20.603   3.029  0.00  0.00     0.010 A 
HETATM   23  C   UNK N   1      26.641  20.083   3.416  0.00  0.00     0.014 A 
BRANCH  21  24
HETATM   24  C   UNK N   1      22.859  20.408   2.937  0.00  0.00     0.152 C 
BRANCH  24  25
HETATM   25  N   UNK N   1      21.783  19.578   3.448  0.00  0.00    -0.422 N 
HETATM   26  C   UNK N   1      20.553  20.302   3.184  0.00  0.00     0.140 C 
HETATM   27  H   UNK N   1      21.873  18.668   3.901  0.00  0.00     0.153 HD
ENDBRANCH  24  25
ENDBRANCH  21  24
ENDBRANCH   1  18
TORSDOF 3
ENDMDL
MODEL 3
REMARK VINA RESULT:      -7.3      8.465      9.465
REMARK  3 active torsions:
REMARK  status: ('A' for Active; 'I' for Inactive)
REMARK    1  A    between atoms: N_2  and  C_3 
REMARK    2  A    between atoms: C_3  and  C_4 
REMARK    3  A    between atoms: C_7  and  C_10 
ROOT
HETATM    1  C   UNK N   1      29.677  16.939   5.383  0.00  0.00     0.050 A 
HETATM    2  C   UNK N   1      28.492  17.647   5.584  0.00  0.00    -0.015 A 
HETATM    3  C   UNK N   1      27.634  17.254   4.590  0.00  0.00     0.015 A 
HETATM    4  C   UNK N   1      26.334  17.676   4.266  0.00  0.00     0.048 A 
HETATM    5  C   UNK N   1      25.709  17.023   3.180  0.00  0.00     0.060 A 
HETATM    6  C   UNK N   1      26.383  16.025   2.443  0.00  0.00     0.119 A 
HETATM    7  C   UNK N   1      27.698  15.659   2.777  0.00  0.00     0.072 A 
HETATM    8  C   UNK N   1      28.294  16.295   3.862  0.00  0.00     0.047 A 
HETATM    9  N   UNK N   1      29.543  16.096   4.328  0.00  0.00    -0.354 N 
HETATM   10  F   UNK N   1      25.764  15.435   1.393  0.00  0.00    -0.206 F 
HETATM   11  C   UNK N   1      25.592  18.772   4.972  0.00  0.00     0.252 C 
HETATM   12  O   UNK N   1      24.392  18.873   4.779  0.00  0.00    -0.268 OA
HETATM   13  N   UNK N   1      26.189  19.703   5.772  0.00  0.00    -0.357 N 
HETATM   14  C   UNK N   1      27.608  19.865   5.986  0.00  0.00     0.127 C 
HETATM   15  C   UNK N   1      28.186  18.642   6.641  0.00  0.00     0.061 C 
HETATM   16  H   UNK N   1      30.218  15.472   3.975  0.00  0.00     0.166 HD
HETATM   17  H   UNK N   1      25.595  20.325   6.250  0.00  0.00     0.162 HD
ENDROOT
BRANCH   1  18
HETATM   18  C   UNK N   1      30.934  17.107   6.147  0.00  0.00    -0.009 A 
HETATM   19  C   UNK N   1      30.901  17.179   7.545  0.00  0.00     0.014 A 
HETATM   20  C   UNK N   1      32.059  17.434   8.275  0.00  0.00     0.010 A 
HETATM   21  C   UNK N   1      33.275  17.625   7.620  0.00  0.00    -0.041 A 
HETATM   22  C   UNK N   1      33.325  17.542   6.218  0.00  0.00     0.010 A 
HETATM   23  C   UNK N   1      32.158  17.286   5.484  0.00  0.00     0.014 A 
BRANCH  21  24
HETATM   24  C   UNK N   1      34.484  17.926   8.454  0.00  0.00     0.152 C 
BRANCH  24  25
HETATM   25  N   UNK N   1      34.435  17.291   9.759  0.00  0.00    -0.422 N 
HETATM   26  C   UNK N   1      35.175  16.049   9.631  0.00  0.00     0.140 C 
HETATM   27  H   UNK N   1      33.973  17.646  10.596  0.00  0.00     0.153 HD
ENDBRANCH  24  25
ENDBRANCH  21  24
ENDBRANCH   1  18
TORSDOF 3
ENDMDL
MODEL 4
REMARK VINA RESULT:      -7.2     11.167     12.421
REMARK  3 active torsions:
REMARK  status: ('A' for Active; 'I' for Inactive)
REMARK    1  A    between atoms: N_2  and  C_3 
REMARK    2  A    between atoms: C_3  and  C_4 
REMARK    3  A    between atoms: C_7  and  C_10 
ROOT
HETATM    1  C   UNK N   1      32.732  16.545   8.204  0.00  0.00     0.050 A 
HETATM    2  C   UNK N   1      32.997  16.576   6.835  0.00  0.00    -0.015 A 
HETATM    3  C   UNK N   1      31.824  16.930   6.222  0.00  0.00     0.015 A 
HETATM    4  C   UNK N   1      31.488  17.060   4.864  0.00  0.00     0.048 A 
HETATM    5  C   UNK N   1      30.173  17.488   4.576  0.00  0.00     0.060 A 
HETATM    6  C   UNK N   1      29.242  17.733   5.608  0.00  0.00     0.119 A 
HETATM    7  C   UNK N   1      29.608  17.555   6.954  0.00  0.00     0.072 A 
HETATM    8  C   UNK N   1      30.913  17.154   7.225  0.00  0.00     0.047 A 
HETATM    9  N   UNK N   1      31.448  16.916   8.438  0.00  0.00    -0.354 N 
HETATM   10  F   UNK N   1      27.982  18.121   5.297  0.00  0.00    -0.206 F 
HETATM   11  C   UNK N   1      32.414  16.753   3.724  0.00  0.00     0.252 C 
HETATM   12  O   UNK N   1      32.106  17.146   2.611  0.00  0.00    -0.268 OA
HETATM   13  N   UNK N   1      33.551  16.009   3.845  0.00  0.00    -0.357 N 
HETATM   14  C   UNK N   1      33.995  15.310   5.029  0.00  0.00     0.127 C 
HETATM   15  C   UNK N   1      34.275  16.280   6.141  0.00  0.00     0.061 C 
HETATM   16  H   UNK N   1      31.001  16.994   9.312  0.00  0.00     0.166 HD
HETATM   17  H   UNK N   1      34.125  15.941   3.049  0.00  0.00     0.162 HD
ENDROOT
BRANCH   1  18
HETATM   18  C   UNK N   1      33.669  16.110   9.265  0.00  0.00    -0.009 A 
HETATM   19  C   UNK N   1      33.469  14.887   9.919  0.00  0.00     0.014 A 
HETATM   20  C   UNK N   1      34.280  14.505  10.984  0.00  0.00     0.010 A 
HETATM   21  C   UNK N   1      35.307  15.341  11.420  0.00  0.00    -0.041 A 
HETATM   22  C   UNK N   1      35.528  16.565  10.765  0.00  0.00     0.010 A 
HETATM   23  C   UNK N   1      34.709  16.949   9.693  0.00  0.00     0.014 A 
BRANCH  21  24
HETATM   24  C   UNK N   1      36.129  14.894  12.591  0.00  0.00     0.152 C 
BRANCH  24  25
HETATM   25  N   UNK N   1      37.051  13.825  12.250  0.00  0.00    -0.422 N 
HETATM   26  C   UNK N   1      36.745  12.725  13.146  0.00  0.00     0.140 C 
HETATM   27  H   UNK N   1      37.770  13.844  11.527  0.00  0.00     0.153 HD
ENDBRANCH  24  25
ENDBRANCH  21  24
ENDBRANCH   1  18
TORSDOF 3
ENDMDL
MODEL 5
REMARK VINA RESULT:      -7.1     10.002     11.566
REMARK  3 active torsions:
REMARK  status: ('A' for Active; 'I' for Inactive)
REMARK    1  A    between atoms: N_2  and  C_3 
REMARK    2  A    between atoms: C_3  and  C_4 
REMARK    3  A    between atoms: C_7  and  C_10 
ROOT
HETATM    1  C   UNK N   1      30.442  16.900   4.773  0.00  0.00     0.050 A 
HETATM    2  C   UNK N   1      30.442  17.038   6.161  0.00  0.00    -0.015 A 
HETATM    3  C   UNK N   1      29.457  17.942   6.460  0.00  0.00     0.015 A 
HETATM    4  C   UNK N   1      29.049  18.500   7.682  0.00  0.00     0.048 A 
HETATM    5  C   UNK N   1      27.952  19.390   7.637  0.00  0.00     0.060 A 
HETATM    6  C   UNK N   1      27.330  19.720   6.414  0.00  0.00     0.119 A 
HETATM    7  C   UNK N   1      27.793  19.166   5.208  0.00  0.00     0.072 A 
HETATM    8  C   UNK N   1      28.860  18.276   5.269  0.00  0.00     0.047 A 
HETATM    9  N   UNK N   1      29.454  17.655   4.230  0.00  0.00    -0.354 N 
HETATM   10  F   UNK N   1      26.295  20.593   6.403  0.00  0.00    -0.206 F 
HETATM   11  C   UNK N   1      29.710  18.237   9.003  0.00  0.00     0.252 C 
HETATM   12  O   UNK N   1      29.120  18.565  10.018  0.00  0.00    -0.268 OA
HETATM   13  N   UNK N   1      30.961  17.706   9.136  0.00  0.00    -0.357 N 
HETATM   14  C   UNK N   1      31.887  17.418   8.066  0.00  0.00     0.127 C 
HETATM   15  C   UNK N   1      31.325  16.369   7.149  0.00  0.00     0.061 C 
HETATM   16  H   UNK N   1      29.221  17.735   3.276  0.00  0.00     0.166 HD
HETATM   17  H   UNK N   1      31.261  17.500  10.050  0.00  0.00     0.162 HD
ENDROOT
BRANCH   1  18
HETATM   18  C   UNK N   1      31.405  16.108   3.974  0.00  0.00    -0.009 A 
HETATM   19  C   UNK N   1      31.190  14.739   3.772  0.00  0.00     0.014 A 
HETATM   20  C   UNK N   1      32.132  13.958   3.107  0.00  0.00     0.010 A 
HETATM   21  C   UNK N   1      33.311  14.531   2.633  0.00  0.00    -0.041 A 
HETATM   22  C   UNK N   1      33.534  15.906   2.817  0.00  0.00     0.010 A 
HETATM   23  C   UNK N   1      32.585  16.691   3.487  0.00  0.00     0.014 A 
BRANCH  21  24
HETATM   24  C   UNK N   1      34.303  13.638   1.952  0.00  0.00     0.152 C 
BRANCH  24  25
HETATM   25  N   UNK N   1      35.047  14.322   0.909  0.00  0.00    -0.422 N 
HETATM   26  C   UNK N   1      36.392  13.779   0.949  0.00  0.00     0.140 C 
HETATM   27  H   UNK N   1      34.695  15.041   0.277  0.00  0.00     0.153 HD
ENDBRANCH  24  25
ENDBRANCH  21  24
ENDBRANCH   1  18
TORSDOF 3
ENDMDL
MODEL 6
REMARK VINA RESULT:      -7.1      6.244      7.274
REMARK  3 active torsions:
REMARK  status: ('A' for Active; 'I' for Inactive)
REMARK    1  A    between atoms: N_2  and  C_3 
REMARK    2  A    between atoms: C_3  and  C_4 
REMARK    3  A    between atoms: C_7  and  C_10 
ROOT
HETATM    1  C   UNK N   1      26.533  17.656   5.688  0.00  0.00     0.050 A 
HETATM    2  C   UNK N   1      26.046  18.759   4.987  0.00  0.00    -0.015 A 
HETATM    3  C   UNK N   1      24.765  18.447   4.617  0.00  0.00     0.015 A 
HETATM    4  C   UNK N   1      23.822  19.152   3.851  0.00  0.00     0.048 A 
HETATM    5  C   UNK N   1      22.556  18.546   3.690  0.00  0.00     0.060 A 
HETATM    6  C   UNK N   1      22.278  17.279   4.247  0.00  0.00     0.119 A 
HETATM    7  C   UNK N   1      23.262  16.590   4.977  0.00  0.00     0.072 A 
HETATM    8  C   UNK N   1      24.498  17.208   5.145  0.00  0.00     0.047 A 
HETATM    9  N   UNK N   1      25.568  16.708   5.794  0.00  0.00    -0.354 N 
HETATM   10  F   UNK N   1      21.061  16.715   4.055  0.00  0.00    -0.206 F 
HETATM   11  C   UNK N   1      24.080  20.470   3.183  0.00  0.00     0.252 C 
HETATM   12  O   UNK N   1      23.124  21.103   2.768  0.00  0.00    -0.268 OA
HETATM   13  N   UNK N   1      25.327  20.978   2.956  0.00  0.00    -0.357 N 
HETATM   14  C   UNK N   1      26.582  20.310   3.206  0.00  0.00     0.127 C 
HETATM   15  C   UNK N   1      26.748  20.029   4.673  0.00  0.00     0.061 C 
HETATM   16  H   UNK N   1      25.636  15.837   6.248  0.00  0.00     0.166 HD
HETATM   17  H   UNK N   1      25.375  21.888   2.585  0.00  0.00     0.162 HD
ENDROOT
BRANCH   1  18
HETATM   18  C   UNK N   1      27.914  17.484   6.196  0.00  0.00    -0.009 A 
HETATM   19  C   UNK N   1      28.828  16.694   5.486  0.00  0.00     0.014 A 
HETATM   20  C   UNK N   1      30.099  16.439   5.996  0.00  0.00     0.010 A 
HETATM   21  C   UNK N   1      30.480  16.969   7.227  0.00  0.00    -0.041 A 
HETATM   22  C   UNK N   1      29.578  17.775   7.943  0.00  0.00     0.010 A 
HETATM   23  C   UNK N   1      28.298  18.028   7.430  0.00  0.00     0.014 A 
BRANCH  21  24
HETATM   24  C   UNK N   1      31.849  16.638   7.742  0.00  0.00     0.152 C 
BRANCH  24  25
HETATM   25  N   UNK N   1      32.328  17.604   8.715  0.00  0.00    -0.422 N 
HETATM   26  C   UNK N   1      33.487  18.241   8.116  0.00  0.00     0.140 C 
HETATM   27  H   UNK N   1      31.931  17.795   9.635  0.00  0.00     0.153 HD
ENDBRANCH  24  25
ENDBRANCH  21  24
ENDBRANCH   1  18
TORSDOF 3
ENDMDL
MODEL 7
REMARK VINA RESULT:      -7.0      7.623      8.427
REMARK  3 active torsions:
REMARK  status: ('A' for Active; 'I' for Inactive)
REMARK    1  A    between atoms: N_2  and  C_3 
REMARK    2  A    between atoms: C_3  and  C_4 
REMARK    3  A    between atoms: C_7  and  C_10 
ROOT
HETATM    1  C   UNK N   1      28.948  17.891   5.247  0.00  0.00     0.050 A 
HETATM    2  C   UNK N   1      27.775  17.139   5.180  0.00  0.00    -0.015 A 
HETATM    3  C   UNK N   1      26.848  17.925   4.549  0.00  0.00     0.015 A 
HETATM    4  C   UNK N   1      25.490  17.709   4.261  0.00  0.00     0.048 A 
HETATM    5  C   UNK N   1      24.823  18.733   3.551  0.00  0.00     0.060 A 
HETATM    6  C   UNK N   1      25.490  19.922   3.187  0.00  0.00     0.119 A 
HETATM    7  C   UNK N   1      26.840  20.114   3.527  0.00  0.00     0.072 A 
HETATM    8  C   UNK N   1      27.491  19.089   4.208  0.00  0.00     0.047 A 
HETATM    9  N   UNK N   1      28.770  19.088   4.633  0.00  0.00    -0.354 N 
HETATM   10  F   UNK N   1      24.816  20.893   2.525  0.00  0.00    -0.206 F 
HETATM   11  C   UNK N   1      24.713  16.496   4.677  0.00  0.00     0.252 C 
HETATM   12  O   UNK N   1      23.628  16.300   4.155  0.00  0.00    -0.268 OA
HETATM   13  N   UNK N   1      25.118  15.627   5.649  0.00  0.00    -0.357 N 
HETATM   14  C   UNK N   1      26.273  15.776   6.502  0.00  0.00     0.127 C 
HETATM   15  C   UNK N   1      27.537  15.765   5.689  0.00  0.00     0.061 C 
HETATM   16  H   UNK N   1      29.435  19.806   4.523  0.00  0.00     0.166 HD
HETATM   17  H   UNK N   1      24.570  14.820   5.780  0.00  0.00     0.162 HD
ENDROOT
BRANCH   1  18
HETATM   18  C   UNK N   1      30.198  17.499   5.937  0.00  0.00    -0.009 A 
HETATM   19  C   UNK N   1      30.250  17.480   7.338  0.00  0.00     0.014 A 
HETATM   20  C   UNK N   1      31.441  17.210   8.005  0.00  0.00     0.010 A 
HETATM   21  C   UNK N   1      32.608  16.957   7.286  0.00  0.00    -0.041 A 
HETATM   22  C   UNK N   1      32.568  16.959   5.881  0.00  0.00     0.010 A 
HETATM   23  C   UNK N   1      31.368  17.233   5.209  0.00  0.00     0.014 A 
BRANCH  21  24
HETATM   24  C   UNK N   1      33.868  16.702   8.056  0.00  0.00     0.152 C 
BRANCH  24  25
HETATM   25  N   UNK N   1      33.713  16.946   9.479  0.00  0.00    -0.422 N 
HETATM   26  C   UNK N   1      35.002  16.658  10.081  0.00  0.00     0.140 C 
HETATM   27  H   UNK N   1      32.868  17.256   9.958  0.00  0.00     0.153 HD
ENDBRANCH  24  25
ENDBRANCH  21  24
ENDBRANCH   1  18
TORSDOF 3
ENDMDL
MODEL 8
REMARK VINA RESULT:      -6.9     16.390     18.435
REMARK  3 active torsions:
REMARK  status: ('A' for Active; 'I' for Inactive)
REMARK    1  A    between atoms: N_2  and  C_3 
REMARK    2  A    between atoms: C_3  and  C_4 
REMARK    3  A    between atoms: C_7  and  C_10 
ROOT
HETATM    1  C   UNK N   1      34.825  11.151  15.922  0.00  0.00     0.050 A 
HETATM    2  C   UNK N   1      35.239  12.348  15.338  0.00  0.00    -0.015 A 
HETATM    3  C   UNK N   1      35.103  12.186  13.985  0.00  0.00     0.015 A 
HETATM    4  C   UNK N   1      35.419  13.035  12.912  0.00  0.00     0.048 A 
HETATM    5  C   UNK N   1      35.109  12.562  11.617  0.00  0.00     0.060 A 
HETATM    6  C   UNK N   1      34.542  11.284  11.424  0.00  0.00     0.119 A 
HETATM    7  C   UNK N   1      34.274  10.450  12.523  0.00  0.00     0.072 A 
HETATM    8  C   UNK N   1      34.566  10.937  13.794  0.00  0.00     0.047 A 
HETATM    9  N   UNK N   1      34.398  10.289  14.964  0.00  0.00    -0.354 N 
HETATM   10  F   UNK N   1      34.276  10.852  10.168  0.00  0.00    -0.206 F 
HETATM   11  C   UNK N   1      36.079  14.375  13.051  0.00  0.00     0.252 C 
HETATM   12  O   UNK N   1      36.068  15.125  12.089  0.00  0.00    -0.268 OA
HETATM   13  N   UNK N   1      36.744  14.785  14.171  0.00  0.00    -0.357 N 
HETATM   14  C   UNK N   1      37.022  13.986  15.341  0.00  0.00     0.127 C 
HETATM   15  C   UNK N   1      35.744  13.570  16.013  0.00  0.00     0.061 C 
HETATM   16  H   UNK N   1      34.041   9.381  15.096  0.00  0.00     0.166 HD
HETATM   17  H   UNK N   1      37.066  15.714  14.181  0.00  0.00     0.162 HD
ENDROOT
BRANCH   1  18
HETATM   18  C   UNK N   1      34.893  10.811  17.362  0.00  0.00    -0.009 A 
HETATM   19  C   UNK N   1      34.500   9.540  17.801  0.00  0.00     0.014 A 
HETATM   20  C   UNK N   1      34.463   9.234  19.159  0.00  0.00     0.010 A 
HETATM   21  C   UNK N   1      34.816  10.194  20.106  0.00  0.00    -0.041 A 
HETATM   22  C   UNK N   1      35.225  11.469  19.678  0.00  0.00     0.010 A 
HETATM   23  C   UNK N   1      35.260  11.777  18.311  0.00  0.00     0.014 A 
BRANCH  21  24
HETATM   24  C   UNK N   1      34.729   9.820  21.555  0.00  0.00     0.152 C 
BRANCH  24  25
HETATM   25  N   UNK N   1      33.845  10.694  22.306  0.00  0.00    -0.422 N 
HETATM   26  C   UNK N   1      32.512  10.139  22.164  0.00  0.00     0.140 C 
HETATM   27  H   UNK N   1      34.109  11.530  22.827  0.00  0.00     0.153 HD
ENDBRANCH  24  25
ENDBRANCH  21  24
ENDBRANCH   1  18
TORSDOF 3
ENDMDL
MODEL 9
REMARK VINA RESULT:      -6.8      8.102     10.352
REMARK  3 active torsions:
REMARK  status: ('A' for Active; 'I' for Inactive)
REMARK    1  A    between atoms: N_2  and  C_3 
REMARK    2  A    between atoms: C_3  and  C_4 
REMARK    3  A    between atoms: C_7  and  C_10 
ROOT
HETATM    1  C   UNK N   1      28.470  17.858   5.561  0.00  0.00     0.050 A 
HETATM    2  C   UNK N   1      29.261  16.897   4.933  0.00  0.00    -0.015 A 
HETATM    3  C   UNK N   1      30.243  16.559   5.826  0.00  0.00     0.015 A 
HETATM    4  C   UNK N   1      31.342  15.691   5.714  0.00  0.00     0.048 A 
HETATM    5  C   UNK N   1      32.151  15.543   6.863  0.00  0.00     0.060 A 
HETATM    6  C   UNK N   1      31.879  16.264   8.046  0.00  0.00     0.119 A 
HETATM    7  C   UNK N   1      30.790  17.151   8.104  0.00  0.00     0.072 A 
HETATM    8  C   UNK N   1      29.989  17.272   6.972  0.00  0.00     0.047 A 
HETATM    9  N   UNK N   1      28.916  18.075   6.825  0.00  0.00    -0.354 N 
HETATM   10  F   UNK N   1      32.687  16.115   9.122  0.00  0.00    -0.206 F 
HETATM   11  C   UNK N   1      31.717  14.947   4.467  0.00  0.00     0.252 C 
HETATM   12  O   UNK N   1      32.522  14.036   4.559  0.00  0.00    -0.268 OA
HETATM   13  N   UNK N   1      31.256  15.266   3.222  0.00  0.00    -0.357 N 
HETATM   14  C   UNK N   1      30.443  16.409   2.877  0.00  0.00     0.127 C 
HETATM   15  C   UNK N   1      29.110  16.337   3.567  0.00  0.00     0.061 C 
HETATM   16  H   UNK N   1      28.537  18.690   7.494  0.00  0.00     0.166 HD
HETATM   17  H   UNK N   1      31.503  14.659   2.488  0.00  0.00     0.162 HD
ENDROOT
BRANCH   1  18
HETATM   18  C   UNK N   1      27.346  18.602   4.948  0.00  0.00    -0.009 A 
HETATM   19  C   UNK N   1      26.047  18.079   5.003  0.00  0.00     0.014 A 
HETATM   20  C   UNK N   1      24.993  18.713   4.350  0.00  0.00     0.010 A 
HETATM   21  C   UNK N   1      25.218  19.882   3.625  0.00  0.00    -0.041 A 
HETATM   22  C   UNK N   1      26.513  20.425   3.573  0.00  0.00     0.010 A 
HETATM   23  C   UNK N   1      27.574  19.785   4.230  0.00  0.00     0.014 A 
BRANCH  21  24
HETATM   24  C   UNK N   1      24.054  20.505   2.916  0.00  0.00     0.152 C 
BRANCH  24  25
HETATM   25  N   UNK N   1      22.793  19.859   3.237  0.00  0.00    -0.422 N 
HETATM   26  C   UNK N   1      21.768  20.594   2.519  0.00  0.00     0.140 C 
HETATM   27  H   UNK N   1      22.656  19.052   3.845  0.00  0.00     0.153 HD
ENDBRANCH  24  25
ENDBRANCH  21  24
ENDBRANCH   1  18
TORSDOF 3
ENDMDL
