MODEL 1
REMARK VINA RESULT:      -7.3      0.000      0.000
REMARK  9 active torsions:
REMARK  status: ('A' for Active; 'I' for Inactive)
REMARK    1  A    between atoms: C_2  and  C_3 
REMARK    2  A    between atoms: C_2  and  N_26 
REMARK       I    between atoms: C_3  and  N_5 
REMARK    3  A    between atoms: C_6  and  N_5 
REMARK    4  A    between atoms: N_20  and  C_23 
REMARK    5  A    between atoms: C_23  and  C_24 
REMARK    6  A    between atoms: C_24  and  O_25 
REMARK       I    between atoms: N_26  and  C_27 
REMARK    7  A    between atoms: C_27  and  C_29 
REMARK    8  A    between atoms: C_29  and  C_30 
REMARK    9  A    between atoms: C_30  and  C_31 
ROOT
HETATM    1  C   UNK N   1      31.181  16.708   6.175  0.00  0.00     0.211 C 
HETATM    2  C   UNK N   1      30.410  16.309   5.005  0.00  0.00    -0.015 A 
HETATM    3  C   UNK N   1      30.929  15.265   4.221  0.00  0.00     0.011 A 
HETATM    4  C   UNK N   1      30.337  14.920   3.012  0.00  0.00     0.001 A 
HETATM    5  C   UNK N   1      29.226  15.625   2.568  0.00  0.00     0.001 A 
HETATM    6  C   UNK N   1      28.703  16.655   3.350  0.00  0.00     0.013 A 
HETATM    7  C   UNK N   1      29.275  17.017   4.594  0.00  0.00    -0.013 A 
HETATM    8  C   UNK N   1      28.642  18.158   5.354  0.00  0.00     0.019 A 
HETATM    9  C   UNK N   1      27.707  18.897   4.598  0.00  0.00     0.017 A 
HETATM   10  C   UNK N   1      26.989  19.957   5.121  0.00  0.00     0.018 A 
HETATM   11  C   UNK N   1      27.183  20.303   6.438  0.00  0.00     0.090 A 
HETATM   12  N   UNK N   1      28.063  19.606   7.196  0.00  0.00    -0.351 N 
ATOM     13  HN  UNK N   1      28.174  19.884   8.171  1.00  0.00     0.166 HD
HETATM   14  C   UNK N   1      28.816  18.554   6.744  0.00  0.00     0.121 A 
HETATM   15  N   UNK N   1      29.641  17.896   7.743  0.00  0.00    -0.299 N 
HETATM   16  C   UNK N   1      30.642  16.996   7.515  0.00  0.00     0.253 C 
HETATM   17  O   UNK N   1      31.209  16.470   8.465  0.00  0.00    -0.270 OA
ENDROOT
BRANCH   1  18
HETATM   18  N   UNK N   1      32.520  17.179   5.911  0.00  0.00    -0.342 N 
HETATM   19  C   UNK N   1      33.607  16.392   6.108  0.00  0.00     0.241 C 
HETATM   20  O   UNK N   1      34.722  16.857   5.926  0.00  0.00    -0.271 OA
HETATM   21  H   UNK N   1      32.648  18.098   5.581  0.00  0.00     0.163 HD
BRANCH  19  22
HETATM   22  C   UNK N   1      33.455  14.988   6.640  0.00  0.00     0.172 C 
HETATM   23  C   UNK N   1      33.964  13.910   5.692  0.00  0.00     0.042 C 
BRANCH  22  24
HETATM   24  N   UNK N   1      34.001  14.909   7.975  0.00  0.00    -0.348 N 
HETATM   25  C   UNK N   1      33.598  14.028   8.921  0.00  0.00     0.218 C 
HETATM   26  O   UNK N   1      32.606  13.332   8.756  0.00  0.00    -0.274 OA
HETATM   27  H   UNK N   1      34.719  15.540   8.214  0.00  0.00     0.163 HD
BRANCH  25  28
HETATM   28  C   UNK N   1      34.490  13.790  10.090  0.00  0.00     0.111 C 
BRANCH  28  29
HETATM   29  C   UNK N   1      34.327  14.802  11.207  0.00  0.00     0.126 C 
BRANCH  29  30
HETATM   30  C   UNK N   1      35.567  15.674  11.336  0.00  0.00     0.388 C 
HETATM   31  F   UNK N   1      35.198  16.996  11.194  0.00  0.00    -0.171 F 
HETATM   32  F   UNK N   1      36.136  15.490  12.581  0.00  0.00    -0.171 F 
HETATM   33  F   UNK N   1      36.491  15.360  10.353  0.00  0.00    -0.171 F 
ENDBRANCH  29  30
ENDBRANCH  28  29
ENDBRANCH  25  28
ENDBRANCH  22  24
ENDBRANCH  19  22
ENDBRANCH   1  18
BRANCH  15  34
HETATM   34  C   UNK N   1      29.467  18.312   9.131  0.00  0.00     0.160 C 
BRANCH  34  35
HETATM   35  C   UNK N   1      28.622  17.349   9.939  0.00  0.00     0.184 C 
BRANCH  35  36
HETATM   36  O   UNK N   1      27.366  17.247   9.340  0.00  0.00    -0.399 OA
HETATM   37  H   UNK N   1      27.000  16.375   9.125  0.00  0.00     0.209 HD
ENDBRANCH  35  36
ENDBRANCH  34  35
ENDBRANCH  15  34
TORSDOF 9
ENDMDL
MODEL 2
REMARK VINA RESULT:      -7.1      1.737      2.197
REMARK  9 active torsions:
REMARK  status: ('A' for Active; 'I' for Inactive)
REMARK    1  A    between atoms: C_2  and  C_3 
REMARK    2  A    between atoms: C_2  and  N_26 
REMARK       I    between atoms: C_3  and  N_5 
REMARK    3  A    between atoms: C_6  and  N_5 
REMARK    4  A    between atoms: N_20  and  C_23 
REMARK    5  A    between atoms: C_23  and  C_24 
REMARK    6  A    between atoms: C_24  and  O_25 
REMARK       I    between atoms: N_26  and  C_27 
REMARK    7  A    between atoms: C_27  and  C_29 
REMARK    8  A    between atoms: C_29  and  C_30 
REMARK    9  A    between atoms: C_30  and  C_31 
ROOT
HETATM    1  C   UNK N   1      29.863  16.913   4.813  0.00  0.00     0.211 C 
HETATM    2  C   UNK N   1      28.744  16.422   4.020  0.00  0.00    -0.015 A 
HETATM    3  C   UNK N   1      28.988  15.327   3.175  0.00  0.00     0.011 A 
HETATM    4  C   UNK N   1      28.019  14.889   2.278  0.00  0.00     0.001 A 
HETATM    5  C   UNK N   1      26.801  15.551   2.210  0.00  0.00     0.001 A 
HETATM    6  C   UNK N   1      26.552  16.632   3.056  0.00  0.00     0.013 A 
HETATM    7  C   UNK N   1      27.513  17.089   3.990  0.00  0.00    -0.013 A 
HETATM    8  C   UNK N   1      27.151  18.278   4.848  0.00  0.00     0.019 A 
HETATM    9  C   UNK N   1      25.986  18.953   4.423  0.00  0.00     0.017 A 
HETATM   10  C   UNK N   1      25.463  20.043   5.095  0.00  0.00     0.018 A 
HETATM   11  C   UNK N   1      26.097  20.487   6.232  0.00  0.00     0.090 A 
HETATM   12  N   UNK N   1      27.210  19.854   6.675  0.00  0.00    -0.351 N 
ATOM     13  HN  UNK N   1      27.647  20.204   7.527  1.00  0.00     0.166 HD
HETATM   14  C   UNK N   1      27.790  18.777   6.056  0.00  0.00     0.121 A 
HETATM   15  N   UNK N   1      28.935  18.201   6.741  0.00  0.00    -0.299 N 
HETATM   16  C   UNK N   1      29.821  17.294   6.235  0.00  0.00     0.253 C 
HETATM   17  O   UNK N   1      30.703  16.845   6.955  0.00  0.00    -0.270 OA
ENDROOT
BRANCH   1  18
HETATM   18  N   UNK N   1      31.007  17.372   4.062  0.00  0.00    -0.342 N 
HETATM   19  C   UNK N   1      32.118  16.609   3.910  0.00  0.00     0.241 C 
HETATM   20  O   UNK N   1      33.081  17.067   3.316  0.00  0.00    -0.271 OA
HETATM   21  H   UNK N   1      30.982  18.266   3.650  0.00  0.00     0.163 HD
BRANCH  19  22
HETATM   22  C   UNK N   1      32.207  15.245   4.550  0.00  0.00     0.172 C 
HETATM   23  C   UNK N   1      32.590  14.133   3.582  0.00  0.00     0.042 C 
BRANCH  22  24
HETATM   24  N   UNK N   1      33.035  15.312   5.731  0.00  0.00    -0.348 N 
HETATM   25  C   UNK N   1      32.963  14.449   6.773  0.00  0.00     0.218 C 
HETATM   26  O   UNK N   1      32.056  13.633   6.856  0.00  0.00    -0.274 OA
HETATM   27  H   UNK N   1      33.700  16.036   5.784  0.00  0.00     0.163 HD
BRANCH  25  28
HETATM   28  C   UNK N   1      34.109  14.389   7.722  0.00  0.00     0.111 C 
BRANCH  28  29
HETATM   29  C   UNK N   1      34.816  15.715   7.920  0.00  0.00     0.126 C 
BRANCH  29  30
HETATM   30  C   UNK N   1      34.211  16.485   9.084  0.00  0.00     0.388 C 
HETATM   31  F   UNK N   1      33.391  17.476   8.584  0.00  0.00    -0.171 F 
HETATM   32  F   UNK N   1      33.466  15.629   9.870  0.00  0.00    -0.171 F 
HETATM   33  F   UNK N   1      35.204  17.072   9.851  0.00  0.00    -0.171 F 
ENDBRANCH  29  30
ENDBRANCH  28  29
ENDBRANCH  25  28
ENDBRANCH  22  24
ENDBRANCH  19  22
ENDBRANCH   1  18
BRANCH  15  34
HETATM   34  C   UNK N   1      29.247  18.717   8.070  0.00  0.00     0.160 C 
BRANCH  34  35
HETATM   35  C   UNK N   1      28.641  17.892   9.186  0.00  0.00     0.184 C 
BRANCH  35  36
HETATM   36  O   UNK N   1      27.308  18.272   9.349  0.00  0.00    -0.399 OA
HETATM   37  H   UNK N   1      26.638  17.608   9.572  0.00  0.00     0.209 HD
ENDBRANCH  35  36
ENDBRANCH  34  35
ENDBRANCH  15  34
TORSDOF 9
ENDMDL
MODEL 3
REMARK VINA RESULT:      -7.0      8.351     11.014
REMARK  9 active torsions:
REMARK  status: ('A' for Active; 'I' for Inactive)
REMARK    1  A    between atoms: C_2  and  C_3 
REMARK    2  A    between atoms: C_2  and  N_26 
REMARK       I    between atoms: C_3  and  N_5 
REMARK    3  A    between atoms: C_6  and  N_5 
REMARK    4  A    between atoms: N_20  and  C_23 
REMARK    5  A    between atoms: C_23  and  C_24 
REMARK    6  A    between atoms: C_24  and  O_25 
REMARK       I    between atoms: N_26  and  C_27 
REMARK    7  A    between atoms: C_27  and  C_29 
REMARK    8  A    between atoms: C_29  and  C_30 
REMARK    9  A    between atoms: C_30  and  C_31 
ROOT
HETATM    1  C   UNK N   1      20.225  16.106   2.544  0.00  0.00     0.211 C 
HETATM    2  C   UNK N   1      21.221  15.209   1.974  0.00  0.00    -0.015 A 
HETATM    3  C   UNK N   1      20.760  14.209   1.103  0.00  0.00     0.011 A 
HETATM    4  C   UNK N   1      21.619  13.223   0.631  0.00  0.00     0.001 A 
HETATM    5  C   UNK N   1      22.947  13.222   1.037  0.00  0.00     0.001 A 
HETATM    6  C   UNK N   1      23.410  14.221   1.893  0.00  0.00     0.013 A 
HETATM    7  C   UNK N   1      22.562  15.246   2.376  0.00  0.00    -0.013 A 
HETATM    8  C   UNK N   1      23.158  16.271   3.312  0.00  0.00     0.019 A 
HETATM    9  C   UNK N   1      24.437  15.921   3.798  0.00  0.00     0.017 A 
HETATM   10  C   UNK N   1      25.170  16.741   4.637  0.00  0.00     0.018 A 
HETATM   11  C   UNK N   1      24.639  17.954   5.008  0.00  0.00     0.090 A 
HETATM   12  N   UNK N   1      23.421  18.326   4.549  0.00  0.00    -0.351 N 
ATOM     13  HN  UNK N   1      23.063  19.237   4.837  1.00  0.00     0.166 HD
HETATM   14  C   UNK N   1      22.633  17.563   3.726  0.00  0.00     0.121 A 
HETATM   15  N   UNK N   1      21.395  18.184   3.289  0.00  0.00    -0.299 N 
HETATM   16  C   UNK N   1      20.343  17.568   2.673  0.00  0.00     0.253 C 
HETATM   17  O   UNK N   1      19.387  18.236   2.299  0.00  0.00    -0.270 OA
ENDROOT
BRANCH   1  18
HETATM   18  N   UNK N   1      19.199  15.476   3.341  0.00  0.00    -0.342 N 
HETATM   19  C   UNK N   1      19.355  15.263   4.671  0.00  0.00     0.241 C 
HETATM   20  O   UNK N   1      18.482  14.673   5.288  0.00  0.00    -0.271 OA
HETATM   21  H   UNK N   1      18.363  15.190   2.906  0.00  0.00     0.163 HD
BRANCH  19  22
HETATM   22  C   UNK N   1      20.632  15.660   5.369  0.00  0.00     0.172 C 
HETATM   23  C   UNK N   1      20.470  16.823   6.340  0.00  0.00     0.042 C 
BRANCH  22  24
HETATM   24  N   UNK N   1      21.259  14.493   5.945  0.00  0.00    -0.348 N 
HETATM   25  C   UNK N   1      22.352  14.520   6.744  0.00  0.00     0.218 C 
HETATM   26  O   UNK N   1      22.994  15.548   6.903  0.00  0.00    -0.274 OA
HETATM   27  H   UNK N   1      20.863  13.614   5.741  0.00  0.00     0.163 HD
BRANCH  25  28
HETATM   28  C   UNK N   1      22.651  13.318   7.572  0.00  0.00     0.111 C 
BRANCH  28  29
HETATM   29  C   UNK N   1      21.498  12.868   8.446  0.00  0.00     0.126 C 
BRANCH  29  30
HETATM   30  C   UNK N   1      21.545  13.550   9.804  0.00  0.00     0.388 C 
HETATM   31  F   UNK N   1      21.168  14.870   9.653  0.00  0.00    -0.171 F 
HETATM   32  F   UNK N   1      20.670  12.922  10.670  0.00  0.00    -0.171 F 
HETATM   33  F   UNK N   1      22.826  13.508  10.329  0.00  0.00    -0.171 F 
ENDBRANCH  29  30
ENDBRANCH  28  29
ENDBRANCH  25  28
ENDBRANCH  22  24
ENDBRANCH  19  22
ENDBRANCH   1  18
BRANCH  15  34
HETATM   34  C   UNK N   1      21.193  19.587   3.634  0.00  0.00     0.160 C 
BRANCH  34  35
HETATM   35  C   UNK N   1      21.679  20.540   2.561  0.00  0.00     0.184 C 
BRANCH  35  36
HETATM   36  O   UNK N   1      22.933  21.027   2.932  0.00  0.00    -0.399 OA
HETATM   37  H   UNK N   1      23.011  21.659   3.663  0.00  0.00     0.209 HD
ENDBRANCH  35  36
ENDBRANCH  34  35
ENDBRANCH  15  34
TORSDOF 9
ENDMDL
MODEL 4
REMARK VINA RESULT:      -6.9      5.194      7.897
REMARK  9 active torsions:
REMARK  status: ('A' for Active; 'I' for Inactive)
REMARK    1  A    between atoms: C_2  and  C_3 
REMARK    2  A    between atoms: C_2  and  N_26 
REMARK       I    between atoms: C_3  and  N_5 
REMARK    3  A    between atoms: C_6  and  N_5 
REMARK    4  A    between atoms: N_20  and  C_23 
REMARK    5  A    between atoms: C_23  and  C_24 
REMARK    6  A    between atoms: C_24  and  O_25 
REMARK       I    between atoms: N_26  and  C_27 
REMARK    7  A    between atoms: C_27  and  C_29 
REMARK    8  A    between atoms: C_29  and  C_30 
REMARK    9  A    between atoms: C_30  and  C_31 
ROOT
HETATM    1  C   UNK N   1      29.740  16.669   5.687  0.00  0.00     0.211 C 
HETATM    2  C   UNK N   1      30.872  16.764   4.776  0.00  0.00    -0.015 A 
HETATM    3  C   UNK N   1      30.606  16.623   3.404  0.00  0.00     0.011 A 
HETATM    4  C   UNK N   1      31.642  16.554   2.479  0.00  0.00     0.001 A 
HETATM    5  C   UNK N   1      32.957  16.611   2.921  0.00  0.00     0.001 A 
HETATM    6  C   UNK N   1      33.224  16.762   4.282  0.00  0.00     0.013 A 
HETATM    7  C   UNK N   1      32.189  16.852   5.244  0.00  0.00    -0.013 A 
HETATM    8  C   UNK N   1      32.586  16.997   6.694  0.00  0.00     0.019 A 
HETATM    9  C   UNK N   1      33.957  16.760   6.935  0.00  0.00     0.017 A 
HETATM   10  C   UNK N   1      34.529  16.879   8.189  0.00  0.00     0.018 A 
HETATM   11  C   UNK N   1      33.734  17.254   9.247  0.00  0.00     0.090 A 
HETATM   12  N   UNK N   1      32.418  17.502   9.048  0.00  0.00    -0.351 N 
ATOM     13  HN  UNK N   1      31.862  17.788   9.853  1.00  0.00     0.166 HD
HETATM   14  C   UNK N   1      31.780  17.394   7.839  0.00  0.00     0.121 A 
HETATM   15  N   UNK N   1      30.380  17.782   7.830  0.00  0.00    -0.299 N 
HETATM   16  C   UNK N   1      29.472  17.550   6.837  0.00  0.00     0.253 C 
HETATM   17  O   UNK N   1      28.337  17.996   6.940  0.00  0.00    -0.270 OA
ENDROOT
BRANCH   1  18
HETATM   18  N   UNK N   1      29.015  15.421   5.657  0.00  0.00    -0.342 N 
HETATM   19  C   UNK N   1      27.973  15.218   4.813  0.00  0.00     0.241 C 
HETATM   20  O   UNK N   1      27.355  14.166   4.868  0.00  0.00    -0.271 OA
HETATM   21  H   UNK N   1      29.284  14.696   6.267  0.00  0.00     0.163 HD
BRANCH  19  22
HETATM   22  C   UNK N   1      27.512  16.314   3.883  0.00  0.00     0.172 C 
HETATM   23  C   UNK N   1      27.070  15.815   2.513  0.00  0.00     0.042 C 
BRANCH  22  24
HETATM   24  N   UNK N   1      26.539  17.146   4.551  0.00  0.00    -0.348 N 
HETATM   25  C   UNK N   1      26.467  18.494   4.433  0.00  0.00     0.218 C 
HETATM   26  O   UNK N   1      27.346  19.127   3.866  0.00  0.00    -0.274 OA
HETATM   27  H   UNK N   1      25.881  16.703   5.134  0.00  0.00     0.163 HD
BRANCH  25  28
HETATM   28  C   UNK N   1      25.206  19.172   4.845  0.00  0.00     0.111 C 
BRANCH  28  29
HETATM   29  C   UNK N   1      24.102  19.105   3.809  0.00  0.00     0.126 C 
BRANCH  29  30
HETATM   30  C   UNK N   1      24.099  20.349   2.934  0.00  0.00     0.388 C 
HETATM   31  F   UNK N   1      25.048  20.198   1.943  0.00  0.00    -0.171 F 
HETATM   32  F   UNK N   1      22.855  20.507   2.356  0.00  0.00    -0.171 F 
HETATM   33  F   UNK N   1      24.408  21.473   3.682  0.00  0.00    -0.171 F 
ENDBRANCH  29  30
ENDBRANCH  28  29
ENDBRANCH  25  28
ENDBRANCH  22  24
ENDBRANCH  19  22
ENDBRANCH   1  18
BRANCH  15  34
HETATM   34  C   UNK N   1      29.847  18.384   9.047  0.00  0.00     0.160 C 
BRANCH  34  35
HETATM   35  C   UNK N   1      28.907  17.467   9.803  0.00  0.00     0.184 C 
BRANCH  35  36
HETATM   36  O   UNK N   1      27.599  17.920   9.621  0.00  0.00    -0.399 OA
HETATM   37  H   UNK N   1      27.426  18.688   9.055  0.00  0.00     0.209 HD
ENDBRANCH  35  36
ENDBRANCH  34  35
ENDBRANCH  15  34
TORSDOF 9
ENDMDL
MODEL 5
REMARK VINA RESULT:      -6.8     10.575     12.544
REMARK  9 active torsions:
REMARK  status: ('A' for Active; 'I' for Inactive)
REMARK    1  A    between atoms: C_2  and  C_3 
REMARK    2  A    between atoms: C_2  and  N_26 
REMARK       I    between atoms: C_3  and  N_5 
REMARK    3  A    between atoms: C_6  and  N_5 
REMARK    4  A    between atoms: N_20  and  C_23 
REMARK    5  A    between atoms: C_23  and  C_24 
REMARK    6  A    between atoms: C_24  and  O_25 
REMARK       I    between atoms: N_26  and  C_27 
REMARK    7  A    between atoms: C_27  and  C_29 
REMARK    8  A    between atoms: C_29  and  C_30 
REMARK    9  A    between atoms: C_30  and  C_31 
ROOT
HETATM    1  C   UNK N   1      21.056  13.599   5.686  0.00  0.00     0.211 C 
HETATM    2  C   UNK N   1      22.171  12.681   5.497  0.00  0.00    -0.015 A 
HETATM    3  C   UNK N   1      22.495  12.328   4.177  0.00  0.00     0.011 A 
HETATM    4  C   UNK N   1      23.446  11.349   3.913  0.00  0.00     0.001 A 
HETATM    5  C   UNK N   1      24.072  10.702   4.970  0.00  0.00     0.001 A 
HETATM    6  C   UNK N   1      23.760  11.058   6.283  0.00  0.00     0.013 A 
HETATM    7  C   UNK N   1      22.808  12.063   6.580  0.00  0.00    -0.013 A 
HETATM    8  C   UNK N   1      22.530  12.361   8.035  0.00  0.00     0.019 A 
HETATM    9  C   UNK N   1      23.070  11.406   8.924  0.00  0.00     0.017 A 
HETATM   10  C   UNK N   1      22.960  11.516  10.299  0.00  0.00     0.018 A 
HETATM   11  C   UNK N   1      22.305  12.605  10.827  0.00  0.00     0.090 A 
HETATM   12  N   UNK N   1      21.788  13.545  10.002  0.00  0.00    -0.351 N 
ATOM     13  HN  UNK N   1      21.319  14.345  10.429  1.00  0.00     0.166 HD
HETATM   14  C   UNK N   1      21.848  13.499   8.633  0.00  0.00     0.121 A 
HETATM   15  N   UNK N   1      21.297  14.650   7.940  0.00  0.00    -0.299 N 
HETATM   16  C   UNK N   1      21.022  14.749   6.606  0.00  0.00     0.253 C 
HETATM   17  O   UNK N   1      20.620  15.812   6.149  0.00  0.00    -0.270 OA
ENDROOT
BRANCH   1  18
HETATM   18  N   UNK N   1      19.781  13.147   5.183  0.00  0.00    -0.342 N 
HETATM   19  C   UNK N   1      19.321  13.517   3.962  0.00  0.00     0.241 C 
HETATM   20  O   UNK N   1      18.210  13.155   3.607  0.00  0.00    -0.271 OA
HETATM   21  H   UNK N   1      19.228  12.554   5.742  0.00  0.00     0.163 HD
BRANCH  19  22
HETATM   22  C   UNK N   1      20.125  14.447   3.086  0.00  0.00     0.172 C 
HETATM   23  C   UNK N   1      20.299  13.952   1.656  0.00  0.00     0.042 C 
BRANCH  22  24
HETATM   24  N   UNK N   1      19.601  15.789   3.188  0.00  0.00    -0.348 N 
HETATM   25  C   UNK N   1      20.350  16.916   3.117  0.00  0.00     0.218 C 
HETATM   26  O   UNK N   1      21.571  16.865   3.128  0.00  0.00    -0.274 OA
HETATM   27  H   UNK N   1      18.630  15.893   3.317  0.00  0.00     0.163 HD
BRANCH  25  28
HETATM   28  C   UNK N   1      19.659  18.207   2.843  0.00  0.00     0.111 C 
BRANCH  28  29
HETATM   29  C   UNK N   1      20.404  19.113   1.883  0.00  0.00     0.126 C 
BRANCH  29  30
HETATM   30  C   UNK N   1      20.906  20.362   2.593  0.00  0.00     0.388 C 
HETATM   31  F   UNK N   1      22.240  20.192   2.903  0.00  0.00    -0.171 F 
HETATM   32  F   UNK N   1      20.766  21.456   1.761  0.00  0.00    -0.171 F 
HETATM   33  F   UNK N   1      20.199  20.577   3.764  0.00  0.00    -0.171 F 
ENDBRANCH  29  30
ENDBRANCH  28  29
ENDBRANCH  25  28
ENDBRANCH  22  24
ENDBRANCH  19  22
ENDBRANCH   1  18
BRANCH  15  34
HETATM   34  C   UNK N   1      20.887  15.788   8.756  0.00  0.00     0.160 C 
BRANCH  34  35
HETATM   35  C   UNK N   1      19.390  15.847   8.985  0.00  0.00     0.184 C 
BRANCH  35  36
HETATM   36  O   UNK N   1      18.997  14.690   9.660  0.00  0.00    -0.399 OA
HETATM   37  H   UNK N   1      19.632  13.972   9.804  0.00  0.00     0.209 HD
ENDBRANCH  35  36
ENDBRANCH  34  35
ENDBRANCH  15  34
TORSDOF 9
ENDMDL
MODEL 6
REMARK VINA RESULT:      -6.8      5.616      8.773
REMARK  9 active torsions:
REMARK  status: ('A' for Active; 'I' for Inactive)
REMARK    1  A    between atoms: C_2  and  C_3 
REMARK    2  A    between atoms: C_2  and  N_26 
REMARK       I    between atoms: C_3  and  N_5 
REMARK    3  A    between atoms: C_6  and  N_5 
REMARK    4  A    between atoms: N_20  and  C_23 
REMARK    5  A    between atoms: C_23  and  C_24 
REMARK    6  A    between atoms: C_24  and  O_25 
REMARK       I    between atoms: N_26  and  C_27 
REMARK    7  A    between atoms: C_27  and  C_29 
REMARK    8  A    between atoms: C_29  and  C_30 
REMARK    9  A    between atoms: C_30  and  C_31 
ROOT
HETATM    1  C   UNK N   1      29.332  17.296   5.555  0.00  0.00     0.211 C 
HETATM    2  C   UNK N   1      29.253  17.458   7.000  0.00  0.00    -0.015 A 
HETATM    3  C   UNK N   1      27.974  17.621   7.558  0.00  0.00     0.011 A 
HETATM    4  C   UNK N   1      27.818  17.927   8.905  0.00  0.00     0.001 A 
HETATM    5  C   UNK N   1      28.941  18.088   9.705  0.00  0.00     0.001 A 
HETATM    6  C   UNK N   1      30.212  17.916   9.155  0.00  0.00     0.013 A 
HETATM    7  C   UNK N   1      30.401  17.587   7.791  0.00  0.00    -0.013 A 
HETATM    8  C   UNK N   1      31.819  17.441   7.292  0.00  0.00     0.019 A 
HETATM    9  C   UNK N   1      32.793  17.911   8.199  0.00  0.00     0.017 A 
HETATM   10  C   UNK N   1      34.151  17.832   7.949  0.00  0.00     0.018 A 
HETATM   11  C   UNK N   1      34.576  17.263   6.771  0.00  0.00     0.090 A 
HETATM   12  N   UNK N   1      33.668  16.789   5.885  0.00  0.00    -0.351 N 
ATOM     13  HN  UNK N   1      34.019  16.364   5.027  1.00  0.00     0.166 HD
HETATM   14  C   UNK N   1      32.309  16.843   6.059  0.00  0.00     0.121 A 
HETATM   15  N   UNK N   1      31.516  16.207   5.021  0.00  0.00    -0.299 N 
HETATM   16  C   UNK N   1      30.169  16.321   4.834  0.00  0.00     0.253 C 
HETATM   17  O   UNK N   1      29.624  15.670   3.951  0.00  0.00    -0.270 OA
ENDROOT
BRANCH   1  18
HETATM   18  N   UNK N   1      28.809  18.390   4.772  0.00  0.00    -0.342 N 
HETATM   19  C   UNK N   1      27.556  18.366   4.255  0.00  0.00     0.241 C 
HETATM   20  O   UNK N   1      27.181  19.290   3.551  0.00  0.00    -0.271 OA
HETATM   21  H   UNK N   1      29.379  19.176   4.608  0.00  0.00     0.163 HD
BRANCH  19  22
HETATM   22  C   UNK N   1      26.662  17.167   4.461  0.00  0.00     0.172 C 
HETATM   23  C   UNK N   1      25.259  17.518   4.940  0.00  0.00     0.042 C 
BRANCH  22  24
HETATM   24  N   UNK N   1      26.692  16.327   3.286  0.00  0.00    -0.348 N 
HETATM   25  C   UNK N   1      26.430  14.998   3.282  0.00  0.00     0.218 C 
HETATM   26  O   UNK N   1      26.307  14.375   4.327  0.00  0.00    -0.274 OA
HETATM   27  H   UNK N   1      26.919  16.750   2.426  0.00  0.00     0.163 HD
BRANCH  25  28
HETATM   28  C   UNK N   1      26.112  14.344   1.982  0.00  0.00     0.111 C 
BRANCH  28  29
HETATM   29  C   UNK N   1      25.036  15.052   1.182  0.00  0.00     0.126 C 
BRANCH  29  30
HETATM   30  C   UNK N   1      23.843  14.137   0.947  0.00  0.00     0.388 C 
HETATM   31  F   UNK N   1      23.867  13.125   1.886  0.00  0.00    -0.171 F 
HETATM   32  F   UNK N   1      22.673  14.858   1.081  0.00  0.00    -0.171 F 
HETATM   33  F   UNK N   1      23.900  13.576  -0.317  0.00  0.00    -0.171 F 
ENDBRANCH  29  30
ENDBRANCH  28  29
ENDBRANCH  25  28
ENDBRANCH  22  24
ENDBRANCH  19  22
ENDBRANCH   1  18
BRANCH  15  34
HETATM   34  C   UNK N   1      32.236  15.453   3.999  0.00  0.00     0.160 C 
BRANCH  34  35
HETATM   35  C   UNK N   1      32.835  16.333   2.922  0.00  0.00     0.184 C 
BRANCH  35  36
HETATM   36  O   UNK N   1      31.868  17.251   2.507  0.00  0.00    -0.399 OA
HETATM   37  H   UNK N   1      31.733  18.071   3.005  0.00  0.00     0.209 HD
ENDBRANCH  35  36
ENDBRANCH  34  35
ENDBRANCH  15  34
TORSDOF 9
ENDMDL
MODEL 7
REMARK VINA RESULT:      -6.8     13.989     16.645
REMARK  9 active torsions:
REMARK  status: ('A' for Active; 'I' for Inactive)
REMARK    1  A    between atoms: C_2  and  C_3 
REMARK    2  A    between atoms: C_2  and  N_26 
REMARK       I    between atoms: C_3  and  N_5 
REMARK    3  A    between atoms: C_6  and  N_5 
REMARK    4  A    between atoms: N_20  and  C_23 
REMARK    5  A    between atoms: C_23  and  C_24 
REMARK    6  A    between atoms: C_24  and  O_25 
REMARK       I    between atoms: N_26  and  C_27 
REMARK    7  A    between atoms: C_27  and  C_29 
REMARK    8  A    between atoms: C_29  and  C_30 
REMARK    9  A    between atoms: C_30  and  C_31 
ROOT
HETATM    1  C   UNK N   1      29.343  23.813  -5.834  0.00  0.00     0.211 C 
HETATM    2  C   UNK N   1      30.069  22.875  -4.989  0.00  0.00    -0.015 A 
HETATM    3  C   UNK N   1      30.643  23.384  -3.812  0.00  0.00     0.011 A 
HETATM    4  C   UNK N   1      31.473  22.595  -3.025  0.00  0.00     0.001 A 
HETATM    5  C   UNK N   1      31.749  21.291  -3.415  0.00  0.00     0.001 A 
HETATM    6  C   UNK N   1      31.171  20.780  -4.577  0.00  0.00     0.013 A 
HETATM    7  C   UNK N   1      30.308  21.555  -5.389  0.00  0.00    -0.013 A 
HETATM    8  C   UNK N   1      29.749  20.913  -6.636  0.00  0.00     0.019 A 
HETATM    9  C   UNK N   1      30.372  19.692  -6.976  0.00  0.00     0.017 A 
HETATM   10  C   UNK N   1      29.981  18.926  -8.060  0.00  0.00     0.018 A 
HETATM   11  C   UNK N   1      28.934  19.365  -8.838  0.00  0.00     0.090 A 
HETATM   12  N   UNK N   1      28.307  20.525  -8.532  0.00  0.00    -0.351 N 
ATOM     13  HN  UNK N   1      27.528  20.814  -9.125  1.00  0.00     0.166 HD
HETATM   14  C   UNK N   1      28.645  21.340  -7.482  0.00  0.00     0.121 A 
HETATM   15  N   UNK N   1      27.792  22.499  -7.286  0.00  0.00    -0.299 N 
HETATM   16  C   UNK N   1      28.042  23.573  -6.481  0.00  0.00     0.253 C 
HETATM   17  O   UNK N   1      27.195  24.450  -6.364  0.00  0.00    -0.270 OA
ENDROOT
BRANCH   1  18
HETATM   18  N   UNK N   1      30.113  24.924  -6.341  0.00  0.00    -0.342 N 
HETATM   19  C   UNK N   1      30.300  26.055  -5.617  0.00  0.00     0.241 C 
HETATM   20  O   UNK N   1      30.909  26.989  -6.115  0.00  0.00    -0.271 OA
HETATM   21  H   UNK N   1      30.512  24.859  -7.239  0.00  0.00     0.163 HD
BRANCH  19  22
HETATM   22  C   UNK N   1      29.681  26.204  -4.249  0.00  0.00     0.172 C 
HETATM   23  C   UNK N   1      30.560  26.949  -3.252  0.00  0.00     0.042 C 
BRANCH  22  24
HETATM   24  N   UNK N   1      28.344  26.737  -4.372  0.00  0.00    -0.348 N 
HETATM   25  C   UNK N   1      27.252  26.227  -3.755  0.00  0.00     0.218 C 
HETATM   26  O   UNK N   1      27.300  25.155  -3.168  0.00  0.00    -0.274 OA
HETATM   27  H   UNK N   1      28.218  27.528  -4.945  0.00  0.00     0.163 HD
BRANCH  25  28
HETATM   28  C   UNK N   1      26.037  27.082  -3.648  0.00  0.00     0.111 C 
BRANCH  28  29
HETATM   29  C   UNK N   1      25.719  27.861  -4.909  0.00  0.00     0.126 C 
BRANCH  29  30
HETATM   30  C   UNK N   1      24.823  27.054  -5.836  0.00  0.00     0.388 C 
HETATM   31  F   UNK N   1      25.437  26.949  -7.068  0.00  0.00    -0.171 F 
HETATM   32  F   UNK N   1      24.631  25.791  -5.312  0.00  0.00    -0.171 F 
HETATM   33  F   UNK N   1      23.598  27.679  -6.000  0.00  0.00    -0.171 F 
ENDBRANCH  29  30
ENDBRANCH  28  29
ENDBRANCH  25  28
ENDBRANCH  22  24
ENDBRANCH  19  22
ENDBRANCH   1  18
BRANCH  15  34
HETATM   34  C   UNK N   1      26.591  22.592  -8.111  0.00  0.00     0.160 C 
BRANCH  34  35
HETATM   35  C   UNK N   1      25.427  21.796  -7.559  0.00  0.00     0.184 C 
BRANCH  35  36
HETATM   36  O   UNK N   1      24.842  22.523  -6.521  0.00  0.00    -0.399 OA
HETATM   37  H   UNK N   1      25.385  23.109  -5.973  0.00  0.00     0.209 HD
ENDBRANCH  35  36
ENDBRANCH  34  35
ENDBRANCH  15  34
TORSDOF 9
ENDMDL
MODEL 8
REMARK VINA RESULT:      -6.7     12.239     14.514
REMARK  9 active torsions:
REMARK  status: ('A' for Active; 'I' for Inactive)
REMARK    1  A    between atoms: C_2  and  C_3 
REMARK    2  A    between atoms: C_2  and  N_26 
REMARK       I    between atoms: C_3  and  N_5 
REMARK    3  A    between atoms: C_6  and  N_5 
REMARK    4  A    between atoms: N_20  and  C_23 
REMARK    5  A    between atoms: C_23  and  C_24 
REMARK    6  A    between atoms: C_24  and  O_25 
REMARK       I    between atoms: N_26  and  C_27 
REMARK    7  A    between atoms: C_27  and  C_29 
REMARK    8  A    between atoms: C_29  and  C_30 
REMARK    9  A    between atoms: C_30  and  C_31 
ROOT
HETATM    1  C   UNK N   1      28.965  22.253  -6.658  0.00  0.00     0.211 C 
HETATM    2  C   UNK N   1      27.586  22.055  -7.082  0.00  0.00    -0.015 A 
HETATM    3  C   UNK N   1      27.329  20.979  -7.947  0.00  0.00     0.011 A 
HETATM    4  C   UNK N   1      26.071  20.805  -8.515  0.00  0.00     0.001 A 
HETATM    5  C   UNK N   1      25.062  21.717  -8.233  0.00  0.00     0.001 A 
HETATM    6  C   UNK N   1      25.312  22.780  -7.366  0.00  0.00     0.013 A 
HETATM    7  C   UNK N   1      26.578  22.972  -6.760  0.00  0.00    -0.013 A 
HETATM    8  C   UNK N   1      26.749  24.165  -5.850  0.00  0.00     0.019 A 
HETATM    9  C   UNK N   1      25.689  25.095  -5.925  0.00  0.00     0.017 A 
HETATM   10  C   UNK N   1      25.636  26.235  -5.144  0.00  0.00     0.018 A 
HETATM   11  C   UNK N   1      26.652  26.473  -4.248  0.00  0.00     0.090 A 
HETATM   12  N   UNK N   1      27.677  25.595  -4.142  0.00  0.00    -0.351 N 
ATOM     13  HN  UNK N   1      28.407  25.798  -3.459  1.00  0.00     0.166 HD
HETATM   14  C   UNK N   1      27.803  24.452  -4.888  0.00  0.00     0.121 A 
HETATM   15  N   UNK N   1      28.940  23.609  -4.560  0.00  0.00    -0.299 N 
HETATM   16  C   UNK N   1      29.420  22.560  -5.291  0.00  0.00     0.253 C 
HETATM   17  O   UNK N   1      30.350  21.895  -4.854  0.00  0.00    -0.270 OA
ENDROOT
BRANCH   1  18
HETATM   18  N   UNK N   1      29.917  22.494  -7.716  0.00  0.00    -0.342 N 
HETATM   19  C   UNK N   1      30.714  21.510  -8.201  0.00  0.00     0.241 C 
HETATM   20  O   UNK N   1      31.544  21.779  -9.055  0.00  0.00    -0.271 OA
HETATM   21  H   UNK N   1      29.991  23.400  -8.096  0.00  0.00     0.163 HD
BRANCH  19  22
HETATM   22  C   UNK N   1      30.651  20.116  -7.626  0.00  0.00     0.172 C 
HETATM   23  C   UNK N   1      30.663  19.013  -8.678  0.00  0.00     0.042 C 
BRANCH  22  24
HETATM   24  N   UNK N   1      31.655  19.964  -6.599  0.00  0.00    -0.348 N 
HETATM   25  C   UNK N   1      32.961  19.692  -6.833  0.00  0.00     0.218 C 
HETATM   26  O   UNK N   1      33.354  19.388  -7.950  0.00  0.00    -0.274 OA
HETATM   27  H   UNK N   1      31.370  20.066  -5.662  0.00  0.00     0.163 HD
BRANCH  25  28
HETATM   28  C   UNK N   1      33.942  19.950  -5.741  0.00  0.00     0.111 C 
BRANCH  28  29
HETATM   29  C   UNK N   1      33.353  19.855  -4.348  0.00  0.00     0.126 C 
BRANCH  29  30
HETATM   30  C   UNK N   1      33.791  21.034  -3.491  0.00  0.00     0.388 C 
HETATM   31  F   UNK N   1      35.171  21.079  -3.469  0.00  0.00    -0.171 F 
HETATM   32  F   UNK N   1      33.304  22.207  -4.032  0.00  0.00    -0.171 F 
HETATM   33  F   UNK N   1      33.327  20.894  -2.194  0.00  0.00    -0.171 F 
ENDBRANCH  29  30
ENDBRANCH  28  29
ENDBRANCH  25  28
ENDBRANCH  22  24
ENDBRANCH  19  22
ENDBRANCH   1  18
BRANCH  15  34
HETATM   34  C   UNK N   1      29.727  23.976  -3.388  0.00  0.00     0.160 C 
BRANCH  34  35
HETATM   35  C   UNK N   1      29.366  23.175  -2.153  0.00  0.00     0.184 C 
BRANCH  35  36
HETATM   36  O   UNK N   1      30.537  22.884  -1.452  0.00  0.00    -0.399 OA
HETATM   37  H   UNK N   1      30.492  22.630  -0.517  0.00  0.00     0.209 HD
ENDBRANCH  35  36
ENDBRANCH  34  35
ENDBRANCH  15  34
TORSDOF 9
ENDMDL
MODEL 9
REMARK VINA RESULT:      -6.7      4.419      6.378
REMARK  9 active torsions:
REMARK  status: ('A' for Active; 'I' for Inactive)
REMARK    1  A    between atoms: C_2  and  C_3 
REMARK    2  A    between atoms: C_2  and  N_26 
REMARK       I    between atoms: C_3  and  N_5 
REMARK    3  A    between atoms: C_6  and  N_5 
REMARK    4  A    between atoms: N_20  and  C_23 
REMARK    5  A    between atoms: C_23  and  C_24 
REMARK    6  A    between atoms: C_24  and  O_25 
REMARK       I    between atoms: N_26  and  C_27 
REMARK    7  A    between atoms: C_27  and  C_29 
REMARK    8  A    between atoms: C_29  and  C_30 
REMARK    9  A    between atoms: C_30  and  C_31 
ROOT
HETATM    1  C   UNK N   1      35.670  14.030   8.731  0.00  0.00     0.211 C 
HETATM    2  C   UNK N   1      35.160  12.967   7.875  0.00  0.00    -0.015 A 
HETATM    3  C   UNK N   1      35.439  11.645   8.258  0.00  0.00     0.011 A 
HETATM    4  C   UNK N   1      35.117  10.578   7.426  0.00  0.00     0.001 A 
HETATM    5  C   UNK N   1      34.526  10.826   6.195  0.00  0.00     0.001 A 
HETATM    6  C   UNK N   1      34.238  12.138   5.817  0.00  0.00     0.013 A 
HETATM    7  C   UNK N   1      34.538  13.242   6.651  0.00  0.00    -0.013 A 
HETATM    8  C   UNK N   1      34.202  14.622   6.140  0.00  0.00     0.019 A 
HETATM    9  C   UNK N   1      33.864  14.656   4.769  0.00  0.00     0.017 A 
HETATM   10  C   UNK N   1      33.487  15.816   4.117  0.00  0.00     0.018 A 
HETATM   11  C   UNK N   1      33.428  16.989   4.834  0.00  0.00     0.090 A 
HETATM   12  N   UNK N   1      33.732  16.989   6.153  0.00  0.00    -0.351 N 
ATOM     13  HN  UNK N   1      33.667  17.875   6.655  1.00  0.00     0.166 HD
HETATM   14  C   UNK N   1      34.124  15.883   6.862  0.00  0.00     0.121 A 
HETATM   15  N   UNK N   1      34.328  16.089   8.286  0.00  0.00    -0.299 N 
HETATM   16  C   UNK N   1      34.935  15.231   9.158  0.00  0.00     0.253 C 
HETATM   17  O   UNK N   1      34.975  15.512  10.350  0.00  0.00    -0.270 OA
ENDROOT
BRANCH   1  18
HETATM   18  N   UNK N   1      37.105  14.068   8.892  0.00  0.00    -0.342 N 
HETATM   19  C   UNK N   1      37.717  13.537   9.979  0.00  0.00     0.241 C 
HETATM   20  O   UNK N   1      38.928  13.648  10.097  0.00  0.00    -0.271 OA
HETATM   21  H   UNK N   1      37.654  14.494   8.195  0.00  0.00     0.163 HD
BRANCH  19  22
HETATM   22  C   UNK N   1      36.909  12.901  11.084  0.00  0.00     0.172 C 
HETATM   23  C   UNK N   1      37.142  11.404  11.236  0.00  0.00     0.042 C 
BRANCH  22  24
HETATM   24  N   UNK N   1      37.076  13.653  12.307  0.00  0.00    -0.348 N 
HETATM   25  C   UNK N   1      36.108  13.834  13.237  0.00  0.00     0.218 C 
HETATM   26  O   UNK N   1      34.951  13.503  13.020  0.00  0.00    -0.274 OA
HETATM   27  H   UNK N   1      37.955  14.062  12.476  0.00  0.00     0.163 HD
BRANCH  25  28
HETATM   28  C   UNK N   1      36.514  14.277  14.600  0.00  0.00     0.111 C 
BRANCH  28  29
HETATM   29  C   UNK N   1      36.570  13.159  15.622  0.00  0.00     0.126 C 
BRANCH  29  30
HETATM   30  C   UNK N   1      35.551  13.381  16.729  0.00  0.00     0.388 C 
HETATM   31  F   UNK N   1      34.293  13.464  16.166  0.00  0.00    -0.171 F 
HETATM   32  F   UNK N   1      35.588  12.321  17.613  0.00  0.00    -0.171 F 
HETATM   33  F   UNK N   1      35.815  14.560  17.407  0.00  0.00    -0.171 F 
ENDBRANCH  29  30
ENDBRANCH  28  29
ENDBRANCH  25  28
ENDBRANCH  22  24
ENDBRANCH  19  22
ENDBRANCH   1  18
BRANCH  15  34
HETATM   34  C   UNK N   1      33.951  17.388   8.834  0.00  0.00     0.160 C 
BRANCH  34  35
HETATM   35  C   UNK N   1      34.687  18.543   8.187  0.00  0.00     0.184 C 
BRANCH  35  36
HETATM   36  O   UNK N   1      35.634  19.030   9.089  0.00  0.00    -0.399 OA
HETATM   37  H   UNK N   1      35.818  18.545   9.908  0.00  0.00     0.209 HD
ENDBRANCH  35  36
ENDBRANCH  34  35
ENDBRANCH  15  34
TORSDOF 9
ENDMDL
