REMARK  2 active torsions:
REMARK  status: ('A' for Active; 'I' for Inactive)
REMARK    1  A    between atoms: C_11  and  C_10 
REMARK    2  A    between atoms: N_13  and  C_12 
ROOT
HETATM    1  C   UNK N   1      -0.222   3.930  -0.000  0.00  0.00     0.014 A 
HETATM    2  C   UNK N   1      -2.643   3.910  -0.000  0.00  0.00     0.014 A 
HETATM    3  C   UNK N   1      -0.235   5.324  -0.000  0.00  0.00     0.037 A 
HETATM    4  C   UNK N   1      -2.657   5.301   0.000  0.00  0.00     0.037 A 
HETATM    5  C   UNK N   1      -1.428   3.212  -0.000  0.00  0.00    -0.026 A 
HETATM    6  C   UNK N   1      -1.454   6.020   0.000  0.00  0.00     0.102 A 
ENDROOT
BRANCH   5   7
HETATM    7  C   UNK N   1      -1.425   1.739  -0.000  0.00  0.00    -0.026 A 
HETATM    8  C   UNK N   1      -0.215   1.028  -0.000  0.00  0.00     0.012 A 
HETATM    9  C   UNK N   1      -0.220  -0.368   0.000  0.00  0.00     0.001 A 
HETATM   10  C   UNK N   1      -1.433  -1.062   0.000  0.00  0.00     0.000 A 
HETATM   11  C   UNK N   1      -2.641  -0.362   0.000  0.00  0.00     0.001 A 
HETATM   12  C   UNK N   1      -2.638   1.032  -0.000  0.00  0.00     0.012 A 
ENDBRANCH   5   7
BRANCH   6  13
HETATM   13  N   UNK N   1      -1.472   7.440   0.000  0.00  0.00    -0.116 N 
HETATM   14  O   UNK N   1      -2.512   8.028   0.000  0.00  0.00    -0.532 OA
HETATM   15  O   UNK N   1      -0.449   8.055  -0.000  0.00  0.00    -0.532 OA
ENDBRANCH   6  13
TORSDOF 2
