MODEL 1
REMARK VINA RESULT:      -9.6      0.000      0.000
REMARK  6 active torsions:
REMARK  status: ('A' for Active; 'I' for Inactive)
REMARK    1  A    between atoms: S_2  and  N_5 
REMARK    2  A    between atoms: N_5  and  C_6 
REMARK    3  A    between atoms: C_17  and  C_19 
REMARK    4  A    between atoms: C_20  and  O_39 
REMARK    5  A    between atoms: N_28  and  C_31 
REMARK    6  A    between atoms: C_31  and  C_32 
ROOT
HETATM    1  C   UNK N   1      24.985  15.460   6.329  0.00  0.00     0.106 A 
HETATM    2  C   UNK N   1      23.993  16.310   5.986  0.00  0.00     0.069 A 
HETATM    3  C   UNK N   1      22.555  15.980   6.206  0.00  0.00     0.071 A 
HETATM    4  C   UNK N   1      21.809  16.052   4.875  0.00  0.00    -0.002 C 
HETATM    5  C   UNK N   1      20.319  16.076   5.188  0.00  0.00     0.006 C 
HETATM    6  C   UNK N   1      20.038  14.650   5.654  0.00  0.00     0.007 C 
HETATM    7  C   UNK N   1      21.403  13.970   5.581  0.00  0.00     0.010 C 
HETATM    8  C   UNK N   1      21.988  14.646   4.370  0.00  0.00     0.012 C 
HETATM    9  C   UNK N   1      22.245  14.557   6.721  0.00  0.00     0.102 A 
HETATM   10  N   UNK N   1      23.392  13.714   7.058  0.00  0.00    -0.338 N 
HETATM   11  C   UNK N   1      24.676  14.130   6.909  0.00  0.00     0.260 A 
HETATM   12  O   UNK N   1      25.590  13.381   7.211  0.00  0.00    -0.267 OA
ENDROOT
BRANCH   1  13
HETATM   13  C   UNK N   1      26.404  15.843   6.148  0.00  0.00     0.134 C 
HETATM   14  N   UNK N   1      27.084  15.344   5.173  0.00  0.00    -0.265 N 
HETATM   15  S   UNK N   1      28.764  15.705   4.950  0.00  0.00     0.266 S 
ATOM     16  HN  UNK N   1      26.619  14.718   4.514  1.00  0.00     0.180 HD
HETATM   17  C   UNK N   1      29.327  16.468   6.435  0.00  0.00     0.108 A 
HETATM   18  O   UNK N   1      28.740  16.662   3.754  0.00  0.00    -0.200 OA
HETATM   19  O   UNK N   1      29.394  14.404   4.426  0.00  0.00    -0.200 OA
HETATM   20  C   UNK N   1      28.357  16.952   7.316  0.00  0.00     0.057 A 
HETATM   21  C   UNK N   1      30.675  16.721   6.669  0.00  0.00     0.057 A 
HETATM   22  C   UNK N   1      28.726  17.687   8.433  0.00  0.00     0.033 A 
HETATM   23  N   UNK N   1      26.988  16.712   7.113  0.00  0.00    -0.340 N 
HETATM   24  C   UNK N   1      30.062  17.949   8.670  0.00  0.00     0.032 A 
HETATM   25  C   UNK N   1      31.041  17.449   7.806  0.00  0.00     0.043 A 
HETATM   26  H   UNK N   1      26.367  17.196   7.702  0.00  0.00     0.167 HD
BRANCH  25  27
HETATM   27  N   UNK N   1      32.357  17.927   7.939  0.00  0.00    -0.285 N 
HETATM   28  H   UNK N   1      32.547  18.781   8.390  0.00  0.00     0.178 HD
BRANCH  27  29
HETATM   29  S   UNK N   1      33.648  16.940   7.271  0.00  0.00     0.227 S 
HETATM   30  C   UNK N   1      34.347  18.382   8.139  0.00  0.00     0.186 C 
HETATM   31  O   UNK N   1      34.410  17.849   6.290  0.00  0.00    -0.206 OA
HETATM   32  O   UNK N   1      34.639  16.614   8.394  0.00  0.00    -0.206 OA
ENDBRANCH  27  29
ENDBRANCH  25  27
ENDBRANCH   1  13
BRANCH   2  33
HETATM   33  O   UNK N   1      24.265  17.526   5.463  0.00  0.00    -0.363 OA
HETATM   34  H   UNK N   1      25.107  17.771   5.135  0.00  0.00     0.217 HD
ENDBRANCH   2  33
BRANCH  10  35
HETATM   35  C   UNK N   1      23.199  12.348   7.529  0.00  0.00     0.165 C 
BRANCH  35  36
HETATM   36  C   UNK N   1      23.047  12.237   8.995  0.00  0.00    -0.040 A 
HETATM   37  C   UNK N   1      21.790  12.364   9.592  0.00  0.00     0.012 A 
HETATM   38  C   UNK N   1      21.675  12.264  10.980  0.00  0.00     0.043 A 
HETATM   39  C   UNK N   1      22.814  12.032  11.759  0.00  0.00     0.116 A 
HETATM   40  C   UNK N   1      24.067  11.909  11.156  0.00  0.00     0.043 A 
HETATM   41  F   UNK N   1      22.706  11.926  13.103  0.00  0.00    -0.206 F 
HETATM   42  C   UNK N   1      24.183  12.019   9.773  0.00  0.00     0.012 A 
ENDBRANCH  35  36
ENDBRANCH  10  35
TORSDOF 6
ENDMDL
MODEL 2
REMARK VINA RESULT:      -9.2      5.162      9.820
REMARK  6 active torsions:
REMARK  status: ('A' for Active; 'I' for Inactive)
REMARK    1  A    between atoms: S_2  and  N_5 
REMARK    2  A    between atoms: N_5  and  C_6 
REMARK    3  A    between atoms: C_17  and  C_19 
REMARK    4  A    between atoms: C_20  and  O_39 
REMARK    5  A    between atoms: N_28  and  C_31 
REMARK    6  A    between atoms: C_31  and  C_32 
ROOT
HETATM    1  C   UNK N   1      29.379  17.339   4.949  0.00  0.00     0.106 A 
HETATM    2  C   UNK N   1      30.104  16.682   4.019  0.00  0.00     0.069 A 
HETATM    3  C   UNK N   1      31.375  15.977   4.356  0.00  0.00     0.071 A 
HETATM    4  C   UNK N   1      32.507  16.533   3.494  0.00  0.00    -0.002 C 
HETATM    5  C   UNK N   1      33.676  15.563   3.596  0.00  0.00     0.006 C 
HETATM    6  C   UNK N   1      34.192  15.787   5.014  0.00  0.00     0.007 C 
HETATM    7  C   UNK N   1      33.247  16.843   5.581  0.00  0.00     0.010 C 
HETATM    8  C   UNK N   1      32.986  17.674   4.352  0.00  0.00     0.012 C 
HETATM    9  C   UNK N   1      31.897  16.150   5.799  0.00  0.00     0.102 A 
HETATM   10  N   UNK N   1      31.037  16.884   6.727  0.00  0.00    -0.338 N 
HETATM   11  C   UNK N   1      29.845  17.420   6.355  0.00  0.00     0.260 A 
HETATM   12  O   UNK N   1      29.171  18.018   7.176  0.00  0.00    -0.267 OA
ENDROOT
BRANCH   1  13
HETATM   13  C   UNK N   1      28.093  17.979   4.590  0.00  0.00     0.134 C 
HETATM   14  N   UNK N   1      27.946  19.251   4.742  0.00  0.00    -0.265 N 
HETATM   15  S   UNK N   1      26.444  20.045   4.401  0.00  0.00     0.266 S 
ATOM     16  HN  UNK N   1      28.736  19.806   5.072  1.00  0.00     0.180 HD
HETATM   17  C   UNK N   1      25.222  18.787   4.239  0.00  0.00     0.108 A 
HETATM   18  O   UNK N   1      26.743  20.766   3.082  0.00  0.00    -0.200 OA
HETATM   19  O   UNK N   1      26.320  21.154   5.458  0.00  0.00    -0.200 OA
HETATM   20  C   UNK N   1      25.670  17.476   4.055  0.00  0.00     0.057 A 
HETATM   21  C   UNK N   1      23.866  19.083   4.145  0.00  0.00     0.057 A 
HETATM   22  C   UNK N   1      24.770  16.458   3.781  0.00  0.00     0.033 A 
HETATM   23  N   UNK N   1      27.031  17.141   4.147  0.00  0.00    -0.340 N 
HETATM   24  C   UNK N   1      23.422  16.744   3.680  0.00  0.00     0.032 A 
HETATM   25  C   UNK N   1      22.962  18.047   3.884  0.00  0.00     0.043 A 
HETATM   26  H   UNK N   1      27.276  16.228   3.875  0.00  0.00     0.167 HD
BRANCH  25  27
HETATM   27  N   UNK N   1      21.631  18.348   3.544  0.00  0.00    -0.285 N 
HETATM   28  H   UNK N   1      20.913  17.683   3.654  0.00  0.00     0.178 HD
BRANCH  27  29
HETATM   29  S   UNK N   1      21.298  19.956   2.919  0.00  0.00     0.227 S 
HETATM   30  C   UNK N   1      19.755  18.990   3.015  0.00  0.00     0.186 C 
HETATM   31  O   UNK N   1      20.698  19.748   1.517  0.00  0.00    -0.206 OA
HETATM   32  O   UNK N   1      20.182  20.582   3.762  0.00  0.00    -0.206 OA
ENDBRANCH  27  29
ENDBRANCH  25  27
ENDBRANCH   1  13
BRANCH   2  33
HETATM   33  O   UNK N   1      29.684  16.597   2.737  0.00  0.00    -0.363 OA
HETATM   34  H   UNK N   1      29.129  17.233   2.332  0.00  0.00     0.217 HD
ENDBRANCH   2  33
BRANCH  10  35
HETATM   35  C   UNK N   1      31.455  17.119   8.104  0.00  0.00     0.165 C 
BRANCH  35  36
HETATM   36  C   UNK N   1      32.489  16.178   8.583  0.00  0.00    -0.040 A 
HETATM   37  C   UNK N   1      32.217  14.811   8.683  0.00  0.00     0.012 A 
HETATM   38  C   UNK N   1      33.209  13.944   9.147  0.00  0.00     0.043 A 
HETATM   39  C   UNK N   1      34.465  14.449   9.502  0.00  0.00     0.116 A 
HETATM   40  C   UNK N   1      34.728  15.816   9.403  0.00  0.00     0.043 A 
HETATM   41  F   UNK N   1      35.430  13.612   9.945  0.00  0.00    -0.206 F 
HETATM   42  C   UNK N   1      33.737  16.681   8.950  0.00  0.00     0.012 A 
ENDBRANCH  35  36
ENDBRANCH  10  35
TORSDOF 6
ENDMDL
MODEL 3
REMARK VINA RESULT:      -8.9      4.791      9.667
REMARK  6 active torsions:
REMARK  status: ('A' for Active; 'I' for Inactive)
REMARK    1  A    between atoms: S_2  and  N_5 
REMARK    2  A    between atoms: N_5  and  C_6 
REMARK    3  A    between atoms: C_17  and  C_19 
REMARK    4  A    between atoms: C_20  and  O_39 
REMARK    5  A    between atoms: N_28  and  C_31 
REMARK    6  A    between atoms: C_31  and  C_32 
ROOT
HETATM    1  C   UNK N   1      28.885  16.234   5.547  0.00  0.00     0.106 A 
HETATM    2  C   UNK N   1      29.628  15.654   4.581  0.00  0.00     0.069 A 
HETATM    3  C   UNK N   1      31.110  15.523   4.690  0.00  0.00     0.071 A 
HETATM    4  C   UNK N   1      31.769  16.200   3.490  0.00  0.00    -0.002 C 
HETATM    5  C   UNK N   1      33.218  15.737   3.444  0.00  0.00     0.006 C 
HETATM    6  C   UNK N   1      33.854  16.460   4.628  0.00  0.00     0.007 C 
HETATM    7  C   UNK N   1      32.693  17.240   5.240  0.00  0.00     0.010 C 
HETATM    8  C   UNK N   1      31.919  17.608   4.002  0.00  0.00     0.012 C 
HETATM    9  C   UNK N   1      31.774  16.209   5.905  0.00  0.00     0.102 A 
HETATM   10  N   UNK N   1      30.879  16.813   6.892  0.00  0.00    -0.338 N 
HETATM   11  C   UNK N   1      29.527  16.808   6.755  0.00  0.00     0.260 A 
HETATM   12  O   UNK N   1      28.834  17.325   7.614  0.00  0.00    -0.267 OA
ENDROOT
BRANCH   1  13
HETATM   13  C   UNK N   1      27.410  16.296   5.431  0.00  0.00     0.134 C 
HETATM   14  N   UNK N   1      26.712  15.220   5.561  0.00  0.00    -0.265 N 
HETATM   15  S   UNK N   1      24.989  15.219   5.370  0.00  0.00     0.266 S 
ATOM     16  HN  UNK N   1      27.187  14.344   5.781  1.00  0.00     0.180 HD
HETATM   17  C   UNK N   1      24.553  16.755   4.629  0.00  0.00     0.108 A 
HETATM   18  O   UNK N   1      24.497  15.087   6.816  0.00  0.00    -0.200 OA
HETATM   19  O   UNK N   1      24.655  13.877   4.696  0.00  0.00    -0.200 OA
HETATM   20  C   UNK N   1      25.508  17.775   4.654  0.00  0.00     0.057 A 
HETATM   21  C   UNK N   1      23.266  17.013   4.166  0.00  0.00     0.057 A 
HETATM   22  C   UNK N   1      25.186  19.051   4.217  0.00  0.00     0.033 A 
HETATM   23  N   UNK N   1      26.817  17.549   5.110  0.00  0.00    -0.340 N 
HETATM   24  C   UNK N   1      23.909  19.317   3.761  0.00  0.00     0.032 A 
HETATM   25  C   UNK N   1      22.953  18.298   3.711  0.00  0.00     0.043 A 
HETATM   26  H   UNK N   1      27.385  18.345   5.220  0.00  0.00     0.167 HD
BRANCH  25  27
HETATM   27  N   UNK N   1      21.613  18.650   3.472  0.00  0.00    -0.285 N 
HETATM   28  H   UNK N   1      20.882  18.007   3.620  0.00  0.00     0.178 HD
BRANCH  27  29
HETATM   29  S   UNK N   1      21.293  20.280   2.899  0.00  0.00     0.227 S 
HETATM   30  C   UNK N   1      19.756  19.299   2.887  0.00  0.00     0.186 C 
HETATM   31  O   UNK N   1      20.756  20.126   1.465  0.00  0.00    -0.206 OA
HETATM   32  O   UNK N   1      20.135  20.861   3.718  0.00  0.00    -0.206 OA
ENDBRANCH  27  29
ENDBRANCH  25  27
ENDBRANCH   1  13
BRANCH   2  33
HETATM   33  O   UNK N   1      29.051  15.123   3.480  0.00  0.00    -0.363 OA
HETATM   34  H   UNK N   1      29.521  14.631   2.836  0.00  0.00     0.217 HD
ENDBRANCH   2  33
BRANCH  10  35
HETATM   35  C   UNK N   1      31.413  17.502   8.059  0.00  0.00     0.165 C 
BRANCH  35  36
HETATM   36  C   UNK N   1      32.537  16.796   8.708  0.00  0.00    -0.040 A 
HETATM   37  C   UNK N   1      33.791  17.403   8.821  0.00  0.00     0.012 A 
HETATM   38  C   UNK N   1      34.839  16.711   9.431  0.00  0.00     0.043 A 
HETATM   39  C   UNK N   1      34.626  15.421   9.928  0.00  0.00     0.116 A 
HETATM   40  C   UNK N   1      33.371  14.818   9.809  0.00  0.00     0.043 A 
HETATM   41  F   UNK N   1      35.635  14.749  10.526  0.00  0.00    -0.206 F 
HETATM   42  C   UNK N   1      32.330  15.505   9.192  0.00  0.00     0.012 A 
ENDBRANCH  35  36
ENDBRANCH  10  35
TORSDOF 6
ENDMDL
MODEL 4
REMARK VINA RESULT:      -8.6      5.226      6.899
REMARK  6 active torsions:
REMARK  status: ('A' for Active; 'I' for Inactive)
REMARK    1  A    between atoms: S_2  and  N_5 
REMARK    2  A    between atoms: N_5  and  C_6 
REMARK    3  A    between atoms: C_17  and  C_19 
REMARK    4  A    between atoms: C_20  and  O_39 
REMARK    5  A    between atoms: N_28  and  C_31 
REMARK    6  A    between atoms: C_31  and  C_32 
ROOT
HETATM    1  C   UNK N   1      30.078  17.176   6.086  0.00  0.00     0.106 A 
HETATM    2  C   UNK N   1      29.131  17.934   6.679  0.00  0.00     0.069 A 
HETATM    3  C   UNK N   1      27.784  18.141   6.071  0.00  0.00     0.071 A 
HETATM    4  C   UNK N   1      27.538  19.637   5.884  0.00  0.00    -0.002 C 
HETATM    5  C   UNK N   1      26.051  19.823   5.616  0.00  0.00     0.006 C 
HETATM    6  C   UNK N   1      25.879  19.275   4.202  0.00  0.00     0.007 C 
HETATM    7  C   UNK N   1      27.283  18.811   3.822  0.00  0.00     0.010 C 
HETATM    8  C   UNK N   1      28.120  19.854   4.513  0.00  0.00     0.012 C 
HETATM    9  C   UNK N   1      27.570  17.557   4.657  0.00  0.00     0.102 A 
HETATM   10  N   UNK N   1      28.661  16.755   4.103  0.00  0.00    -0.338 N 
HETATM   11  C   UNK N   1      29.826  16.543   4.768  0.00  0.00     0.260 A 
HETATM   12  O   UNK N   1      30.697  15.862   4.255  0.00  0.00    -0.267 OA
ENDROOT
BRANCH   1  13
HETATM   13  C   UNK N   1      31.383  16.946   6.747  0.00  0.00     0.134 C 
HETATM   14  N   UNK N   1      32.476  17.189   6.107  0.00  0.00    -0.265 N 
HETATM   15  S   UNK N   1      34.032  16.877   6.804  0.00  0.00     0.266 S 
ATOM     16  HN  UNK N   1      32.424  17.575   5.164  1.00  0.00     0.180 HD
HETATM   17  C   UNK N   1      33.765  15.878   8.230  0.00  0.00     0.108 A 
HETATM   18  O   UNK N   1      34.531  18.286   7.141  0.00  0.00    -0.200 OA
HETATM   19  O   UNK N   1      34.911  16.395   5.638  0.00  0.00    -0.200 OA
HETATM   20  C   UNK N   1      32.465  15.815   8.736  0.00  0.00     0.057 A 
HETATM   21  C   UNK N   1      34.817  15.290   8.926  0.00  0.00     0.057 A 
HETATM   22  C   UNK N   1      32.207  15.165   9.934  0.00  0.00     0.033 A 
HETATM   23  N   UNK N   1      31.380  16.394   8.059  0.00  0.00    -0.340 N 
HETATM   24  C   UNK N   1      33.247  14.583  10.634  0.00  0.00     0.032 A 
HETATM   25  C   UNK N   1      34.548  14.622  10.125  0.00  0.00     0.043 A 
HETATM   26  H   UNK N   1      30.524  16.420   8.544  0.00  0.00     0.167 HD
BRANCH  25  27
HETATM   27  N   UNK N   1      35.607  14.235  10.965  0.00  0.00    -0.285 N 
HETATM   28  H   UNK N   1      36.477  14.695  10.936  0.00  0.00     0.178 HD
BRANCH  27  29
HETATM   29  S   UNK N   1      35.319  12.899  12.069  0.00  0.00     0.227 S 
HETATM   30  C   UNK N   1      36.435  14.117  12.839  0.00  0.00     0.186 C 
HETATM   31  O   UNK N   1      36.697  12.274  12.347  0.00  0.00    -0.206 OA
HETATM   32  O   UNK N   1      34.843  13.472  13.409  0.00  0.00    -0.206 OA
ENDBRANCH  27  29
ENDBRANCH  25  27
ENDBRANCH   1  13
BRANCH   2  33
HETATM   33  O   UNK N   1      29.349  18.509   7.883  0.00  0.00    -0.363 OA
HETATM   34  H   UNK N   1      29.746  19.351   7.989  0.00  0.00     0.217 HD
ENDBRANCH   2  33
BRANCH  10  35
HETATM   35  C   UNK N   1      28.560  16.182   2.767  0.00  0.00     0.165 C 
BRANCH  35  36
HETATM   36  C   UNK N   1      27.434  15.239   2.604  0.00  0.00    -0.040 A 
HETATM   37  C   UNK N   1      26.260  15.636   1.958  0.00  0.00     0.012 A 
HETATM   38  C   UNK N   1      25.207  14.728   1.825  0.00  0.00     0.043 A 
HETATM   39  C   UNK N   1      25.337  13.431   2.333  0.00  0.00     0.116 A 
HETATM   40  C   UNK N   1      26.512  13.042   2.980  0.00  0.00     0.043 A 
HETATM   41  F   UNK N   1      24.324  12.546   2.200  0.00  0.00    -0.206 F 
HETATM   42  C   UNK N   1      27.557  13.950   3.121  0.00  0.00     0.012 A 
ENDBRANCH  35  36
ENDBRANCH  10  35
TORSDOF 6
ENDMDL
MODEL 5
REMARK VINA RESULT:      -8.6      9.605     13.972
REMARK  6 active torsions:
REMARK  status: ('A' for Active; 'I' for Inactive)
REMARK    1  A    between atoms: S_2  and  N_5 
REMARK    2  A    between atoms: N_5  and  C_6 
REMARK    3  A    between atoms: C_17  and  C_19 
REMARK    4  A    between atoms: C_20  and  O_39 
REMARK    5  A    between atoms: N_28  and  C_31 
REMARK    6  A    between atoms: C_31  and  C_32 
ROOT
HETATM    1  C   UNK N   1      36.499  12.103  13.202  0.00  0.00     0.106 A 
HETATM    2  C   UNK N   1      36.140  12.625  14.394  0.00  0.00     0.069 A 
HETATM    3  C   UNK N   1      36.373  11.902  15.678  0.00  0.00     0.071 A 
HETATM    4  C   UNK N   1      35.042  11.726  16.409  0.00  0.00    -0.002 C 
HETATM    5  C   UNK N   1      35.360  11.329  17.844  0.00  0.00     0.006 C 
HETATM    6  C   UNK N   1      35.860   9.894  17.706  0.00  0.00     0.007 C 
HETATM    7  C   UNK N   1      35.799   9.632  16.204  0.00  0.00     0.010 C 
HETATM    8  C   UNK N   1      34.570  10.419  15.832  0.00  0.00     0.012 C 
HETATM    9  C   UNK N   1      36.921  10.462  15.569  0.00  0.00     0.102 A 
HETATM   10  N   UNK N   1      37.274   9.991  14.230  0.00  0.00    -0.338 N 
HETATM   11  C   UNK N   1      37.112  10.754  13.118  0.00  0.00     0.260 A 
HETATM   12  O   UNK N   1      37.428  10.307  12.029  0.00  0.00    -0.267 OA
ENDROOT
BRANCH   1  13
HETATM   13  C   UNK N   1      36.305  12.873  11.951  0.00  0.00     0.134 C 
HETATM   14  N   UNK N   1      36.922  13.993  11.787  0.00  0.00    -0.265 N 
HETATM   15  S   UNK N   1      36.684  14.969  10.375  0.00  0.00     0.266 S 
ATOM     16  HN  UNK N   1      37.568  14.314  12.509  1.00  0.00     0.180 HD
HETATM   17  C   UNK N   1      35.260  14.342   9.550  0.00  0.00     0.108 A 
HETATM   18  O   UNK N   1      37.983  14.740   9.593  0.00  0.00    -0.200 OA
HETATM   19  O   UNK N   1      36.751  16.424  10.869  0.00  0.00    -0.200 OA
HETATM   20  C   UNK N   1      34.817  13.068   9.913  0.00  0.00     0.057 A 
HETATM   21  C   UNK N   1      34.677  15.007   8.476  0.00  0.00     0.057 A 
HETATM   22  C   UNK N   1      33.791  12.454   9.211  0.00  0.00     0.033 A 
HETATM   23  N   UNK N   1      35.380  12.370  10.994  0.00  0.00    -0.340 N 
HETATM   24  C   UNK N   1      33.210  13.104   8.139  0.00  0.00     0.032 A 
HETATM   25  C   UNK N   1      33.631  14.388   7.782  0.00  0.00     0.043 A 
HETATM   26  H   UNK N   1      35.104  11.432  11.100  0.00  0.00     0.167 HD
BRANCH  25  27
HETATM   27  N   UNK N   1      33.192  14.920   6.556  0.00  0.00    -0.285 N 
HETATM   28  H   UNK N   1      32.261  14.809   6.256  0.00  0.00     0.178 HD
BRANCH  27  29
HETATM   29  S   UNK N   1      34.368  15.789   5.583  0.00  0.00     0.227 S 
HETATM   30  C   UNK N   1      32.710  16.509   5.352  0.00  0.00     0.186 C 
HETATM   31  O   UNK N   1      33.906  15.634   4.123  0.00  0.00    -0.206 OA
HETATM   32  O   UNK N   1      34.250  17.284   5.902  0.00  0.00    -0.206 OA
ENDBRANCH  27  29
ENDBRANCH  25  27
ENDBRANCH   1  13
BRANCH   2  33
HETATM   33  O   UNK N   1      35.588  13.855  14.481  0.00  0.00    -0.363 OA
HETATM   34  H   UNK N   1      34.888  14.148  13.931  0.00  0.00     0.217 HD
ENDBRANCH   2  33
BRANCH  10  35
HETATM   35  C   UNK N   1      37.778   8.639  14.024  0.00  0.00     0.165 C 
BRANCH  35  36
HETATM   36  C   UNK N   1      38.961   8.310  14.846  0.00  0.00    -0.040 A 
HETATM   37  C   UNK N   1      40.200   8.901  14.581  0.00  0.00     0.012 A 
HETATM   38  C   UNK N   1      41.304   8.566  15.366  0.00  0.00     0.043 A 
HETATM   39  C   UNK N   1      41.162   7.650  16.414  0.00  0.00     0.116 A 
HETATM   40  C   UNK N   1      39.922   7.061  16.672  0.00  0.00     0.043 A 
HETATM   41  F   UNK N   1      42.227   7.328  17.183  0.00  0.00    -0.206 F 
HETATM   42  C   UNK N   1      38.824   7.387  15.882  0.00  0.00     0.012 A 
ENDBRANCH  35  36
ENDBRANCH  10  35
TORSDOF 6
ENDMDL
MODEL 6
REMARK VINA RESULT:      -8.4      6.299     10.669
REMARK  6 active torsions:
REMARK  status: ('A' for Active; 'I' for Inactive)
REMARK    1  A    between atoms: S_2  and  N_5 
REMARK    2  A    between atoms: N_5  and  C_6 
REMARK    3  A    between atoms: C_17  and  C_19 
REMARK    4  A    between atoms: C_20  and  O_39 
REMARK    5  A    between atoms: N_28  and  C_31 
REMARK    6  A    between atoms: C_31  and  C_32 
ROOT
HETATM    1  C   UNK N   1      33.254  14.684   8.448  0.00  0.00     0.106 A 
HETATM    2  C   UNK N   1      33.214  13.457   7.885  0.00  0.00     0.069 A 
HETATM    3  C   UNK N   1      34.200  12.393   8.234  0.00  0.00     0.071 A 
HETATM    4  C   UNK N   1      34.912  11.927   6.965  0.00  0.00    -0.002 C 
HETATM    5  C   UNK N   1      35.621  10.621   7.294  0.00  0.00     0.006 C 
HETATM    6  C   UNK N   1      36.777  11.065   8.185  0.00  0.00     0.007 C 
HETATM    7  C   UNK N   1      36.592  12.576   8.291  0.00  0.00     0.010 C 
HETATM    8  C   UNK N   1      36.067  12.892   6.915  0.00  0.00     0.012 C 
HETATM    9  C   UNK N   1      35.357  12.805   9.171  0.00  0.00     0.102 A 
HETATM   10  N   UNK N   1      35.307  14.159   9.722  0.00  0.00    -0.338 N 
HETATM   11  C   UNK N   1      34.318  15.039   9.419  0.00  0.00     0.260 A 
HETATM   12  O   UNK N   1      34.330  16.153   9.914  0.00  0.00    -0.267 OA
ENDROOT
BRANCH   1  13
HETATM   13  C   UNK N   1      32.225  15.698   8.121  0.00  0.00     0.134 C 
HETATM   14  N   UNK N   1      31.547  16.251   9.068  0.00  0.00    -0.265 N 
HETATM   15  S   UNK N   1      30.287  17.395   8.743  0.00  0.00     0.266 S 
ATOM     16  HN  UNK N   1      31.759  16.009  10.037  1.00  0.00     0.180 HD
HETATM   17  C   UNK N   1      29.928  17.289   7.022  0.00  0.00     0.108 A 
HETATM   18  O   UNK N   1      30.936  18.725   9.142  0.00  0.00    -0.200 OA
HETATM   19  O   UNK N   1      29.209  17.126   9.807  0.00  0.00    -0.200 OA
HETATM   20  C   UNK N   1      30.865  16.647   6.209  0.00  0.00     0.057 A 
HETATM   21  C   UNK N   1      28.837  17.940   6.455  0.00  0.00     0.057 A 
HETATM   22  C   UNK N   1      30.718  16.649   4.830  0.00  0.00     0.033 A 
HETATM   23  N   UNK N   1      31.975  15.978   6.748  0.00  0.00    -0.340 N 
HETATM   24  C   UNK N   1      29.641  17.298   4.257  0.00  0.00     0.032 A 
HETATM   25  C   UNK N   1      28.686  17.924   5.064  0.00  0.00     0.043 A 
HETATM   26  H   UNK N   1      32.654  15.668   6.106  0.00  0.00     0.167 HD
BRANCH  25  27
HETATM   27  N   UNK N   1      27.743  18.768   4.451  0.00  0.00    -0.285 N 
HETATM   28  H   UNK N   1      27.655  18.811   3.471  0.00  0.00     0.178 HD
BRANCH  27  29
HETATM   29  S   UNK N   1      26.726  19.743   5.501  0.00  0.00     0.227 S 
HETATM   30  C   UNK N   1      26.611  20.344   3.785  0.00  0.00     0.186 C 
HETATM   31  O   UNK N   1      27.260  21.181   5.392  0.00  0.00    -0.206 OA
HETATM   32  O   UNK N   1      25.312  19.776   4.910  0.00  0.00    -0.206 OA
ENDBRANCH  27  29
ENDBRANCH  25  27
ENDBRANCH   1  13
BRANCH   2  33
HETATM   33  O   UNK N   1      32.245  13.123   7.005  0.00  0.00    -0.363 OA
HETATM   34  H   UNK N   1      31.682  12.382   7.112  0.00  0.00     0.217 HD
ENDBRANCH   2  33
BRANCH  10  35
HETATM   35  C   UNK N   1      36.367  14.646  10.597  0.00  0.00     0.165 C 
BRANCH  35  36
HETATM   36  C   UNK N   1      36.488  13.895  11.865  0.00  0.00    -0.040 A 
HETATM   37  C   UNK N   1      37.265  12.736  11.935  0.00  0.00     0.012 A 
HETATM   38  C   UNK N   1      37.356  12.041  13.142  0.00  0.00     0.043 A 
HETATM   39  C   UNK N   1      36.675  12.511  14.270  0.00  0.00     0.116 A 
HETATM   40  C   UNK N   1      35.898  13.668  14.192  0.00  0.00     0.043 A 
HETATM   41  F   UNK N   1      36.766  11.845  15.443  0.00  0.00    -0.206 F 
HETATM   42  C   UNK N   1      35.799  14.356  12.986  0.00  0.00     0.012 A 
ENDBRANCH  35  36
ENDBRANCH  10  35
TORSDOF 6
ENDMDL
MODEL 7
REMARK VINA RESULT:      -8.2      1.831      2.414
REMARK  6 active torsions:
REMARK  status: ('A' for Active; 'I' for Inactive)
REMARK    1  A    between atoms: S_2  and  N_5 
REMARK    2  A    between atoms: N_5  and  C_6 
REMARK    3  A    between atoms: C_17  and  C_19 
REMARK    4  A    between atoms: C_20  and  O_39 
REMARK    5  A    between atoms: N_28  and  C_31 
REMARK    6  A    between atoms: C_31  and  C_32 
ROOT
HETATM    1  C   UNK N   1      24.814  15.505   5.833  0.00  0.00     0.106 A 
HETATM    2  C   UNK N   1      23.943  16.285   5.158  0.00  0.00     0.069 A 
HETATM    3  C   UNK N   1      22.515  15.896   4.966  0.00  0.00     0.071 A 
HETATM    4  C   UNK N   1      22.196  15.859   3.472  0.00  0.00    -0.002 C 
HETATM    5  C   UNK N   1      20.681  15.825   3.330  0.00  0.00     0.006 C 
HETATM    6  C   UNK N   1      20.319  14.414   3.786  0.00  0.00     0.007 C 
HETATM    7  C   UNK N   1      21.665  13.801   4.163  0.00  0.00     0.010 C 
HETATM    8  C   UNK N   1      22.562  14.438   3.136  0.00  0.00     0.012 C 
HETATM    9  C   UNK N   1      22.111  14.488   5.459  0.00  0.00     0.102 A 
HETATM   10  N   UNK N   1      23.133  13.723   6.174  0.00  0.00    -0.338 N 
HETATM   11  C   UNK N   1      24.390  14.194   6.383  0.00  0.00     0.260 A 
HETATM   12  O   UNK N   1      25.196  13.510   6.990  0.00  0.00    -0.267 OA
ENDROOT
BRANCH   1  13
HETATM   13  C   UNK N   1      26.210  15.949   6.053  0.00  0.00     0.134 C 
HETATM   14  N   UNK N   1      26.444  17.155   6.443  0.00  0.00    -0.265 N 
HETATM   15  S   UNK N   1      28.058  17.750   6.655  0.00  0.00     0.266 S 
ATOM     16  HN  UNK N   1      25.657  17.777   6.633  1.00  0.00     0.180 HD
HETATM   17  C   UNK N   1      29.138  16.590   5.889  0.00  0.00     0.108 A 
HETATM   18  O   UNK N   1      28.198  17.787   8.181  0.00  0.00    -0.200 OA
HETATM   19  O   UNK N   1      28.010  19.221   6.209  0.00  0.00    -0.200 OA
HETATM   20  C   UNK N   1      28.620  15.326   5.595  0.00  0.00     0.057 A 
HETATM   21  C   UNK N   1      30.494  16.850   5.712  0.00  0.00     0.057 A 
HETATM   22  C   UNK N   1      29.448  14.319   5.122  0.00  0.00     0.033 A 
HETATM   23  N   UNK N   1      27.257  15.031   5.758  0.00  0.00    -0.340 N 
HETATM   24  C   UNK N   1      30.797  14.566   4.950  0.00  0.00     0.032 A 
HETATM   25  C   UNK N   1      31.320  15.834   5.219  0.00  0.00     0.043 A 
HETATM   26  H   UNK N   1      26.998  14.087   5.656  0.00  0.00     0.167 HD
BRANCH  25  27
HETATM   27  N   UNK N   1      32.718  15.985   5.262  0.00  0.00    -0.285 N 
HETATM   28  H   UNK N   1      33.282  15.734   4.495  0.00  0.00     0.178 HD
BRANCH  27  29
HETATM   29  S   UNK N   1      33.418  16.640   6.734  0.00  0.00     0.227 S 
HETATM   30  C   UNK N   1      34.706  15.818   5.741  0.00  0.00     0.186 C 
HETATM   31  O   UNK N   1      34.007  15.438   7.493  0.00  0.00    -0.206 OA
HETATM   32  O   UNK N   1      34.614  17.519   6.352  0.00  0.00    -0.206 OA
ENDBRANCH  27  29
ENDBRANCH  25  27
ENDBRANCH   1  13
BRANCH   2  33
HETATM   33  O   UNK N   1      24.318  17.483   4.659  0.00  0.00    -0.363 OA
HETATM   34  H   UNK N   1      24.598  17.610   3.774  0.00  0.00     0.217 HD
ENDBRANCH   2  33
BRANCH  10  35
HETATM   35  C   UNK N   1      22.853  12.377   6.657  0.00  0.00     0.165 C 
BRANCH  35  36
HETATM   36  C   UNK N   1      22.529  12.313   8.097  0.00  0.00    -0.040 A 
HETATM   37  C   UNK N   1      23.250  11.475   8.953  0.00  0.00     0.012 A 
HETATM   38  C   UNK N   1      22.918  11.427  10.308  0.00  0.00     0.043 A 
HETATM   39  C   UNK N   1      21.875  12.219  10.799  0.00  0.00     0.116 A 
HETATM   40  C   UNK N   1      21.157  13.051   9.938  0.00  0.00     0.043 A 
HETATM   41  F   UNK N   1      21.555  12.181  12.112  0.00  0.00    -0.206 F 
HETATM   42  C   UNK N   1      21.481  13.092   8.585  0.00  0.00     0.012 A 
ENDBRANCH  35  36
ENDBRANCH  10  35
TORSDOF 6
ENDMDL
MODEL 8
REMARK VINA RESULT:      -8.1      9.056     13.409
REMARK  6 active torsions:
REMARK  status: ('A' for Active; 'I' for Inactive)
REMARK    1  A    between atoms: S_2  and  N_5 
REMARK    2  A    between atoms: N_5  and  C_6 
REMARK    3  A    between atoms: C_17  and  C_19 
REMARK    4  A    between atoms: C_20  and  O_39 
REMARK    5  A    between atoms: N_28  and  C_31 
REMARK    6  A    between atoms: C_31  and  C_32 
ROOT
HETATM    1  C   UNK N   1      36.272  12.378  12.643  0.00  0.00     0.106 A 
HETATM    2  C   UNK N   1      36.127  13.226  13.684  0.00  0.00     0.069 A 
HETATM    3  C   UNK N   1      36.293  12.781  15.099  0.00  0.00     0.071 A 
HETATM    4  C   UNK N   1      35.016  13.087  15.879  0.00  0.00    -0.002 C 
HETATM    5  C   UNK N   1      35.346  12.965  17.360  0.00  0.00     0.006 C 
HETATM    6  C   UNK N   1      35.509  11.460  17.558  0.00  0.00     0.007 C 
HETATM    7  C   UNK N   1      35.278  10.885  16.163  0.00  0.00     0.010 C 
HETATM    8  C   UNK N   1      34.226  11.827  15.641  0.00  0.00     0.012 C 
HETATM    9  C   UNK N   1      36.503  11.267  15.324  0.00  0.00     0.102 A 
HETATM   10  N   UNK N   1      36.642  10.435  14.129  0.00  0.00    -0.338 N 
HETATM   11  C   UNK N   1      36.566  10.942  12.871  0.00  0.00     0.260 A 
HETATM   12  O   UNK N   1      36.694  10.197  11.913  0.00  0.00    -0.267 OA
ENDROOT
BRANCH   1  13
HETATM   13  C   UNK N   1      36.157  12.867  11.250  0.00  0.00     0.134 C 
HETATM   14  N   UNK N   1      37.166  12.772  10.453  0.00  0.00    -0.265 N 
HETATM   15  S   UNK N   1      37.112  13.386   8.833  0.00  0.00     0.266 S 
ATOM     16  HN  UNK N   1      38.020  12.324  10.785  1.00  0.00     0.180 HD
HETATM   17  C   UNK N   1      35.685  14.412   8.719  0.00  0.00     0.108 A 
HETATM   18  O   UNK N   1      36.999  12.105   7.998  0.00  0.00    -0.200 OA
HETATM   19  O   UNK N   1      38.521  13.935   8.558  0.00  0.00    -0.200 OA
HETATM   20  C   UNK N   1      34.722  14.286   9.723  0.00  0.00     0.057 A 
HETATM   21  C   UNK N   1      35.438  15.213   7.608  0.00  0.00     0.057 A 
HETATM   22  C   UNK N   1      33.512  14.958   9.625  0.00  0.00     0.033 A 
HETATM   23  N   UNK N   1      34.939  13.491  10.860  0.00  0.00    -0.340 N 
HETATM   24  C   UNK N   1      33.256  15.750   8.522  0.00  0.00     0.032 A 
HETATM   25  C   UNK N   1      34.223  15.900   7.524  0.00  0.00     0.043 A 
HETATM   26  H   UNK N   1      34.165  13.351  11.451  0.00  0.00     0.167 HD
BRANCH  25  27
HETATM   27  N   UNK N   1      33.847  16.513   6.315  0.00  0.00    -0.285 N 
HETATM   28  H   UNK N   1      34.423  17.183   5.881  0.00  0.00     0.178 HD
BRANCH  27  29
HETATM   29  S   UNK N   1      32.311  16.035   5.608  0.00  0.00     0.227 S 
HETATM   30  C   UNK N   1      33.001  17.458   4.702  0.00  0.00     0.186 C 
HETATM   31  O   UNK N   1      31.388  17.260   5.734  0.00  0.00    -0.206 OA
HETATM   32  O   UNK N   1      32.516  15.820   4.105  0.00  0.00    -0.206 OA
ENDBRANCH  27  29
ENDBRANCH  25  27
ENDBRANCH   1  13
BRANCH   2  33
HETATM   33  O   UNK N   1      35.866  14.537  13.487  0.00  0.00    -0.363 OA
HETATM   34  H   UNK N   1      35.008  14.908  13.549  0.00  0.00     0.217 HD
ENDBRANCH   2  33
BRANCH  10  35
HETATM   35  C   UNK N   1      36.821   8.993  14.241  0.00  0.00     0.165 C 
BRANCH  35  36
HETATM   36  C   UNK N   1      38.090   8.596  14.885  0.00  0.00    -0.040 A 
HETATM   37  C   UNK N   1      39.318   8.956  14.322  0.00  0.00     0.012 A 
HETATM   38  C   UNK N   1      40.503   8.561  14.945  0.00  0.00     0.043 A 
HETATM   39  C   UNK N   1      40.453   7.815  16.128  0.00  0.00     0.116 A 
HETATM   40  C   UNK N   1      39.223   7.456  16.683  0.00  0.00     0.043 A 
HETATM   41  F   UNK N   1      41.598   7.436  16.739  0.00  0.00    -0.206 F 
HETATM   42  C   UNK N   1      38.042   7.842  16.056  0.00  0.00     0.012 A 
ENDBRANCH  35  36
ENDBRANCH  10  35
TORSDOF 6
ENDMDL
MODEL 9
REMARK VINA RESULT:      -8.0      6.178     11.617
REMARK  6 active torsions:
REMARK  status: ('A' for Active; 'I' for Inactive)
REMARK    1  A    between atoms: S_2  and  N_5 
REMARK    2  A    between atoms: N_5  and  C_6 
REMARK    3  A    between atoms: C_17  and  C_19 
REMARK    4  A    between atoms: C_20  and  O_39 
REMARK    5  A    between atoms: N_28  and  C_31 
REMARK    6  A    between atoms: C_31  and  C_32 
ROOT
HETATM    1  C   UNK N   1      34.016  15.359   7.813  0.00  0.00     0.106 A 
HETATM    2  C   UNK N   1      34.234  15.959   9.003  0.00  0.00     0.069 A 
HETATM    3  C   UNK N   1      35.364  15.564   9.894  0.00  0.00     0.071 A 
HETATM    4  C   UNK N   1      34.814  15.153  11.258  0.00  0.00    -0.002 C 
HETATM    5  C   UNK N   1      35.985  15.116  12.230  0.00  0.00     0.006 C 
HETATM    6  C   UNK N   1      36.762  13.877  11.793  0.00  0.00     0.007 C 
HETATM    7  C   UNK N   1      35.964  13.352  10.602  0.00  0.00     0.010 C 
HETATM    8  C   UNK N   1      34.561  13.686  11.035  0.00  0.00     0.012 C 
HETATM    9  C   UNK N   1      36.195  14.339   9.452  0.00  0.00     0.102 A 
HETATM   10  N   UNK N   1      35.873  13.761   8.147  0.00  0.00    -0.338 N 
HETATM   11  C   UNK N   1      34.879  14.243   7.356  0.00  0.00     0.260 A 
HETATM   12  O   UNK N   1      34.661  13.720   6.277  0.00  0.00    -0.267 OA
ENDROOT
BRANCH   1  13
HETATM   13  C   UNK N   1      32.918  15.815   6.929  0.00  0.00     0.134 C 
HETATM   14  N   UNK N   1      33.154  16.045   5.682  0.00  0.00    -0.265 N 
HETATM   15  S   UNK N   1      31.927  16.642   4.614  0.00  0.00     0.266 S 
ATOM     16  HN  UNK N   1      34.090  15.870   5.314  1.00  0.00     0.180 HD
HETATM   17  C   UNK N   1      30.591  17.191   5.622  0.00  0.00     0.108 A 
HETATM   18  O   UNK N   1      31.582  15.402   3.781  0.00  0.00    -0.200 OA
HETATM   19  O   UNK N   1      32.653  17.597   3.652  0.00  0.00    -0.200 OA
HETATM   20  C   UNK N   1      30.571  16.761   6.951  0.00  0.00     0.057 A 
HETATM   21  C   UNK N   1      29.513  17.898   5.098  0.00  0.00     0.057 A 
HETATM   22  C   UNK N   1      29.481  17.037   7.763  0.00  0.00     0.033 A 
HETATM   23  N   UNK N   1      31.642  16.049   7.514  0.00  0.00    -0.340 N 
HETATM   24  C   UNK N   1      28.403  17.734   7.249  0.00  0.00     0.032 A 
HETATM   25  C   UNK N   1      28.424  18.187   5.928  0.00  0.00     0.043 A 
HETATM   26  H   UNK N   1      31.494  15.671   8.410  0.00  0.00     0.167 HD
BRANCH  25  27
HETATM   27  N   UNK N   1      27.230  18.679   5.370  0.00  0.00    -0.285 N 
HETATM   28  H   UNK N   1      26.439  18.102   5.267  0.00  0.00     0.178 HD
BRANCH  27  29
HETATM   29  S   UNK N   1      27.204  20.361   4.866  0.00  0.00     0.227 S 
HETATM   30  C   UNK N   1      25.555  19.616   4.645  0.00  0.00     0.186 C 
HETATM   31  O   UNK N   1      26.806  20.351   3.380  0.00  0.00    -0.206 OA
HETATM   32  O   UNK N   1      26.059  21.069   5.600  0.00  0.00    -0.206 OA
ENDBRANCH  27  29
ENDBRANCH  25  27
ENDBRANCH   1  13
BRANCH   2  33
HETATM   33  O   UNK N   1      33.457  16.981   9.424  0.00  0.00    -0.363 OA
HETATM   34  H   UNK N   1      32.521  16.942   9.451  0.00  0.00     0.217 HD
ENDBRANCH   2  33
BRANCH  10  35
HETATM   35  C   UNK N   1      36.587  12.590   7.655  0.00  0.00     0.165 C 
BRANCH  35  36
HETATM   36  C   UNK N   1      38.033  12.815   7.445  0.00  0.00    -0.040 A 
HETATM   37  C   UNK N   1      38.479  13.760   6.518  0.00  0.00     0.012 A 
HETATM   38  C   UNK N   1      39.850  13.947   6.332  0.00  0.00     0.043 A 
HETATM   39  C   UNK N   1      40.764  13.194   7.077  0.00  0.00     0.116 A 
HETATM   40  C   UNK N   1      40.311  12.249   8.000  0.00  0.00     0.043 A 
HETATM   41  F   UNK N   1      42.092  13.377   6.906  0.00  0.00    -0.206 F 
HETATM   42  C   UNK N   1      38.944  12.055   8.178  0.00  0.00     0.012 A 
ENDBRANCH  35  36
ENDBRANCH  10  35
TORSDOF 6
ENDMDL
