REMARK  2 active torsions:
REMARK  status: ('A' for Active; 'I' for Inactive)
REMARK    1  A    between atoms: C_4  and  C_2 
REMARK    2  A    between atoms: C_19  and  O_20 
ROOT
HETATM    1  C   UNK N   1       0.552  -2.171   0.223  0.00  0.00     0.122 A 
HETATM    2  C   UNK N   1       0.905  -0.723   0.092  0.00  0.00     0.192 A 
HETATM    3  O   UNK N   1       0.887  -1.602  -1.018  0.00  0.00    -0.363 OA
HETATM    4  C   UNK N   1       2.366  -0.246   0.256  0.00  0.00     0.193 A 
HETATM    5  C   UNK N   1       3.425  -1.274   0.459  0.00  0.00     0.137 A 
HETATM    6  O   UNK N   1       2.849  -0.597   1.547  0.00  0.00    -0.362 OA
HETATM    7  C   UNK N   1       4.873  -0.860   0.109  0.00  0.00     0.029 C 
HETATM    8  C   UNK N   1       5.269   0.507   0.734  0.00  0.00     0.020 C 
HETATM    9  C   UNK N   1       6.748   0.906   0.516  0.00  0.00     0.046 C 
HETATM   10  C   UNK N   1       7.644  -0.280   0.267  0.00  0.00     0.025 A 
HETATM   11  C   UNK N   1       7.259  -1.542   0.301  0.00  0.00    -0.009 A 
HETATM   12  C   UNK N   1       5.846  -1.941   0.655  0.00  0.00     0.097 C 
HETATM   13  C   UNK N   1       5.523  -3.329   0.090  0.00  0.00     0.079 C 
HETATM   14  C   UNK N   1       4.077  -3.795   0.311  0.00  0.00     0.166 A 
HETATM   15  C   UNK N   1       3.014  -2.748   0.369  0.00  0.00     0.150 A 
HETATM   16  C   UNK N   1       1.602  -3.129   0.816  0.00  0.00     0.196 C 
HETATM   17  O   UNK N   1       3.357  -3.366  -0.836  0.00  0.00    -0.363 OA
HETATM   18  O   UNK N   1       5.747  -1.992   2.051  0.00  0.00    -0.384 OA
HETATM   19  C   UNK N   1       8.401  -2.449  -0.122  0.00  0.00     0.217 A 
HETATM   20  O   UNK N   1       9.433  -1.543  -0.356  0.00  0.00    -0.313 OA
HETATM   21  C   UNK N   1       9.017  -0.285  -0.135  0.00  0.00     0.290 A 
HETATM   22  O   UNK N   1       9.721   0.699  -0.283  0.00  0.00    -0.260 OA
HETATM   23  C   UNK N   1       4.969  -0.757  -1.418  0.00  0.00     0.022 C 
HETATM   24  H   UNK N   1       5.681  -1.951   3.018  0.00  0.00     0.211 HD
ENDROOT
BRANCH  16  25
HETATM   25  O   UNK N   1       1.303  -4.460   0.510  0.00  0.00    -0.389 OA
HETATM   26  H   UNK N   1       0.399  -4.742   0.298  0.00  0.00     0.210 HD
ENDBRANCH  16  25
BRANCH   1  27
HETATM   27  C   UNK N   1      -0.951  -2.475   0.283  0.00  0.00     0.017 C 
HETATM   28  C   UNK N   1      -1.414  -3.267  -0.928  0.00  0.00     0.012 C 
HETATM   29  C   UNK N   1      -1.339  -3.211   1.553  0.00  0.00     0.012 C 
ENDBRANCH   1  27
TORSDOF 2
