REMARK  5 active torsions:
REMARK  status: ('A' for Active; 'I' for Inactive)
REMARK    1  A    between atoms: O_2  and  C_3 
REMARK    2  A    between atoms: C_9  and  C_12 
REMARK    3  A    between atoms: C_12  and  C_13 
REMARK    4  A    between atoms: C_13  and  N_14 
REMARK       I    between atoms: N_14  and  C_15 
REMARK    5  A    between atoms: C_15  and  C_17 
ROOT
HETATM    1  C   UNK N   1       2.500   1.405  -1.550  0.00  0.00     0.060 C 
ENDROOT
BRANCH   1   2
HETATM    2  C   UNK N   1       1.401   2.138  -0.852  0.00  0.00    -0.029 A 
HETATM    3  C   UNK N   1       0.231   1.599  -0.397  0.00  0.00     0.001 A 
HETATM    4  C   UNK N   1      -0.475   2.615   0.176  0.00  0.00     0.043 A 
HETATM    5  C   UNK N   1      -0.251   0.296  -0.447  0.00  0.00     0.051 A 
HETATM    6  C   UNK N   1      -1.726   2.407   0.748  0.00  0.00     0.033 A 
HETATM    7  N   UNK N   1       0.199   3.778   0.099  0.00  0.00    -0.365 N 
HETATM    8  C   UNK N   1      -2.251   1.101   0.710  0.00  0.00     0.039 A 
HETATM    9  C   UNK N   1      -1.516   0.040   0.110  0.00  0.00     0.069 A 
HETATM   10  C   UNK N   1       1.363   3.494  -0.538  0.00  0.00     0.096 A 
HETATM   11  H   UNK N   1      -0.094   4.655   0.436  0.00  0.00     0.165 HD
BRANCH   9  12
HETATM   12  O   UNK N   1      -2.011  -1.218   0.048  0.00  0.00    -0.356 OA
HETATM   13  C   UNK N   1      -3.270  -1.554   0.489  0.00  0.00     0.210 C 
ENDBRANCH   9  12
ENDBRANCH   1   2
BRANCH   1  14
HETATM   14  C   UNK N   1       3.727   1.285  -0.661  0.00  0.00     0.127 C 
BRANCH  14  15
HETATM   15  N   UNK N   1       4.232   2.595  -0.333  0.00  0.00    -0.355 N 
HETATM   16  C   UNK N   1       5.518   2.862   0.006  0.00  0.00     0.275 C 
HETATM   17  O   UNK N   1       5.832   4.021   0.223  0.00  0.00    -0.265 OA
HETATM   18  H   UNK N   1       3.599   3.348  -0.357  0.00  0.00     0.162 HD
BRANCH  16  19
HETATM   19  C   UNK N   1       6.560   1.803   0.097  0.00  0.00     0.146 A 
HETATM   20  C   UNK N   1       7.899   2.175   0.279  0.00  0.00     0.097 A 
HETATM   21  C   UNK N   1       8.874   1.185   0.341  0.00  0.00     0.176 A 
HETATM   22  O   UNK N   1      10.044   1.487   0.479  0.00  0.00    -0.288 OA
HETATM   23  C   UNK N   1       8.501  -0.152   0.238  0.00  0.00     0.079 A 
HETATM   24  C   UNK N   1       7.151  -0.458   0.068  0.00  0.00     0.147 A 
HETATM   25  O   UNK N   1       6.241   0.512  -0.002  0.00  0.00    -0.317 OA
ENDBRANCH  16  19
ENDBRANCH  14  15
ENDBRANCH   1  14
TORSDOF 5
