REMARK  8 active torsions:
REMARK  status: ('A' for Active; 'I' for Inactive)
REMARK    1  A    between atoms: C_3  and  C_24 
REMARK    2  A    between atoms: C_7  and  N_10 
REMARK    3  A    between atoms: C_7  and  O_22 
REMARK       I    between atoms: N_10  and  C_11 
REMARK    4  A    between atoms: C_11  and  C_13 
REMARK    5  A    between atoms: C_13  and  C_14 
REMARK    6  A    between atoms: C_13  and  C_19 
REMARK    7  A    between atoms: C_19  and  O_21 
REMARK    8  A    between atoms: C_24  and  O_26 
ROOT
HETATM    1  C   UNK N   1      -0.609   1.065   1.282  0.00  0.00     0.029 C 
HETATM    2  C   UNK N   1      -1.465   1.585   0.144  0.00  0.00     0.029 C 
HETATM    3  C   UNK N   1      -1.842   3.055   0.469  0.00  0.00     0.183 C 
HETATM    4  N   UNK N   1      -0.843   3.847  -0.186  0.00  0.00    -0.214 NA
HETATM    5  C   UNK N   1      -0.068   3.339  -1.270  0.00  0.00     0.194 A 
HETATM    6  S   UNK N   1      -0.404   1.546  -1.348  0.00  0.00    -0.132 SA
HETATM    7  C   UNK N   1       1.236   3.876  -0.484  0.00  0.00     0.240 A 
HETATM    8  C   UNK N   1       0.179   4.347   0.453  0.00  0.00     0.260 A 
HETATM    9  O   UNK N   1       0.246   4.518   1.664  0.00  0.00    -0.274 OA
HETATM   10  C   UNK N   1      -2.646   0.643  -0.014  0.00  0.00     0.029 C 
ENDROOT
BRANCH   7  11
HETATM   11  N   UNK N   1       2.086   2.875   0.134  0.00  0.00    -0.319 N 
HETATM   12  C   UNK N   1       2.885   2.020  -0.543  0.00  0.00     0.239 C 
HETATM   13  O   UNK N   1       2.881   1.993  -1.766  0.00  0.00    -0.272 OA
HETATM   14  H   UNK N   1       2.080   2.814   1.117  0.00  0.00     0.166 HD
BRANCH  12  15
HETATM   15  C   UNK N   1       3.846   1.171   0.238  0.00  0.00     0.209 C 
BRANCH  15  16
HETATM   16  C   UNK N   1       3.605  -0.312   0.032  0.00  0.00    -0.028 A 
HETATM   17  C   UNK N   1       4.571  -1.231  -0.477  0.00  0.00     0.016 A 
HETATM   18  C   UNK N   1       4.122  -2.551  -0.534  0.00  0.00     0.050 A 
HETATM   19  S   UNK N   1       2.571  -2.521   0.049  0.00  0.00    -0.113 SA
HETATM   20  C   UNK N   1       2.390  -0.909   0.387  0.00  0.00     0.058 A 
ENDBRANCH  15  16
BRANCH  15  21
HETATM   21  C   UNK N   1       5.248   1.697   0.012  0.00  0.00     0.157 C 
HETATM   22  O   UNK N   1       5.501   2.854   0.306  0.00  0.00    -0.649 OA
BRANCH  21  23
HETATM   23  O   UNK N   1       6.222   0.925  -0.504  0.00  0.00    -0.775 OA
HETATM   24  H   UNK N   1       6.096   0.069  -0.862  0.00  0.00     0.167 HD
ENDBRANCH  21  23
ENDBRANCH  15  21
ENDBRANCH  12  15
ENDBRANCH   7  11
BRANCH   7  25
HETATM   25  O   UNK N   1       1.918   4.890  -1.191  0.00  0.00    -0.356 OA
HETATM   26  C   UNK N   1       2.709   5.606  -0.280  0.00  0.00     0.205 C 
ENDBRANCH   7  25
BRANCH   3  27
HETATM   27  C   UNK N   1      -3.202   3.610   0.123  0.00  0.00     0.160 C 
HETATM   28  O   UNK N   1      -4.023   2.952  -0.493  0.00  0.00    -0.649 OA
BRANCH  27  29
HETATM   29  O   UNK N   1      -3.516   4.859   0.515  0.00  0.00    -0.775 OA
HETATM   30  H   UNK N   1      -2.872   5.483   0.789  0.00  0.00     0.167 HD
ENDBRANCH  27  29
ENDBRANCH   3  27
TORSDOF 8
