REMARK  2 active torsions:
REMARK  status: ('A' for Active; 'I' for Inactive)
REMARK    1  A    between atoms: C_10  and  C_7 
REMARK    2  A    between atoms: C_11  and  C_17 
ROOT
HETATM    1  C   UNK N   1       2.170  -2.146  -0.056  0.00  0.00     0.131 A 
HETATM    2  C   UNK N   1       2.637  -1.051  -1.038  0.00  0.00     0.131 A 
HETATM    3  C   UNK N   1       4.062  -0.885  -0.546  0.00  0.00     0.234 A 
HETATM    4  O   UNK N   1       4.864  -0.112  -1.046  0.00  0.00    -0.272 OA
HETATM    5  N   UNK N   1       4.389  -1.687   0.482  0.00  0.00    -0.296 N 
HETATM    6  C   UNK N   1       3.333  -2.431   0.814  0.00  0.00     0.234 A 
HETATM    7  O   UNK N   1       3.344  -3.226   1.739  0.00  0.00    -0.272 OA
HETATM    8  H   UNK N   1       5.270  -1.719   0.922  0.00  0.00     0.171 HD
ENDROOT
BRANCH   2   9
HETATM    9  C   UNK N   1       1.749   0.155  -0.909  0.00  0.00    -0.016 A 
HETATM   10  C   UNK N   1       0.443   0.214  -1.414  0.00  0.00     0.100 A 
HETATM   11  N   UNK N   1      -0.107   1.389  -1.048  0.00  0.00    -0.355 N 
HETATM   12  C   UNK N   1       0.809   2.061  -0.350  0.00  0.00     0.051 A 
HETATM   13  C   UNK N   1      -1.456   1.884  -1.306  0.00  0.00     0.129 C 
HETATM   14  C   UNK N   1       1.967   1.354  -0.245  0.00  0.00    -0.000 A 
HETATM   15  C   UNK N   1       0.616   3.301   0.213  0.00  0.00    -0.030 A 
HETATM   16  C   UNK N   1       3.051   1.873   0.465  0.00  0.00     0.014 A 
HETATM   17  C   UNK N   1       2.906   3.154   1.047  0.00  0.00     0.002 A 
HETATM   18  C   UNK N   1       1.687   3.870   0.923  0.00  0.00     0.009 A 
HETATM   19  C   UNK N   1      -0.716   3.977   0.041  0.00  0.00     0.042 C 
HETATM   20  C   UNK N   1      -1.842   2.957  -0.263  0.00  0.00     0.025 C 
ENDBRANCH   2   9
BRANCH   1  21
HETATM   21  C   UNK N   1       0.763  -2.597   0.190  0.00  0.00    -0.016 A 
HETATM   22  C   UNK N   1       0.257  -3.854   0.009  0.00  0.00    -0.001 A 
HETATM   23  C   UNK N   1      -1.072  -3.793   0.320  0.00  0.00     0.042 A 
HETATM   24  C   UNK N   1       0.863  -5.032  -0.416  0.00  0.00     0.014 A 
HETATM   25  C   UNK N   1      -1.900  -4.906   0.226  0.00  0.00     0.030 A 
HETATM   26  N   UNK N   1      -1.426  -2.553   0.701  0.00  0.00    -0.365 N 
HETATM   27  C   UNK N   1      -1.321  -6.116  -0.199  0.00  0.00     0.002 A 
HETATM   28  C   UNK N   1       0.056  -6.179  -0.516  0.00  0.00     0.001 A 
HETATM   29  C   UNK N   1      -0.296  -1.806   0.630  0.00  0.00     0.097 A 
HETATM   30  H   UNK N   1      -2.321  -2.250   0.976  0.00  0.00     0.165 HD
ENDBRANCH   1  21
TORSDOF 2
