MODEL 1
REMARK VINA RESULT:      -6.7      0.000      0.000
REMARK  5 active torsions:
REMARK  status: ('A' for Active; 'I' for Inactive)
REMARK    1  A    between atoms: C_2  and  C_3 
REMARK    2  A    between atoms: C_2  and  C_19 
REMARK    3  A    between atoms: C_3  and  C_4 
REMARK    4  A    between atoms: C_3  and  N_18 
REMARK    5  A    between atoms: C_8  and  C_14 
REMARK       I    between atoms: C_19  and  N_21 
ROOT
HETATM    1  C   UNK N   1      31.618  16.188   8.519  0.00  0.00     0.105 A 
HETATM    2  N   UNK N   1      31.084  16.287   7.274  0.00  0.00    -0.342 N 
HETATM    3  C   UNK N   1      30.072  17.149   7.425  0.00  0.00     0.061 A 
HETATM    4  C   UNK N   1      29.237  17.660   6.438  0.00  0.00     0.039 A 
HETATM    5  C   UNK N   1      28.299  18.651   6.810  0.00  0.00    -0.048 A 
HETATM    6  C   UNK N   1      28.224  19.062   8.173  0.00  0.00     0.010 A 
HETATM    7  C   UNK N   1      29.077  18.501   9.147  0.00  0.00     0.032 A 
HETATM    8  C   UNK N   1      29.998  17.554   8.720  0.00  0.00     0.060 A 
HETATM    9  N   UNK N   1      30.964  16.951   9.435  0.00  0.00    -0.342 N 
ATOM     10  HN  UNK N   1      31.159  17.045  10.432  1.00  0.00     0.167 HD
HETATM   11  H   UNK N   1      31.373  15.830   6.451  0.00  0.00     0.167 HD
ENDROOT
BRANCH   1  12
HETATM   12  C   UNK N   1      32.890  15.427   8.786  0.00  0.00     0.155 C 
BRANCH  12  13
HETATM   13  C   UNK N   1      34.204  16.071   8.303  0.00  0.00     0.103 C 
HETATM   14  C   UNK N   1      34.220  16.207   6.782  0.00  0.00     0.022 C 
BRANCH  13  15
HETATM   15  C   UNK N   1      34.563  17.354   9.014  0.00  0.00     0.221 C 
HETATM   16  O   UNK N   1      34.921  17.342  10.182  0.00  0.00    -0.273 OA
HETATM   17  N   UNK N   1      34.437  18.532   8.373  0.00  0.00    -0.370 N 
HETATM   18  H   UNK N   1      34.894  19.081   7.696  0.00  0.00     0.159 HD
HETATM   19  H   UNK N   1      33.624  18.993   8.681  0.00  0.00     0.159 HD
ENDBRANCH  13  15
ENDBRANCH  12  13
BRANCH  12  20
HETATM   20  N   UNK N   1      32.973  15.036  10.184  0.00  0.00    -0.419 N 
HETATM   21  H   UNK N   1      33.145  14.168  10.691  0.00  0.00     0.150 HD
HETATM   22  H   UNK N   1      32.821  15.825  10.813  0.00  0.00     0.150 HD
ENDBRANCH  12  20
ENDBRANCH   1  12
BRANCH   5  23
HETATM   23  C   UNK N   1      27.435  19.295   5.741  0.00  0.00    -0.024 C 
HETATM   24  C   UNK N   1      26.717  20.504   6.309  0.00  0.00     0.019 C 
HETATM   25  C   UNK N   1      26.397  18.296   5.256  0.00  0.00     0.019 C 
HETATM   26  C   UNK N   1      28.237  19.745   4.528  0.00  0.00     0.019 C 
ENDBRANCH   5  23
TORSDOF 5
ENDMDL
MODEL 2
REMARK VINA RESULT:      -6.6     12.392     15.164
REMARK  5 active torsions:
REMARK  status: ('A' for Active; 'I' for Inactive)
REMARK    1  A    between atoms: C_2  and  C_3 
REMARK    2  A    between atoms: C_2  and  C_19 
REMARK    3  A    between atoms: C_3  and  C_4 
REMARK    4  A    between atoms: C_3  and  N_18 
REMARK    5  A    between atoms: C_8  and  C_14 
REMARK       I    between atoms: C_19  and  N_21 
ROOT
HETATM    1  C   UNK N   1      27.231  24.585  -4.197  0.00  0.00     0.105 A 
HETATM    2  N   UNK N   1      28.121  24.158  -5.130  0.00  0.00    -0.342 N 
HETATM    3  C   UNK N   1      29.077  23.559  -4.414  0.00  0.00     0.061 A 
HETATM    4  C   UNK N   1      30.194  22.880  -4.888  0.00  0.00     0.039 A 
HETATM    5  C   UNK N   1      31.020  22.221  -3.946  0.00  0.00    -0.048 A 
HETATM    6  C   UNK N   1      30.699  22.305  -2.560  0.00  0.00     0.010 A 
HETATM    7  C   UNK N   1      29.566  23.023  -2.121  0.00  0.00     0.032 A 
HETATM    8  C   UNK N   1      28.775  23.624  -3.091  0.00  0.00     0.060 A 
HETATM    9  N   UNK N   1      27.612  24.279  -2.928  0.00  0.00    -0.342 N 
ATOM     10  HN  UNK N   1      27.129  24.494  -2.056  1.00  0.00     0.167 HD
HETATM   11  H   UNK N   1      28.073  24.266  -6.108  0.00  0.00     0.167 HD
ENDROOT
BRANCH   1  12
HETATM   12  C   UNK N   1      25.905  25.192  -4.573  0.00  0.00     0.155 C 
BRANCH  12  13
HETATM   13  C   UNK N   1      25.866  26.720  -4.768  0.00  0.00     0.103 C 
HETATM   14  C   UNK N   1      24.722  27.124  -5.696  0.00  0.00     0.022 C 
BRANCH  13  15
HETATM   15  C   UNK N   1      25.889  27.510  -3.481  0.00  0.00     0.221 C 
HETATM   16  O   UNK N   1      25.975  26.944  -2.402  0.00  0.00    -0.273 OA
HETATM   17  N   UNK N   1      25.761  28.851  -3.517  0.00  0.00    -0.370 N 
HETATM   18  H   UNK N   1      26.284  29.659  -3.722  0.00  0.00     0.159 HD
HETATM   19  H   UNK N   1      24.847  29.104  -3.253  0.00  0.00     0.159 HD
ENDBRANCH  13  15
ENDBRANCH  12  13
BRANCH  12  20
HETATM   20  N   UNK N   1      25.324  24.496  -5.709  0.00  0.00    -0.419 N 
HETATM   21  H   UNK N   1      24.450  24.555  -6.233  0.00  0.00     0.150 HD
HETATM   22  H   UNK N   1      25.941  23.770  -6.073  0.00  0.00     0.150 HD
ENDBRANCH  12  20
ENDBRANCH   1  12
BRANCH   5  23
HETATM   23  C   UNK N   1      32.195  21.396  -4.438  0.00  0.00    -0.024 C 
HETATM   24  C   UNK N   1      33.129  21.080  -3.286  0.00  0.00     0.019 C 
HETATM   25  C   UNK N   1      32.966  22.182  -5.487  0.00  0.00     0.019 C 
HETATM   26  C   UNK N   1      31.766  20.082  -5.076  0.00  0.00     0.019 C 
ENDBRANCH   5  23
TORSDOF 5
ENDMDL
MODEL 3
REMARK VINA RESULT:      -6.5      6.893     10.704
REMARK  5 active torsions:
REMARK  status: ('A' for Active; 'I' for Inactive)
REMARK    1  A    between atoms: C_2  and  C_3 
REMARK    2  A    between atoms: C_2  and  C_19 
REMARK    3  A    between atoms: C_3  and  C_4 
REMARK    4  A    between atoms: C_3  and  N_18 
REMARK    5  A    between atoms: C_8  and  C_14 
REMARK       I    between atoms: C_19  and  N_21 
ROOT
HETATM    1  C   UNK N   1      35.185  13.419  12.523  0.00  0.00     0.105 A 
HETATM    2  N   UNK N   1      35.688  13.606  13.771  0.00  0.00    -0.342 N 
HETATM    3  C   UNK N   1      35.223  12.562  14.466  0.00  0.00     0.061 A 
HETATM    4  C   UNK N   1      35.502  12.228  15.786  0.00  0.00     0.039 A 
HETATM    5  C   UNK N   1      34.987  11.009  16.286  0.00  0.00    -0.048 A 
HETATM    6  C   UNK N   1      34.183  10.193  15.437  0.00  0.00     0.010 A 
HETATM    7  C   UNK N   1      33.907  10.581  14.109  0.00  0.00     0.032 A 
HETATM    8  C   UNK N   1      34.463  11.772  13.662  0.00  0.00     0.060 A 
HETATM    9  N   UNK N   1      34.418  12.300  12.427  0.00  0.00    -0.342 N 
ATOM     10  HN  UNK N   1      33.923  11.944  11.609  1.00  0.00     0.167 HD
HETATM   11  H   UNK N   1      36.260  14.340  14.091  0.00  0.00     0.167 HD
ENDROOT
BRANCH   1  12
HETATM   12  C   UNK N   1      35.581  14.291  11.361  0.00  0.00     0.155 C 
BRANCH  12  13
HETATM   13  C   UNK N   1      34.611  15.425  10.976  0.00  0.00     0.103 C 
HETATM   14  C   UNK N   1      35.372  16.649  10.472  0.00  0.00     0.022 C 
BRANCH  13  15
HETATM   15  C   UNK N   1      33.498  14.999  10.047  0.00  0.00     0.221 C 
HETATM   16  O   UNK N   1      33.744  14.596   8.920  0.00  0.00    -0.273 OA
HETATM   17  N   UNK N   1      32.216  15.113  10.444  0.00  0.00    -0.370 N 
HETATM   18  H   UNK N   1      31.557  14.665  11.022  0.00  0.00     0.159 HD
HETATM   19  H   UNK N   1      31.805  15.898  10.018  0.00  0.00     0.159 HD
ENDBRANCH  13  15
ENDBRANCH  12  13
BRANCH  12  20
HETATM   20  N   UNK N   1      36.937  14.787  11.528  0.00  0.00    -0.419 N 
HETATM   21  H   UNK N   1      37.761  14.501  12.058  0.00  0.00     0.150 HD
HETATM   22  H   UNK N   1      37.108  15.630  10.979  0.00  0.00     0.150 HD
ENDBRANCH  12  20
ENDBRANCH   1  12
BRANCH   5  23
HETATM   23  C   UNK N   1      35.349  10.572  17.694  0.00  0.00    -0.024 C 
HETATM   24  C   UNK N   1      36.705   9.893  17.696  0.00  0.00     0.019 C 
HETATM   25  C   UNK N   1      34.310   9.585  18.203  0.00  0.00     0.019 C 
HETATM   26  C   UNK N   1      35.396  11.733  18.677  0.00  0.00     0.019 C 
ENDBRANCH   5  23
TORSDOF 5
ENDMDL
MODEL 4
REMARK VINA RESULT:      -6.4      5.873      9.771
REMARK  5 active torsions:
REMARK  status: ('A' for Active; 'I' for Inactive)
REMARK    1  A    between atoms: C_2  and  C_3 
REMARK    2  A    between atoms: C_2  and  C_19 
REMARK    3  A    between atoms: C_3  and  C_4 
REMARK    4  A    between atoms: C_3  and  N_18 
REMARK    5  A    between atoms: C_8  and  C_14 
REMARK       I    between atoms: C_19  and  N_21 
ROOT
HETATM    1  C   UNK N   1      34.832  13.976  11.316  0.00  0.00     0.105 A 
HETATM    2  N   UNK N   1      34.498  12.778  11.862  0.00  0.00    -0.342 N 
HETATM    3  C   UNK N   1      35.124  12.777  13.044  0.00  0.00     0.061 A 
HETATM    4  C   UNK N   1      35.055  11.809  14.040  0.00  0.00     0.039 A 
HETATM    5  C   UNK N   1      35.715  12.069  15.264  0.00  0.00    -0.048 A 
HETATM    6  C   UNK N   1      36.444  13.284  15.418  0.00  0.00     0.010 A 
HETATM    7  C   UNK N   1      36.504  14.230  14.373  0.00  0.00     0.032 A 
HETATM    8  C   UNK N   1      35.813  13.936  13.205  0.00  0.00     0.060 A 
HETATM    9  N   UNK N   1      35.650  14.710  12.118  0.00  0.00    -0.342 N 
ATOM     10  HN  UNK N   1      36.047  15.632  11.938  1.00  0.00     0.167 HD
HETATM   11  H   UNK N   1      33.929  12.073  11.476  0.00  0.00     0.167 HD
ENDROOT
BRANCH   1  12
HETATM   12  C   UNK N   1      34.220  14.470  10.033  0.00  0.00     0.155 C 
BRANCH  12  13
HETATM   13  C   UNK N   1      35.042  15.482   9.210  0.00  0.00     0.103 C 
HETATM   14  C   UNK N   1      34.855  15.250   7.712  0.00  0.00     0.022 C 
BRANCH  13  15
HETATM   15  C   UNK N   1      34.835  16.923   9.615  0.00  0.00     0.221 C 
HETATM   16  O   UNK N   1      35.625  17.482  10.360  0.00  0.00    -0.273 OA
HETATM   17  N   UNK N   1      33.739  17.585   9.194  0.00  0.00    -0.370 N 
HETATM   18  H   UNK N   1      33.381  18.027   8.392  0.00  0.00     0.159 HD
HETATM   19  H   UNK N   1      33.086  17.645   9.928  0.00  0.00     0.159 HD
ENDBRANCH  13  15
ENDBRANCH  12  13
BRANCH  12  20
HETATM   20  N   UNK N   1      33.775  13.356   9.211  0.00  0.00    -0.419 N 
HETATM   21  H   UNK N   1      32.874  12.958   8.946  0.00  0.00     0.150 HD
HETATM   22  H   UNK N   1      34.557  12.847   8.799  0.00  0.00     0.150 HD
ENDBRANCH  12  20
ENDBRANCH   1  12
BRANCH   5  23
HETATM   23  C   UNK N   1      35.585  11.074  16.403  0.00  0.00    -0.024 C 
HETATM   24  C   UNK N   1      36.841  10.229  16.503  0.00  0.00     0.019 C 
HETATM   25  C   UNK N   1      34.401  10.155  16.144  0.00  0.00     0.019 C 
HETATM   26  C   UNK N   1      35.356  11.746  17.749  0.00  0.00     0.019 C 
ENDBRANCH   5  23
TORSDOF 5
ENDMDL
MODEL 5
REMARK VINA RESULT:      -6.4      3.304      4.919
REMARK  5 active torsions:
REMARK  status: ('A' for Active; 'I' for Inactive)
REMARK    1  A    between atoms: C_2  and  C_3 
REMARK    2  A    between atoms: C_2  and  C_19 
REMARK    3  A    between atoms: C_3  and  C_4 
REMARK    4  A    between atoms: C_3  and  N_18 
REMARK    5  A    between atoms: C_8  and  C_14 
REMARK       I    between atoms: C_19  and  N_21 
ROOT
HETATM    1  C   UNK N   1      35.008  15.819  10.643  0.00  0.00     0.105 A 
HETATM    2  N   UNK N   1      33.886  15.216  10.171  0.00  0.00    -0.342 N 
HETATM    3  C   UNK N   1      33.435  16.060   9.237  0.00  0.00     0.061 A 
HETATM    4  C   UNK N   1      32.347  15.886   8.390  0.00  0.00     0.039 A 
HETATM    5  C   UNK N   1      32.117  16.864   7.395  0.00  0.00    -0.048 A 
HETATM    6  C   UNK N   1      32.980  17.996   7.319  0.00  0.00     0.010 A 
HETATM    7  C   UNK N   1      34.062  18.143   8.213  0.00  0.00     0.032 A 
HETATM    8  C   UNK N   1      34.257  17.138   9.150  0.00  0.00     0.060 A 
HETATM    9  N   UNK N   1      35.258  17.011  10.038  0.00  0.00    -0.342 N 
ATOM     10  HN  UNK N   1      36.027  17.659  10.216  1.00  0.00     0.167 HD
HETATM   11  H   UNK N   1      33.495  14.357  10.453  0.00  0.00     0.167 HD
ENDROOT
BRANCH   1  12
HETATM   12  C   UNK N   1      35.933  15.140  11.618  0.00  0.00     0.155 C 
BRANCH  12  13
HETATM   13  C   UNK N   1      35.368  13.932  12.391  0.00  0.00     0.103 C 
HETATM   14  C   UNK N   1      35.718  12.621  11.689  0.00  0.00     0.022 C 
BRANCH  13  15
HETATM   15  C   UNK N   1      35.709  13.923  13.862  0.00  0.00     0.221 C 
HETATM   16  O   UNK N   1      34.967  13.389  14.673  0.00  0.00    -0.273 OA
HETATM   17  N   UNK N   1      36.817  14.555  14.296  0.00  0.00    -0.370 N 
HETATM   18  H   UNK N   1      37.793  14.438  14.332  0.00  0.00     0.159 HD
HETATM   19  H   UNK N   1      36.569  15.412  14.711  0.00  0.00     0.159 HD
ENDBRANCH  13  15
ENDBRANCH  12  13
BRANCH  12  20
HETATM   20  N   UNK N   1      37.203  14.820  10.988  0.00  0.00    -0.419 N 
HETATM   21  H   UNK N   1      37.846  14.029  11.001  0.00  0.00     0.150 HD
HETATM   22  H   UNK N   1      37.532  15.572  10.382  0.00  0.00     0.150 HD
ENDBRANCH  12  20
ENDBRANCH   1  12
BRANCH   5  23
HETATM   23  C   UNK N   1      30.992  16.658   6.397  0.00  0.00    -0.024 C 
HETATM   24  C   UNK N   1      29.689  17.191   6.963  0.00  0.00     0.019 C 
HETATM   25  C   UNK N   1      30.827  15.173   6.114  0.00  0.00     0.019 C 
HETATM   26  C   UNK N   1      31.250  17.351   5.066  0.00  0.00     0.019 C 
ENDBRANCH   5  23
TORSDOF 5
ENDMDL
MODEL 6
REMARK VINA RESULT:      -6.3      7.347     10.875
REMARK  5 active torsions:
REMARK  status: ('A' for Active; 'I' for Inactive)
REMARK    1  A    between atoms: C_2  and  C_3 
REMARK    2  A    between atoms: C_2  and  C_19 
REMARK    3  A    between atoms: C_3  and  C_4 
REMARK    4  A    between atoms: C_3  and  N_18 
REMARK    5  A    between atoms: C_8  and  C_14 
REMARK       I    between atoms: C_19  and  N_21 
ROOT
HETATM    1  C   UNK N   1      35.338  13.752  12.881  0.00  0.00     0.105 A 
HETATM    2  N   UNK N   1      35.809  13.818  14.153  0.00  0.00    -0.342 N 
HETATM    3  C   UNK N   1      35.319  12.719  14.736  0.00  0.00     0.061 A 
HETATM    4  C   UNK N   1      35.561  12.261  16.026  0.00  0.00     0.039 A 
HETATM    5  C   UNK N   1      35.024  11.006  16.397  0.00  0.00    -0.048 A 
HETATM    6  C   UNK N   1      34.237  10.281  15.457  0.00  0.00     0.010 A 
HETATM    7  C   UNK N   1      33.999  10.792  14.163  0.00  0.00     0.032 A 
HETATM    8  C   UNK N   1      34.575  12.014  13.843  0.00  0.00     0.060 A 
HETATM    9  N   UNK N   1      34.565  12.655  12.662  0.00  0.00    -0.342 N 
ATOM     10  HN  UNK N   1      34.090  12.380  11.802  1.00  0.00     0.167 HD
HETATM   11  H   UNK N   1      36.379  14.514  14.554  0.00  0.00     0.167 HD
ENDROOT
BRANCH   1  12
HETATM   12  C   UNK N   1      35.771  14.724  11.815  0.00  0.00     0.155 C 
BRANCH  12  13
HETATM   13  C   UNK N   1      36.639  14.165  10.670  0.00  0.00     0.103 C 
HETATM   14  C   UNK N   1      37.597  13.092  11.184  0.00  0.00     0.022 C 
BRANCH  13  15
HETATM   15  C   UNK N   1      35.855  13.723   9.457  0.00  0.00     0.221 C 
HETATM   16  O   UNK N   1      34.870  13.009   9.575  0.00  0.00    -0.273 OA
HETATM   17  N   UNK N   1      36.273  14.076   8.226  0.00  0.00    -0.370 N 
HETATM   18  H   UNK N   1      36.281  14.850   7.619  0.00  0.00     0.159 HD
HETATM   19  H   UNK N   1      36.713  13.309   7.793  0.00  0.00     0.159 HD
ENDBRANCH  13  15
ENDBRANCH  12  13
BRANCH  12  20
HETATM   20  N   UNK N   1      34.632  15.469  11.303  0.00  0.00    -0.419 N 
HETATM   21  H   UNK N   1      33.699  15.701  11.642  0.00  0.00     0.150 HD
HETATM   22  H   UNK N   1      34.811  15.853  10.375  0.00  0.00     0.150 HD
ENDBRANCH  12  20
ENDBRANCH   1  12
BRANCH   5  23
HETATM   23  C   UNK N   1      35.345  10.437  17.767  0.00  0.00    -0.024 C 
HETATM   24  C   UNK N   1      35.403  11.552  18.794  0.00  0.00     0.019 C 
HETATM   25  C   UNK N   1      36.698   9.744  17.727  0.00  0.00     0.019 C 
HETATM   26  C   UNK N   1      34.321   9.413  18.235  0.00  0.00     0.019 C 
ENDBRANCH   5  23
TORSDOF 5
ENDMDL
MODEL 7
REMARK VINA RESULT:      -6.3      3.941      8.200
REMARK  5 active torsions:
REMARK  status: ('A' for Active; 'I' for Inactive)
REMARK    1  A    between atoms: C_2  and  C_3 
REMARK    2  A    between atoms: C_2  and  C_19 
REMARK    3  A    between atoms: C_3  and  C_4 
REMARK    4  A    between atoms: C_3  and  N_18 
REMARK    5  A    between atoms: C_8  and  C_14 
REMARK       I    between atoms: C_19  and  N_21 
ROOT
HETATM    1  C   UNK N   1      34.521  16.548   9.222  0.00  0.00     0.105 A 
HETATM    2  N   UNK N   1      34.910  16.792  10.500  0.00  0.00    -0.342 N 
HETATM    3  C   UNK N   1      34.984  15.576  11.052  0.00  0.00     0.061 A 
HETATM    4  C   UNK N   1      35.412  15.250  12.333  0.00  0.00     0.039 A 
HETATM    5  C   UNK N   1      35.516  13.880  12.670  0.00  0.00    -0.048 A 
HETATM    6  C   UNK N   1      35.152  12.896  11.705  0.00  0.00     0.010 A 
HETATM    7  C   UNK N   1      34.703  13.272  10.421  0.00  0.00     0.032 A 
HETATM    8  C   UNK N   1      34.649  14.630  10.136  0.00  0.00     0.060 A 
HETATM    9  N   UNK N   1      34.343  15.224   8.969  0.00  0.00    -0.342 N 
ATOM     10  HN  UNK N   1      34.047  14.783   8.098  1.00  0.00     0.167 HD
HETATM   11  H   UNK N   1      35.094  17.662  10.923  0.00  0.00     0.167 HD
ENDROOT
BRANCH   1  12
HETATM   12  C   UNK N   1      34.455  17.637   8.183  0.00  0.00     0.155 C 
BRANCH  12  13
HETATM   13  C   UNK N   1      33.099  17.850   7.480  0.00  0.00     0.103 C 
HETATM   14  C   UNK N   1      33.131  17.305   6.054  0.00  0.00     0.022 C 
BRANCH  13  15
HETATM   15  C   UNK N   1      31.908  17.365   8.272  0.00  0.00     0.221 C 
HETATM   16  O   UNK N   1      31.536  16.204   8.192  0.00  0.00    -0.273 OA
HETATM   17  N   UNK N   1      31.214  18.232   9.035  0.00  0.00    -0.370 N 
HETATM   18  H   UNK N   1      31.272  18.699   9.899  0.00  0.00     0.159 HD
HETATM   19  H   UNK N   1      30.376  18.477   8.580  0.00  0.00     0.159 HD
ENDBRANCH  13  15
ENDBRANCH  12  13
BRANCH  12  20
HETATM   20  N   UNK N   1      34.982  18.885   8.710  0.00  0.00    -0.419 N 
HETATM   21  H   UNK N   1      34.622  19.642   9.291  0.00  0.00     0.150 HD
HETATM   22  H   UNK N   1      35.950  19.042   8.430  0.00  0.00     0.150 HD
ENDBRANCH  12  20
ENDBRANCH   1  12
BRANCH   5  23
HETATM   23  C   UNK N   1      36.065  13.489  14.030  0.00  0.00    -0.024 C 
HETATM   24  C   UNK N   1      34.939  13.019  14.932  0.00  0.00     0.019 C 
HETATM   25  C   UNK N   1      36.733  14.693  14.675  0.00  0.00     0.019 C 
HETATM   26  C   UNK N   1      37.103  12.379  13.949  0.00  0.00     0.019 C 
ENDBRANCH   5  23
TORSDOF 5
ENDMDL
MODEL 8
REMARK VINA RESULT:      -6.1      8.231     11.853
REMARK  5 active torsions:
REMARK  status: ('A' for Active; 'I' for Inactive)
REMARK    1  A    between atoms: C_2  and  C_3 
REMARK    2  A    between atoms: C_2  and  C_19 
REMARK    3  A    between atoms: C_3  and  C_4 
REMARK    4  A    between atoms: C_3  and  N_18 
REMARK    5  A    between atoms: C_8  and  C_14 
REMARK       I    between atoms: C_19  and  N_21 
ROOT
HETATM    1  C   UNK N   1      36.490  12.495  13.649  0.00  0.00     0.105 A 
HETATM    2  N   UNK N   1      36.729  11.353  14.344  0.00  0.00    -0.342 N 
HETATM    3  C   UNK N   1      36.301  11.632  15.580  0.00  0.00     0.061 A 
HETATM    4  C   UNK N   1      36.247  10.776  16.673  0.00  0.00     0.039 A 
HETATM    5  C   UNK N   1      35.648  11.255  17.862  0.00  0.00    -0.048 A 
HETATM    6  C   UNK N   1      35.158  12.593  17.905  0.00  0.00     0.010 A 
HETATM    7  C   UNK N   1      35.251  13.435  16.777  0.00  0.00     0.032 A 
HETATM    8  C   UNK N   1      35.821  12.903  15.628  0.00  0.00     0.060 A 
HETATM    9  N   UNK N   1      35.939  13.473  14.416  0.00  0.00    -0.342 N 
ATOM     10  HN  UNK N   1      35.675  14.419  14.139  1.00  0.00     0.167 HD
HETATM   11  H   UNK N   1      37.126  10.514  14.015  0.00  0.00     0.167 HD
ENDROOT
BRANCH   1  12
HETATM   12  C   UNK N   1      36.685  12.581  12.158  0.00  0.00     0.155 C 
BRANCH  12  13
HETATM   13  C   UNK N   1      35.440  12.355  11.277  0.00  0.00     0.103 C 
HETATM   14  C   UNK N   1      34.648  11.139  11.750  0.00  0.00     0.022 C 
BRANCH  13  15
HETATM   15  C   UNK N   1      34.581  13.584  11.092  0.00  0.00     0.221 C 
HETATM   16  O   UNK N   1      34.521  14.441  11.961  0.00  0.00    -0.273 OA
HETATM   17  N   UNK N   1      33.830  13.714   9.981  0.00  0.00    -0.370 N 
HETATM   18  H   UNK N   1      33.916  13.946   9.029  0.00  0.00     0.159 HD
HETATM   19  H   UNK N   1      32.890  13.510  10.190  0.00  0.00     0.159 HD
ENDBRANCH  13  15
ENDBRANCH  12  13
BRANCH  12  20
HETATM   20  N   UNK N   1      37.374  13.809  11.797  0.00  0.00    -0.419 N 
HETATM   21  H   UNK N   1      37.901  14.141  10.989  0.00  0.00     0.150 HD
HETATM   22  H   UNK N   1      37.318  14.512  12.534  0.00  0.00     0.150 HD
ENDBRANCH  12  20
ENDBRANCH   1  12
BRANCH   5  23
HETATM   23  C   UNK N   1      35.492  10.317  19.045  0.00  0.00    -0.024 C 
HETATM   24  C   UNK N   1      34.466   9.245  18.728  0.00  0.00     0.019 C 
HETATM   25  C   UNK N   1      35.017  11.100  20.258  0.00  0.00     0.019 C 
HETATM   26  C   UNK N   1      36.795   9.628  19.427  0.00  0.00     0.019 C 
ENDBRANCH   5  23
TORSDOF 5
ENDMDL
MODEL 9
REMARK VINA RESULT:      -6.1      4.436      8.695
REMARK  5 active torsions:
REMARK  status: ('A' for Active; 'I' for Inactive)
REMARK    1  A    between atoms: C_2  and  C_3 
REMARK    2  A    between atoms: C_2  and  C_19 
REMARK    3  A    between atoms: C_3  and  C_4 
REMARK    4  A    between atoms: C_3  and  N_18 
REMARK    5  A    between atoms: C_8  and  C_14 
REMARK       I    between atoms: C_19  and  N_21 
ROOT
HETATM    1  C   UNK N   1      34.063  15.372   9.650  0.00  0.00     0.105 A 
HETATM    2  N   UNK N   1      33.708  15.025  10.914  0.00  0.00    -0.342 N 
HETATM    3  C   UNK N   1      34.758  14.330  11.365  0.00  0.00     0.061 A 
HETATM    4  C   UNK N   1      34.946  13.805  12.639  0.00  0.00     0.039 A 
HETATM    5  C   UNK N   1      36.191  13.200  12.930  0.00  0.00    -0.048 A 
HETATM    6  C   UNK N   1      37.183  13.122  11.910  0.00  0.00     0.010 A 
HETATM    7  C   UNK N   1      36.943  13.650  10.624  0.00  0.00     0.032 A 
HETATM    8  C   UNK N   1      35.715  14.259  10.403  0.00  0.00     0.060 A 
HETATM    9  N   UNK N   1      35.293  14.906   9.302  0.00  0.00    -0.342 N 
ATOM     10  HN  UNK N   1      35.782  15.020   8.414  1.00  0.00     0.167 HD
HETATM   11  H   UNK N   1      32.871  15.235  11.389  0.00  0.00     0.167 HD
ENDROOT
BRANCH   1  12
HETATM   12  C   UNK N   1      33.228  16.301   8.810  0.00  0.00     0.155 C 
BRANCH  12  13
HETATM   13  C   UNK N   1      33.303  16.119   7.281  0.00  0.00     0.103 C 
HETATM   14  C   UNK N   1      31.984  15.586   6.727  0.00  0.00     0.022 C 
BRANCH  13  15
HETATM   15  C   UNK N   1      33.808  17.333   6.537  0.00  0.00     0.221 C 
HETATM   16  O   UNK N   1      34.558  18.131   7.079  0.00  0.00    -0.273 OA
HETATM   17  N   UNK N   1      33.388  17.569   5.279  0.00  0.00    -0.370 N 
HETATM   18  H   UNK N   1      33.539  17.260   4.357  0.00  0.00     0.159 HD
HETATM   19  H   UNK N   1      32.710  18.282   5.284  0.00  0.00     0.159 HD
ENDBRANCH  13  15
ENDBRANCH  12  13
BRANCH  12  20
HETATM   20  N   UNK N   1      31.850  16.318   9.275  0.00  0.00    -0.419 N 
HETATM   21  H   UNK N   1      31.286  15.754   9.910  0.00  0.00     0.150 HD
HETATM   22  H   UNK N   1      31.316  17.084   8.864  0.00  0.00     0.150 HD
ENDBRANCH  12  20
ENDBRANCH   1  12
BRANCH   5  23
HETATM   23  C   UNK N   1      36.461  12.697  14.337  0.00  0.00    -0.024 C 
HETATM   24  C   UNK N   1      36.898  13.846  15.225  0.00  0.00     0.019 C 
HETATM   25  C   UNK N   1      37.571  11.659  14.304  0.00  0.00     0.019 C 
HETATM   26  C   UNK N   1      35.242  12.043  14.973  0.00  0.00     0.019 C 
ENDBRANCH   5  23
TORSDOF 5
ENDMDL
