MODEL 1
REMARK VINA RESULT:      -5.6      0.000      0.000
REMARK  13 active torsions:
REMARK  status: ('A' for Active; 'I' for Inactive)
REMARK    1  A    between atoms: C_2  and  C_3 
REMARK    2  A    between atoms: C_3  and  C_4 
REMARK    3  A    between atoms: C_3  and  N_18 
REMARK    4  A    between atoms: C_4  and  O_6 
REMARK    5  A    between atoms: O_6  and  C_7 
REMARK    6  A    between atoms: C_8  and  O_16 
REMARK    7  A    between atoms: C_12  and  O_13 
REMARK    8  A    between atoms: N_18  and  C_19 
REMARK    9  A    between atoms: N_18  and  C_23 
REMARK   10  A    between atoms: C_19  and  C_20 
REMARK   11  A    between atoms: C_20  and  O_21 
REMARK   12  A    between atoms: C_23  and  C_24 
REMARK   13  A    between atoms: C_24  and  O_25 
ROOT
HETATM    1  C   UNK N   1      21.213  17.815   5.974  0.00  0.00     0.298 C 
HETATM    2  O   UNK N   1      21.332  18.619   6.887  0.00  0.00    -0.262 OA
ENDROOT
BRANCH   1   3
HETATM    3  C   UNK N   1      21.603  18.193   4.557  0.00  0.00     0.321 C 
BRANCH   3   4
HETATM    4  C   UNK N   1      23.018  17.758   4.185  0.00  0.00     0.042 C 
HETATM    5  C   UNK N   1      24.000  18.899   4.350  0.00  0.00     0.007 C 
ENDBRANCH   3   4
BRANCH   3   6
HETATM    6  N   UNK N   1      20.628  17.821   3.521  0.00  0.00     0.106 N 
BRANCH   6   7
HETATM    7  C   UNK N   1      20.138  18.982   2.767  0.00  0.00     0.299 C 
BRANCH   7   8
HETATM    8  C   UNK N   1      20.765  20.258   3.307  0.00  0.00     0.197 C 
BRANCH   8   9
HETATM    9  O   UNK N   1      21.542  20.869   2.321  0.00  0.00    -0.394 OA
HETATM   10  C   UNK N   1      20.885  20.583   1.123  0.00  0.00     0.201 C 
ENDBRANCH   8   9
ENDBRANCH   7   8
ENDBRANCH   6   7
BRANCH   6  11
HETATM   11  C   UNK N   1      21.161  16.701   2.720  0.00  0.00     0.299 C 
BRANCH  11  12
HETATM   12  C   UNK N   1      20.211  16.156   1.655  0.00  0.00     0.197 C 
BRANCH  12  13
HETATM   13  O   UNK N   1      20.944  15.701   0.560  0.00  0.00    -0.394 OA
HETATM   14  C   UNK N   1      21.510  14.498   0.979  0.00  0.00     0.201 C 
ENDBRANCH  12  13
ENDBRANCH  11  12
ENDBRANCH   6  11
ENDBRANCH   3   6
ENDBRANCH   1   3
BRANCH   1  15
HETATM   15  O   UNK N   1      20.714  16.573   6.203  0.00  0.00    -0.271 OA
BRANCH  15  16
HETATM   16  C   UNK N   1      21.002  15.715   7.226  0.00  0.00     0.145 A 
HETATM   17  C   UNK N   1      20.064  15.572   8.289  0.00  0.00     0.105 A 
HETATM   18  C   UNK N   1      20.322  14.664   9.320  0.00  0.00     0.046 A 
HETATM   19  C   UNK N   1      21.480  13.897   9.329  0.00  0.00    -0.057 A 
HETATM   20  C   UNK N   1      22.402  14.021   8.300  0.00  0.00     0.046 A 
HETATM   21  C   UNK N   1      21.725  12.934  10.433  0.00  0.00     0.048 C 
HETATM   22  C   UNK N   1      22.184  14.916   7.239  0.00  0.00     0.105 A 
BRANCH  17  23
HETATM   23  O   UNK N   1      18.906  16.280   8.371  0.00  0.00    -0.353 OA
HETATM   24  C   UNK N   1      18.733  17.470   9.037  0.00  0.00     0.210 C 
ENDBRANCH  17  23
BRANCH  22  25
HETATM   25  O   UNK N   1      23.081  14.983   6.224  0.00  0.00    -0.353 OA
HETATM   26  C   UNK N   1      23.046  14.148   5.129  0.00  0.00     0.210 C 
ENDBRANCH  22  25
ENDBRANCH  15  16
ENDBRANCH   1  15
TORSDOF 13
ENDMDL
MODEL 2
REMARK VINA RESULT:      -5.3      0.835      2.614
REMARK  13 active torsions:
REMARK  status: ('A' for Active; 'I' for Inactive)
REMARK    1  A    between atoms: C_2  and  C_3 
REMARK    2  A    between atoms: C_3  and  C_4 
REMARK    3  A    between atoms: C_3  and  N_18 
REMARK    4  A    between atoms: C_4  and  O_6 
REMARK    5  A    between atoms: O_6  and  C_7 
REMARK    6  A    between atoms: C_8  and  O_16 
REMARK    7  A    between atoms: C_12  and  O_13 
REMARK    8  A    between atoms: N_18  and  C_19 
REMARK    9  A    between atoms: N_18  and  C_23 
REMARK   10  A    between atoms: C_19  and  C_20 
REMARK   11  A    between atoms: C_20  and  O_21 
REMARK   12  A    between atoms: C_23  and  C_24 
REMARK   13  A    between atoms: C_24  and  O_25 
ROOT
HETATM    1  C   UNK N   1      21.044  17.775   6.104  0.00  0.00     0.298 C 
HETATM    2  O   UNK N   1      21.376  18.527   7.009  0.00  0.00    -0.262 OA
ENDROOT
BRANCH   1   3
HETATM    3  C   UNK N   1      21.471  18.050   4.675  0.00  0.00     0.321 C 
BRANCH   3   4
HETATM    4  C   UNK N   1      22.846  17.477   4.335  0.00  0.00     0.042 C 
HETATM    5  C   UNK N   1      23.871  18.581   4.177  0.00  0.00     0.007 C 
ENDBRANCH   3   4
BRANCH   3   6
HETATM    6  N   UNK N   1      20.473  17.714   3.650  0.00  0.00     0.106 N 
BRANCH   6   7
HETATM    7  C   UNK N   1      20.123  18.863   2.806  0.00  0.00     0.299 C 
BRANCH   7   8
HETATM    8  C   UNK N   1      20.430  20.160   3.540  0.00  0.00     0.197 C 
BRANCH   8   9
HETATM    9  O   UNK N   1      21.250  20.975   2.756  0.00  0.00    -0.394 OA
HETATM   10  C   UNK N   1      20.854  20.721   1.442  0.00  0.00     0.201 C 
ENDBRANCH   8   9
ENDBRANCH   7   8
ENDBRANCH   6   7
BRANCH   6  11
HETATM   11  C   UNK N   1      20.886  16.486   2.940  0.00  0.00     0.299 C 
BRANCH  11  12
HETATM   12  C   UNK N   1      19.907  15.318   3.040  0.00  0.00     0.197 C 
BRANCH  12  13
HETATM   13  O   UNK N   1      19.934  14.580   1.858  0.00  0.00    -0.394 OA
HETATM   14  C   UNK N   1      19.913  15.530   0.838  0.00  0.00     0.201 C 
ENDBRANCH  12  13
ENDBRANCH  11  12
ENDBRANCH   6  11
ENDBRANCH   3   6
ENDBRANCH   1   3
BRANCH   1  15
HETATM   15  O   UNK N   1      20.272  16.686   6.356  0.00  0.00    -0.271 OA
BRANCH  15  16
HETATM   16  C   UNK N   1      20.442  15.725   7.312  0.00  0.00     0.145 A 
HETATM   17  C   UNK N   1      21.259  14.595   7.014  0.00  0.00     0.105 A 
HETATM   18  C   UNK N   1      21.480  13.625   7.995  0.00  0.00     0.046 A 
HETATM   19  C   UNK N   1      20.916  13.740   9.260  0.00  0.00    -0.057 A 
HETATM   20  C   UNK N   1      20.121  14.835   9.567  0.00  0.00     0.046 A 
HETATM   21  C   UNK N   1      21.175  12.699  10.287  0.00  0.00     0.048 C 
HETATM   22  C   UNK N   1      19.875  15.839   8.615  0.00  0.00     0.105 A 
BRANCH  17  23
HETATM   23  O   UNK N   1      21.850  14.391   5.807  0.00  0.00    -0.353 OA
HETATM   24  C   UNK N   1      23.125  13.920   5.601  0.00  0.00     0.210 C 
ENDBRANCH  17  23
BRANCH  22  25
HETATM   25  O   UNK N   1      19.131  16.919   8.960  0.00  0.00    -0.353 OA
HETATM   26  C   UNK N   1      17.780  16.854   9.223  0.00  0.00     0.210 C 
ENDBRANCH  22  25
ENDBRANCH  15  16
ENDBRANCH   1  15
TORSDOF 13
ENDMDL
MODEL 3
REMARK VINA RESULT:      -5.1      6.740      9.798
REMARK  13 active torsions:
REMARK  status: ('A' for Active; 'I' for Inactive)
REMARK    1  A    between atoms: C_2  and  C_3 
REMARK    2  A    between atoms: C_3  and  C_4 
REMARK    3  A    between atoms: C_3  and  N_18 
REMARK    4  A    between atoms: C_4  and  O_6 
REMARK    5  A    between atoms: O_6  and  C_7 
REMARK    6  A    between atoms: C_8  and  O_16 
REMARK    7  A    between atoms: C_12  and  O_13 
REMARK    8  A    between atoms: N_18  and  C_19 
REMARK    9  A    between atoms: N_18  and  C_23 
REMARK   10  A    between atoms: C_19  and  C_20 
REMARK   11  A    between atoms: C_20  and  O_21 
REMARK   12  A    between atoms: C_23  and  C_24 
REMARK   13  A    between atoms: C_24  and  O_25 
ROOT
HETATM    1  C   UNK N   1      28.494  17.109   6.543  0.00  0.00     0.298 C 
HETATM    2  O   UNK N   1      27.513  16.635   7.098  0.00  0.00    -0.262 OA
ENDROOT
BRANCH   1   3
HETATM    3  C   UNK N   1      29.840  16.414   6.628  0.00  0.00     0.321 C 
BRANCH   3   4
HETATM    4  C   UNK N   1      30.306  15.837   5.293  0.00  0.00     0.042 C 
HETATM    5  C   UNK N   1      29.677  14.484   5.035  0.00  0.00     0.007 C 
ENDBRANCH   3   4
BRANCH   3   6
HETATM    6  N   UNK N   1      30.901  17.188   7.288  0.00  0.00     0.106 N 
BRANCH   6   7
HETATM    7  C   UNK N   1      30.725  17.259   8.744  0.00  0.00     0.299 C 
BRANCH   7   8
HETATM    8  C   UNK N   1      30.350  18.675   9.154  0.00  0.00     0.197 C 
BRANCH   8   9
HETATM    9  O   UNK N   1      29.401  18.645  10.178  0.00  0.00    -0.394 OA
HETATM   10  C   UNK N   1      28.987  17.314  10.242  0.00  0.00     0.201 C 
ENDBRANCH   8   9
ENDBRANCH   7   8
ENDBRANCH   6   7
BRANCH   6  11
HETATM   11  C   UNK N   1      32.220  16.723   6.813  0.00  0.00     0.299 C 
BRANCH  11  12
HETATM   12  C   UNK N   1      33.377  17.688   7.066  0.00  0.00     0.197 C 
BRANCH  12  13
HETATM   13  O   UNK N   1      34.264  17.651   5.992  0.00  0.00    -0.394 OA
HETATM   14  C   UNK N   1      34.074  16.398   5.409  0.00  0.00     0.201 C 
ENDBRANCH  12  13
ENDBRANCH  11  12
ENDBRANCH   6  11
ENDBRANCH   3   6
ENDBRANCH   1   3
BRANCH   1  15
HETATM   15  O   UNK N   1      28.405  18.275   5.854  0.00  0.00    -0.271 OA
BRANCH  15  16
HETATM   16  C   UNK N   1      27.346  18.766   5.143  0.00  0.00     0.145 A 
HETATM   17  C   UNK N   1      26.731  19.978   5.574  0.00  0.00     0.105 A 
HETATM   18  C   UNK N   1      25.677  20.518   4.832  0.00  0.00     0.046 A 
HETATM   19  C   UNK N   1      25.214  19.893   3.681  0.00  0.00    -0.057 A 
HETATM   20  C   UNK N   1      25.804  18.715   3.246  0.00  0.00     0.046 A 
HETATM   21  C   UNK N   1      24.098  20.494   2.907  0.00  0.00     0.048 C 
HETATM   22  C   UNK N   1      26.871  18.137   3.955  0.00  0.00     0.105 A 
BRANCH  17  23
HETATM   23  O   UNK N   1      27.110  20.659   6.687  0.00  0.00    -0.353 OA
HETATM   24  C   UNK N   1      26.293  21.434   7.476  0.00  0.00     0.210 C 
ENDBRANCH  17  23
BRANCH  22  25
HETATM   25  O   UNK N   1      27.456  17.010   3.481  0.00  0.00    -0.353 OA
HETATM   26  C   UNK N   1      26.750  15.974   2.909  0.00  0.00     0.210 C 
ENDBRANCH  22  25
ENDBRANCH  15  16
ENDBRANCH   1  15
TORSDOF 13
ENDMDL
MODEL 4
REMARK VINA RESULT:      -5.1      7.325     10.200
REMARK  13 active torsions:
REMARK  status: ('A' for Active; 'I' for Inactive)
REMARK    1  A    between atoms: C_2  and  C_3 
REMARK    2  A    between atoms: C_3  and  C_4 
REMARK    3  A    between atoms: C_3  and  N_18 
REMARK    4  A    between atoms: C_4  and  O_6 
REMARK    5  A    between atoms: O_6  and  C_7 
REMARK    6  A    between atoms: C_8  and  O_16 
REMARK    7  A    between atoms: C_12  and  O_13 
REMARK    8  A    between atoms: N_18  and  C_19 
REMARK    9  A    between atoms: N_18  and  C_23 
REMARK   10  A    between atoms: C_19  and  C_20 
REMARK   11  A    between atoms: C_20  and  O_21 
REMARK   12  A    between atoms: C_23  and  C_24 
REMARK   13  A    between atoms: C_24  and  O_25 
ROOT
HETATM    1  C   UNK N   1      29.241  17.239   6.033  0.00  0.00     0.298 C 
HETATM    2  O   UNK N   1      28.476  16.427   6.534  0.00  0.00    -0.262 OA
ENDROOT
BRANCH   1   3
HETATM    3  C   UNK N   1      30.665  17.372   6.537  0.00  0.00     0.321 C 
BRANCH   3   4
HETATM    4  C   UNK N   1      30.810  17.059   8.025  0.00  0.00     0.042 C 
HETATM    5  C   UNK N   1      30.491  18.275   8.870  0.00  0.00     0.007 C 
ENDBRANCH   3   4
BRANCH   3   6
HETATM    6  N   UNK N   1      31.679  16.676   5.733  0.00  0.00     0.106 N 
BRANCH   6   7
HETATM    7  C   UNK N   1      31.968  17.365   4.469  0.00  0.00     0.299 C 
BRANCH   7   8
HETATM    8  C   UNK N   1      31.840  16.395   3.305  0.00  0.00     0.197 C 
BRANCH   8   9
HETATM    9  O   UNK N   1      33.025  16.369   2.566  0.00  0.00    -0.394 OA
HETATM   10  C   UNK N   1      33.605  15.135   2.865  0.00  0.00     0.201 C 
ENDBRANCH   8   9
ENDBRANCH   7   8
ENDBRANCH   6   7
BRANCH   6  11
HETATM   11  C   UNK N   1      32.845  16.351   6.579  0.00  0.00     0.299 C 
BRANCH  11  12
HETATM   12  C   UNK N   1      34.178  16.915   6.091  0.00  0.00     0.197 C 
BRANCH  12  13
HETATM   13  O   UNK N   1      34.480  18.082   6.790  0.00  0.00    -0.394 OA
HETATM   14  C   UNK N   1      34.392  17.730   8.136  0.00  0.00     0.201 C 
ENDBRANCH  12  13
ENDBRANCH  11  12
ENDBRANCH   6  11
ENDBRANCH   3   6
ENDBRANCH   1   3
BRANCH   1  15
HETATM   15  O   UNK N   1      28.826  18.052   5.026  0.00  0.00    -0.271 OA
BRANCH  15  16
HETATM   16  C   UNK N   1      27.550  18.373   4.661  0.00  0.00     0.145 A 
HETATM   17  C   UNK N   1      26.960  19.556   5.194  0.00  0.00     0.105 A 
HETATM   18  C   UNK N   1      25.672  19.925   4.796  0.00  0.00     0.046 A 
HETATM   19  C   UNK N   1      24.952  19.156   3.890  0.00  0.00    -0.057 A 
HETATM   20  C   UNK N   1      25.513  18.003   3.360  0.00  0.00     0.046 A 
HETATM   21  C   UNK N   1      23.588  19.574   3.477  0.00  0.00     0.048 C 
HETATM   22  C   UNK N   1      26.807  17.595   3.725  0.00  0.00     0.105 A 
BRANCH  17  23
HETATM   23  O   UNK N   1      27.581  20.371   6.088  0.00  0.00    -0.353 OA
HETATM   24  C   UNK N   1      27.241  21.673   6.366  0.00  0.00     0.210 C 
ENDBRANCH  17  23
BRANCH  22  25
HETATM   25  O   UNK N   1      27.346  16.489   3.156  0.00  0.00    -0.353 OA
HETATM   26  C   UNK N   1      26.621  15.607   2.384  0.00  0.00     0.210 C 
ENDBRANCH  22  25
ENDBRANCH  15  16
ENDBRANCH   1  15
TORSDOF 13
ENDMDL
MODEL 5
REMARK VINA RESULT:      -5.0     13.377     16.025
REMARK  13 active torsions:
REMARK  status: ('A' for Active; 'I' for Inactive)
REMARK    1  A    between atoms: C_2  and  C_3 
REMARK    2  A    between atoms: C_3  and  C_4 
REMARK    3  A    between atoms: C_3  and  N_18 
REMARK    4  A    between atoms: C_4  and  O_6 
REMARK    5  A    between atoms: O_6  and  C_7 
REMARK    6  A    between atoms: C_8  and  O_16 
REMARK    7  A    between atoms: C_12  and  O_13 
REMARK    8  A    between atoms: N_18  and  C_19 
REMARK    9  A    between atoms: N_18  and  C_23 
REMARK   10  A    between atoms: C_19  and  C_20 
REMARK   11  A    between atoms: C_20  and  O_21 
REMARK   12  A    between atoms: C_23  and  C_24 
REMARK   13  A    between atoms: C_24  and  O_25 
ROOT
HETATM    1  C   UNK N   1      26.831  24.331  -4.032  0.00  0.00     0.298 C 
HETATM    2  O   UNK N   1      26.640  24.076  -2.851  0.00  0.00    -0.262 OA
ENDROOT
BRANCH   1   3
HETATM    3  C   UNK N   1      28.234  24.587  -4.549  0.00  0.00     0.321 C 
BRANCH   3   4
HETATM    4  C   UNK N   1      28.850  25.875  -4.009  0.00  0.00     0.042 C 
HETATM    5  C   UNK N   1      29.318  26.770  -5.138  0.00  0.00     0.007 C 
ENDBRANCH   3   4
BRANCH   3   6
HETATM    6  N   UNK N   1      29.159  23.450  -4.433  0.00  0.00     0.106 N 
BRANCH   6   7
HETATM    7  C   UNK N   1      29.835  23.143  -5.699  0.00  0.00     0.299 C 
BRANCH   7   8
HETATM    8  C   UNK N   1      29.310  21.831  -6.264  0.00  0.00     0.197 C 
BRANCH   8   9
HETATM    9  O   UNK N   1      30.085  20.764  -5.806  0.00  0.00    -0.394 OA
HETATM   10  C   UNK N   1      30.976  20.497  -6.847  0.00  0.00     0.201 C 
ENDBRANCH   8   9
ENDBRANCH   7   8
ENDBRANCH   6   7
BRANCH   6  11
HETATM   11  C   UNK N   1      30.032  23.641  -3.257  0.00  0.00     0.299 C 
BRANCH  11  12
HETATM   12  C   UNK N   1      30.324  22.375  -2.454  0.00  0.00     0.197 C 
BRANCH  12  13
HETATM   13  O   UNK N   1      31.676  22.334  -2.117  0.00  0.00    -0.394 OA
HETATM   14  C   UNK N   1      32.261  21.500  -3.069  0.00  0.00     0.201 C 
ENDBRANCH  12  13
ENDBRANCH  11  12
ENDBRANCH   6  11
ENDBRANCH   3   6
ENDBRANCH   1   3
BRANCH   1  15
HETATM   15  O   UNK N   1      25.791  24.408  -4.902  0.00  0.00    -0.271 OA
BRANCH  15  16
HETATM   16  C   UNK N   1      25.817  24.698  -6.236  0.00  0.00     0.145 A 
HETATM   17  C   UNK N   1      25.717  23.629  -7.174  0.00  0.00     0.105 A 
HETATM   18  C   UNK N   1      25.695  23.912  -8.543  0.00  0.00     0.046 A 
HETATM   19  C   UNK N   1      25.771  25.219  -9.008  0.00  0.00    -0.057 A 
HETATM   20  C   UNK N   1      25.865  26.270  -8.108  0.00  0.00     0.046 A 
HETATM   21  C   UNK N   1      25.737  25.491 -10.467  0.00  0.00     0.048 C 
HETATM   22  C   UNK N   1      25.885  26.036  -6.723  0.00  0.00     0.105 A 
BRANCH  17  23
HETATM   23  O   UNK N   1      25.641  22.320  -6.817  0.00  0.00    -0.353 OA
HETATM   24  C   UNK N   1      24.744  21.399  -7.306  0.00  0.00     0.210 C 
ENDBRANCH  17  23
BRANCH  22  25
HETATM   25  O   UNK N   1      25.932  27.087  -5.867  0.00  0.00    -0.353 OA
HETATM   26  C   UNK N   1      24.824  27.578  -5.211  0.00  0.00     0.210 C 
ENDBRANCH  22  25
ENDBRANCH  15  16
ENDBRANCH   1  15
TORSDOF 13
ENDMDL
MODEL 6
REMARK VINA RESULT:      -5.0      1.920      3.224
REMARK  13 active torsions:
REMARK  status: ('A' for Active; 'I' for Inactive)
REMARK    1  A    between atoms: C_2  and  C_3 
REMARK    2  A    between atoms: C_3  and  C_4 
REMARK    3  A    between atoms: C_3  and  N_18 
REMARK    4  A    between atoms: C_4  and  O_6 
REMARK    5  A    between atoms: O_6  and  C_7 
REMARK    6  A    between atoms: C_8  and  O_16 
REMARK    7  A    between atoms: C_12  and  O_13 
REMARK    8  A    between atoms: N_18  and  C_19 
REMARK    9  A    between atoms: N_18  and  C_23 
REMARK   10  A    between atoms: C_19  and  C_20 
REMARK   11  A    between atoms: C_20  and  O_21 
REMARK   12  A    between atoms: C_23  and  C_24 
REMARK   13  A    between atoms: C_24  and  O_25 
ROOT
HETATM    1  C   UNK N   1      22.131  16.494   6.135  0.00  0.00     0.298 C 
HETATM    2  O   UNK N   1      21.844  17.466   6.819  0.00  0.00    -0.262 OA
ENDROOT
BRANCH   1   3
HETATM    3  C   UNK N   1      23.033  16.641   4.923  0.00  0.00     0.321 C 
BRANCH   3   4
HETATM    4  C   UNK N   1      22.719  15.640   3.813  0.00  0.00     0.042 C 
HETATM    5  C   UNK N   1      23.847  14.643   3.645  0.00  0.00     0.007 C 
ENDBRANCH   3   4
BRANCH   3   6
HETATM    6  N   UNK N   1      23.160  18.010   4.403  0.00  0.00     0.106 N 
BRANCH   6   7
HETATM    7  C   UNK N   1      24.495  18.283   3.858  0.00  0.00     0.299 C 
BRANCH   7   8
HETATM    8  C   UNK N   1      24.856  19.746   4.074  0.00  0.00     0.197 C 
BRANCH   8   9
HETATM    9  O   UNK N   1      25.453  19.916   5.325  0.00  0.00    -0.394 OA
HETATM   10  C   UNK N   1      26.813  19.692   5.104  0.00  0.00     0.201 C 
ENDBRANCH   8   9
ENDBRANCH   7   8
ENDBRANCH   6   7
BRANCH   6  11
HETATM   11  C   UNK N   1      22.019  18.308   3.513  0.00  0.00     0.299 C 
BRANCH  11  12
HETATM   12  C   UNK N   1      21.081  19.408   4.008  0.00  0.00     0.197 C 
BRANCH  12  13
HETATM   13  O   UNK N   1      21.389  20.609   3.372  0.00  0.00    -0.394 OA
HETATM   14  C   UNK N   1      21.363  20.315   2.010  0.00  0.00     0.201 C 
ENDBRANCH  12  13
ENDBRANCH  11  12
ENDBRANCH   6  11
ENDBRANCH   3   6
ENDBRANCH   1   3
BRANCH   1  15
HETATM   15  O   UNK N   1      21.636  15.265   6.434  0.00  0.00    -0.271 OA
BRANCH  15  16
HETATM   16  C   UNK N   1      21.733  14.570   7.606  0.00  0.00     0.145 A 
HETATM   17  C   UNK N   1      20.633  14.594   8.512  0.00  0.00     0.105 A 
HETATM   18  C   UNK N   1      20.696  13.851   9.694  0.00  0.00     0.046 A 
HETATM   19  C   UNK N   1      21.816  13.090  10.005  0.00  0.00    -0.057 A 
HETATM   20  C   UNK N   1      22.894  13.053   9.133  0.00  0.00     0.046 A 
HETATM   21  C   UNK N   1      21.854  12.304  11.265  0.00  0.00     0.048 C 
HETATM   22  C   UNK N   1      22.874  13.779   7.929  0.00  0.00     0.105 A 
BRANCH  17  23
HETATM   23  O   UNK N   1      19.497  15.310   8.299  0.00  0.00    -0.353 OA
HETATM   24  C   UNK N   1      19.137  16.465   8.951  0.00  0.00     0.210 C 
ENDBRANCH  17  23
BRANCH  22  25
HETATM   25  O   UNK N   1      23.924  13.687   7.076  0.00  0.00    -0.353 OA
HETATM   26  C   UNK N   1      25.092  14.401   7.235  0.00  0.00     0.210 C 
ENDBRANCH  22  25
ENDBRANCH  15  16
ENDBRANCH   1  15
TORSDOF 13
ENDMDL
MODEL 7
REMARK VINA RESULT:      -5.0      6.866      9.061
REMARK  13 active torsions:
REMARK  status: ('A' for Active; 'I' for Inactive)
REMARK    1  A    between atoms: C_2  and  C_3 
REMARK    2  A    between atoms: C_3  and  C_4 
REMARK    3  A    between atoms: C_3  and  N_18 
REMARK    4  A    between atoms: C_4  and  O_6 
REMARK    5  A    between atoms: O_6  and  C_7 
REMARK    6  A    between atoms: C_8  and  O_16 
REMARK    7  A    between atoms: C_12  and  O_13 
REMARK    8  A    between atoms: N_18  and  C_19 
REMARK    9  A    between atoms: N_18  and  C_23 
REMARK   10  A    between atoms: C_19  and  C_20 
REMARK   11  A    between atoms: C_20  and  O_21 
REMARK   12  A    between atoms: C_23  and  C_24 
REMARK   13  A    between atoms: C_24  and  O_25 
ROOT
HETATM    1  C   UNK N   1      28.861  16.538   5.057  0.00  0.00     0.298 C 
HETATM    2  O   UNK N   1      29.256  16.775   3.924  0.00  0.00    -0.262 OA
ENDROOT
BRANCH   1   3
HETATM    3  C   UNK N   1      27.411  16.774   5.434  0.00  0.00     0.321 C 
BRANCH   3   4
HETATM    4  C   UNK N   1      27.011  16.101   6.746  0.00  0.00     0.042 C 
HETATM    5  C   UNK N   1      25.720  15.325   6.588  0.00  0.00     0.007 C 
ENDBRANCH   3   4
BRANCH   3   6
HETATM    6  N   UNK N   1      26.973  18.176   5.386  0.00  0.00     0.106 N 
BRANCH   6   7
HETATM    7  C   UNK N   1      28.064  19.116   5.676  0.00  0.00     0.299 C 
BRANCH   7   8
HETATM    8  C   UNK N   1      27.689  20.001   6.856  0.00  0.00     0.197 C 
BRANCH   8   9
HETATM    9  O   UNK N   1      27.641  21.339   6.459  0.00  0.00    -0.394 OA
HETATM   10  C   UNK N   1      26.293  21.690   6.551  0.00  0.00     0.201 C 
ENDBRANCH   8   9
ENDBRANCH   7   8
ENDBRANCH   6   7
BRANCH   6  11
HETATM   11  C   UNK N   1      26.219  18.418   4.140  0.00  0.00     0.299 C 
BRANCH  11  12
HETATM   12  C   UNK N   1      24.755  18.809   4.334  0.00  0.00     0.197 C 
BRANCH  12  13
HETATM   13  O   UNK N   1      24.545  20.098   3.850  0.00  0.00    -0.394 OA
HETATM   14  C   UNK N   1      25.532  20.287   2.883  0.00  0.00     0.201 C 
ENDBRANCH  12  13
ENDBRANCH  11  12
ENDBRANCH   6  11
ENDBRANCH   3   6
ENDBRANCH   1   3
BRANCH   1  15
HETATM   15  O   UNK N   1      29.715  16.075   6.006  0.00  0.00    -0.271 OA
BRANCH  15  16
HETATM   16  C   UNK N   1      30.855  16.656   6.483  0.00  0.00     0.145 A 
HETATM   17  C   UNK N   1      30.810  17.334   7.736  0.00  0.00     0.105 A 
HETATM   18  C   UNK N   1      31.978  17.895   8.260  0.00  0.00     0.046 A 
HETATM   19  C   UNK N   1      33.186  17.806   7.579  0.00  0.00    -0.057 A 
HETATM   20  C   UNK N   1      33.248  17.146   6.361  0.00  0.00     0.046 A 
HETATM   21  C   UNK N   1      34.414  18.403   8.163  0.00  0.00     0.048 C 
HETATM   22  C   UNK N   1      32.101  16.562   5.796  0.00  0.00     0.105 A 
BRANCH  17  23
HETATM   23  O   UNK N   1      29.677  17.477   8.473  0.00  0.00    -0.353 OA
HETATM   24  C   UNK N   1      29.526  18.287   9.574  0.00  0.00     0.210 C 
ENDBRANCH  17  23
BRANCH  22  25
HETATM   25  O   UNK N   1      32.203  15.885   4.625  0.00  0.00    -0.353 OA
HETATM   26  C   UNK N   1      33.408  15.570   4.036  0.00  0.00     0.210 C 
ENDBRANCH  22  25
ENDBRANCH  15  16
ENDBRANCH   1  15
TORSDOF 13
ENDMDL
MODEL 8
REMARK VINA RESULT:      -4.9      8.564     11.575
REMARK  13 active torsions:
REMARK  status: ('A' for Active; 'I' for Inactive)
REMARK    1  A    between atoms: C_2  and  C_3 
REMARK    2  A    between atoms: C_3  and  C_4 
REMARK    3  A    between atoms: C_3  and  N_18 
REMARK    4  A    between atoms: C_4  and  O_6 
REMARK    5  A    between atoms: O_6  and  C_7 
REMARK    6  A    between atoms: C_8  and  O_16 
REMARK    7  A    between atoms: C_12  and  O_13 
REMARK    8  A    between atoms: N_18  and  C_19 
REMARK    9  A    between atoms: N_18  and  C_23 
REMARK   10  A    between atoms: C_19  and  C_20 
REMARK   11  A    between atoms: C_20  and  O_21 
REMARK   12  A    between atoms: C_23  and  C_24 
REMARK   13  A    between atoms: C_24  and  O_25 
ROOT
HETATM    1  C   UNK N   1      31.425  17.017   7.309  0.00  0.00     0.298 C 
HETATM    2  O   UNK N   1      31.811  17.616   8.302  0.00  0.00    -0.262 OA
ENDROOT
BRANCH   1   3
HETATM    3  C   UNK N   1      32.420  16.388   6.351  0.00  0.00     0.321 C 
BRANCH   3   4
HETATM    4  C   UNK N   1      33.374  17.401   5.722  0.00  0.00     0.042 C 
HETATM    5  C   UNK N   1      33.033  17.638   4.265  0.00  0.00     0.007 C 
ENDBRANCH   3   4
BRANCH   3   6
HETATM    6  N   UNK N   1      33.137  15.218   6.876  0.00  0.00     0.106 N 
BRANCH   6   7
HETATM    7  C   UNK N   1      32.867  13.998   6.104  0.00  0.00     0.299 C 
BRANCH   7   8
HETATM    8  C   UNK N   1      31.571  14.154   5.322  0.00  0.00     0.197 C 
BRANCH   8   9
HETATM    9  O   UNK N   1      31.829  14.124   3.950  0.00  0.00    -0.394 OA
HETATM   10  C   UNK N   1      32.913  13.256   3.810  0.00  0.00     0.201 C 
ENDBRANCH   8   9
ENDBRANCH   7   8
ENDBRANCH   6   7
BRANCH   6  11
HETATM   11  C   UNK N   1      34.560  15.559   7.078  0.00  0.00     0.299 C 
BRANCH  11  12
HETATM   12  C   UNK N   1      35.123  15.203   8.453  0.00  0.00     0.197 C 
BRANCH  12  13
HETATM   13  O   UNK N   1      34.277  15.690   9.447  0.00  0.00    -0.394 OA
HETATM   14  C   UNK N   1      35.036  16.632  10.139  0.00  0.00     0.201 C 
ENDBRANCH  12  13
ENDBRANCH  11  12
ENDBRANCH   6  11
ENDBRANCH   3   6
ENDBRANCH   1   3
BRANCH   1  15
HETATM   15  O   UNK N   1      30.099  16.915   7.032  0.00  0.00    -0.271 OA
BRANCH  15  16
HETATM   16  C   UNK N   1      29.253  17.873   6.551  0.00  0.00     0.145 A 
HETATM   17  C   UNK N   1      29.056  17.972   5.143  0.00  0.00     0.105 A 
HETATM   18  C   UNK N   1      28.158  18.917   4.637  0.00  0.00     0.046 A 
HETATM   19  C   UNK N   1      27.455  19.766   5.483  0.00  0.00    -0.057 A 
HETATM   20  C   UNK N   1      27.634  19.680   6.856  0.00  0.00     0.046 A 
HETATM   21  C   UNK N   1      26.502  20.755   4.919  0.00  0.00     0.048 C 
HETATM   22  C   UNK N   1      28.521  18.742   7.412  0.00  0.00     0.105 A 
BRANCH  17  23
HETATM   23  O   UNK N   1      29.699  17.191   4.236  0.00  0.00    -0.353 OA
HETATM   24  C   UNK N   1      29.102  16.417   3.269  0.00  0.00     0.210 C 
ENDBRANCH  17  23
BRANCH  22  25
HETATM   25  O   UNK N   1      28.640  18.652   8.760  0.00  0.00    -0.353 OA
HETATM   26  C   UNK N   1      28.160  17.588   9.491  0.00  0.00     0.210 C 
ENDBRANCH  22  25
ENDBRANCH  15  16
ENDBRANCH   1  15
TORSDOF 13
ENDMDL
MODEL 9
REMARK VINA RESULT:      -4.9      6.144      8.387
REMARK  13 active torsions:
REMARK  status: ('A' for Active; 'I' for Inactive)
REMARK    1  A    between atoms: C_2  and  C_3 
REMARK    2  A    between atoms: C_3  and  C_4 
REMARK    3  A    between atoms: C_3  and  N_18 
REMARK    4  A    between atoms: C_4  and  O_6 
REMARK    5  A    between atoms: O_6  and  C_7 
REMARK    6  A    between atoms: C_8  and  O_16 
REMARK    7  A    between atoms: C_12  and  O_13 
REMARK    8  A    between atoms: N_18  and  C_19 
REMARK    9  A    between atoms: N_18  and  C_23 
REMARK   10  A    between atoms: C_19  and  C_20 
REMARK   11  A    between atoms: C_20  and  O_21 
REMARK   12  A    between atoms: C_23  and  C_24 
REMARK   13  A    between atoms: C_24  and  O_25 
ROOT
HETATM    1  C   UNK N   1      28.332  17.560   4.635  0.00  0.00     0.298 C 
HETATM    2  O   UNK N   1      28.473  17.416   3.429  0.00  0.00    -0.262 OA
ENDROOT
BRANCH   1   3
HETATM    3  C   UNK N   1      27.415  18.638   5.181  0.00  0.00     0.321 C 
BRANCH   3   4
HETATM    4  C   UNK N   1      27.930  20.053   4.929  0.00  0.00     0.042 C 
HETATM    5  C   UNK N   1      27.544  20.982   6.062  0.00  0.00     0.007 C 
ENDBRANCH   3   4
BRANCH   3   6
HETATM    6  N   UNK N   1      25.999  18.499   4.809  0.00  0.00     0.106 N 
BRANCH   6   7
HETATM    7  C   UNK N   1      25.711  19.043   3.476  0.00  0.00     0.299 C 
BRANCH   7   8
HETATM    8  C   UNK N   1      24.620  20.100   3.569  0.00  0.00     0.197 C 
BRANCH   8   9
HETATM    9  O   UNK N   1      23.362  19.493   3.590  0.00  0.00    -0.394 OA
HETATM   10  C   UNK N   1      22.550  20.331   2.825  0.00  0.00     0.201 C 
ENDBRANCH   8   9
ENDBRANCH   7   8
ENDBRANCH   6   7
BRANCH   6  11
HETATM   11  C   UNK N   1      25.555  17.113   5.057  0.00  0.00     0.299 C 
BRANCH  11  12
HETATM   12  C   UNK N   1      24.968  16.393   3.844  0.00  0.00     0.197 C 
BRANCH  12  13
HETATM   13  O   UNK N   1      25.829  15.374   3.440  0.00  0.00    -0.394 OA
HETATM   14  C   UNK N   1      25.857  15.454   2.049  0.00  0.00     0.201 C 
ENDBRANCH  12  13
ENDBRANCH  11  12
ENDBRANCH   6  11
ENDBRANCH   3   6
ENDBRANCH   1   3
BRANCH   1  15
HETATM   15  O   UNK N   1      29.006  16.772   5.511  0.00  0.00    -0.271 OA
BRANCH  15  16
HETATM   16  C   UNK N   1      30.163  17.043   6.185  0.00  0.00     0.145 A 
HETATM   17  C   UNK N   1      31.391  17.069   5.462  0.00  0.00     0.105 A 
HETATM   18  C   UNK N   1      32.577  17.391   6.127  0.00  0.00     0.046 A 
HETATM   19  C   UNK N   1      32.583  17.685   7.485  0.00  0.00    -0.057 A 
HETATM   20  C   UNK N   1      31.396  17.667   8.203  0.00  0.00     0.046 A 
HETATM   21  C   UNK N   1      33.857  18.031   8.165  0.00  0.00     0.048 C 
HETATM   22  C   UNK N   1      30.177  17.355   7.577  0.00  0.00     0.105 A 
BRANCH  17  23
HETATM   23  O   UNK N   1      31.488  16.793   4.134  0.00  0.00    -0.353 OA
HETATM   24  C   UNK N   1      31.732  15.558   3.582  0.00  0.00     0.210 C 
ENDBRANCH  17  23
BRANCH  22  25
HETATM   25  O   UNK N   1      29.028  17.390   8.295  0.00  0.00    -0.353 OA
HETATM   26  C   UNK N   1      28.456  18.559   8.750  0.00  0.00     0.210 C 
ENDBRANCH  22  25
ENDBRANCH  15  16
ENDBRANCH   1  15
TORSDOF 13
ENDMDL
