MODEL 1
REMARK VINA RESULT:      -5.8      0.000      0.000
REMARK  1 active torsions:
REMARK  status: ('A' for Active; 'I' for Inactive)
REMARK    1  A    between atoms: N_5  and  C_8 
ROOT
HETATM    1  C   UNK N   1      22.440  13.422   8.737  0.00  0.00     0.067 A 
HETATM    2  C   UNK N   1      23.845  13.401   8.560  0.00  0.00     0.032 A 
HETATM    3  C   UNK N   1      24.683  12.807   9.537  0.00  0.00     0.005 A 
HETATM    4  C   UNK N   1      24.134  12.228  10.701  0.00  0.00     0.032 A 
HETATM    5  C   UNK N   1      22.751  12.266  10.845  0.00  0.00     0.073 A 
HETATM    6  C   UNK N   1      21.943  12.836   9.907  0.00  0.00     0.134 A 
HETATM    7  O   UNK N   1      20.706  12.725  10.306  0.00  0.00    -0.257 OA
HETATM    8  C   UNK N   1      20.727  12.104  11.461  0.00  0.00     0.370 A 
HETATM    9  O   UNK N   1      19.733  11.842  12.103  0.00  0.00    -0.238 OA
HETATM   10  N   UNK N   1      22.002  11.787  11.853  0.00  0.00    -0.300 N 
HETATM   11  H   UNK N   1      22.296  11.324  12.670  0.00  0.00     0.171 HD
ENDROOT
BRANCH   1  12
HETATM   12  N   UNK N   1      21.558  14.013   7.773  0.00  0.00    -0.375 N 
HETATM   13  C   UNK N   1      21.009  13.176   6.723  0.00  0.00     0.142 A 
HETATM   14  C   UNK N   1      20.074  13.828   5.710  0.00  0.00     0.136 A 
HETATM   15  N   UNK N   1      19.813  15.247   5.890  0.00  0.00    -0.414 N 
HETATM   16  C   UNK N   1      18.927  15.889   4.939  0.00  0.00     0.143 C 
HETATM   17  C   UNK N   1      20.345  16.102   6.925  0.00  0.00     0.136 A 
HETATM   18  C   UNK N   1      21.265  15.430   7.909  0.00  0.00     0.142 A 
ENDBRANCH   1  12
TORSDOF 1
ENDMDL
MODEL 2
REMARK VINA RESULT:      -5.8      9.263     11.557
REMARK  1 active torsions:
REMARK  status: ('A' for Active; 'I' for Inactive)
REMARK    1  A    between atoms: N_5  and  C_8 
ROOT
HETATM    1  C   UNK N   1      31.304  17.099   6.948  0.00  0.00     0.067 A 
HETATM    2  C   UNK N   1      31.493  17.171   5.546  0.00  0.00     0.032 A 
HETATM    3  C   UNK N   1      30.397  17.436   4.687  0.00  0.00     0.005 A 
HETATM    4  C   UNK N   1      29.102  17.632   5.211  0.00  0.00     0.032 A 
HETATM    5  C   UNK N   1      28.950  17.555   6.591  0.00  0.00     0.073 A 
HETATM    6  C   UNK N   1      30.002  17.300   7.420  0.00  0.00     0.134 A 
HETATM    7  O   UNK N   1      29.565  17.286   8.649  0.00  0.00    -0.257 OA
HETATM    8  C   UNK N   1      28.276  17.524   8.603  0.00  0.00     0.370 A 
HETATM    9  O   UNK N   1      27.566  17.579   9.584  0.00  0.00    -0.238 OA
HETATM   10  N   UNK N   1      27.830  17.703   7.319  0.00  0.00    -0.300 N 
HETATM   11  H   UNK N   1      26.916  17.894   7.008  0.00  0.00     0.171 HD
ENDROOT
BRANCH   1  12
HETATM   12  N   UNK N   1      32.386  16.833   7.851  0.00  0.00    -0.375 N 
HETATM   13  C   UNK N   1      32.403  15.572   8.569  0.00  0.00     0.142 A 
HETATM   14  C   UNK N   1      33.565  15.314   9.524  0.00  0.00     0.136 A 
HETATM   15  N   UNK N   1      34.562  16.367   9.629  0.00  0.00    -0.414 N 
HETATM   16  C   UNK N   1      35.675  16.144  10.530  0.00  0.00     0.143 C 
HETATM   17  C   UNK N   1      34.569  17.629   8.927  0.00  0.00     0.136 A 
HETATM   18  C   UNK N   1      33.410  17.854   7.993  0.00  0.00     0.142 A 
ENDBRANCH   1  12
TORSDOF 1
ENDMDL
MODEL 3
REMARK VINA RESULT:      -5.7     17.318     18.599
REMARK  1 active torsions:
REMARK  status: ('A' for Active; 'I' for Inactive)
REMARK    1  A    between atoms: N_5  and  C_8 
ROOT
HETATM    1  C   UNK N   1      28.794  22.917  -5.626  0.00  0.00     0.067 A 
HETATM    2  C   UNK N   1      29.010  22.067  -6.737  0.00  0.00     0.032 A 
HETATM    3  C   UNK N   1      29.941  21.001  -6.655  0.00  0.00     0.005 A 
HETATM    4  C   UNK N   1      30.667  20.769  -5.467  0.00  0.00     0.032 A 
HETATM    5  C   UNK N   1      30.432  21.622  -4.395  0.00  0.00     0.073 A 
HETATM    6  C   UNK N   1      29.537  22.648  -4.472  0.00  0.00     0.134 A 
HETATM    7  O   UNK N   1      29.526  23.272  -3.326  0.00  0.00    -0.257 OA
HETATM    8  C   UNK N   1      30.386  22.662  -2.546  0.00  0.00     0.370 A 
HETATM    9  O   UNK N   1      30.616  22.998  -1.404  0.00  0.00    -0.238 OA
HETATM   10  N   UNK N   1      30.992  21.605  -3.174  0.00  0.00    -0.300 N 
HETATM   11  H   UNK N   1      31.670  20.987  -2.818  0.00  0.00     0.171 HD
ENDROOT
BRANCH   1  12
HETATM   12  N   UNK N   1      27.861  24.006  -5.669  0.00  0.00    -0.375 N 
HETATM   13  C   UNK N   1      28.346  25.328  -6.023  0.00  0.00     0.142 A 
HETATM   14  C   UNK N   1      27.334  26.469  -6.061  0.00  0.00     0.136 A 
HETATM   15  N   UNK N   1      25.959  26.125  -5.736  0.00  0.00    -0.414 N 
HETATM   16  C   UNK N   1      24.980  27.193  -5.766  0.00  0.00     0.143 C 
HETATM   17  C   UNK N   1      25.451  24.820  -5.381  0.00  0.00     0.136 A 
HETATM   18  C   UNK N   1      26.474  23.715  -5.352  0.00  0.00     0.142 A 
ENDBRANCH   1  12
TORSDOF 1
ENDMDL
MODEL 4
REMARK VINA RESULT:      -5.7      8.299      9.816
REMARK  1 active torsions:
REMARK  status: ('A' for Active; 'I' for Inactive)
REMARK    1  A    between atoms: N_5  and  C_8 
ROOT
HETATM    1  C   UNK N   1      28.641  18.319   5.366  0.00  0.00     0.067 A 
HETATM    2  C   UNK N   1      28.278  19.485   4.648  0.00  0.00     0.032 A 
HETATM    3  C   UNK N   1      27.628  20.559   5.305  0.00  0.00     0.005 A 
HETATM    4  C   UNK N   1      27.331  20.486   6.683  0.00  0.00     0.032 A 
HETATM    5  C   UNK N   1      27.701  19.328   7.359  0.00  0.00     0.073 A 
HETATM    6  C   UNK N   1      28.326  18.294   6.728  0.00  0.00     0.134 A 
HETATM    7  O   UNK N   1      28.549  17.352   7.604  0.00  0.00    -0.257 OA
HETATM    8  C   UNK N   1      28.080  17.775   8.754  0.00  0.00     0.370 A 
HETATM    9  O   UNK N   1      28.130  17.130   9.779  0.00  0.00    -0.238 OA
HETATM   10  N   UNK N   1      27.529  19.026   8.657  0.00  0.00    -0.300 N 
HETATM   11  H   UNK N   1      27.110  19.569   9.363  0.00  0.00     0.171 HD
ENDROOT
BRANCH   1  12
HETATM   12  N   UNK N   1      29.300  17.211   4.738  0.00  0.00    -0.375 N 
HETATM   13  C   UNK N   1      28.494  16.206   4.068  0.00  0.00     0.142 A 
HETATM   14  C   UNK N   1      29.220  15.038   3.408  0.00  0.00     0.136 A 
HETATM   15  N   UNK N   1      30.670  15.036   3.510  0.00  0.00    -0.414 N 
HETATM   16  C   UNK N   1      31.381  13.935   2.891  0.00  0.00     0.143 C 
HETATM   17  C   UNK N   1      31.495  16.021   4.169  0.00  0.00     0.136 A 
HETATM   18  C   UNK N   1      30.751  17.162   4.811  0.00  0.00     0.142 A 
ENDBRANCH   1  12
TORSDOF 1
ENDMDL
MODEL 5
REMARK VINA RESULT:      -5.6     17.473     19.616
REMARK  1 active torsions:
REMARK  status: ('A' for Active; 'I' for Inactive)
REMARK    1  A    between atoms: N_5  and  C_8 
ROOT
HETATM    1  C   UNK N   1      26.959  25.815  -4.467  0.00  0.00     0.067 A 
HETATM    2  C   UNK N   1      26.025  25.380  -5.439  0.00  0.00     0.032 A 
HETATM    3  C   UNK N   1      24.983  26.238  -5.870  0.00  0.00     0.005 A 
HETATM    4  C   UNK N   1      24.857  27.540  -5.338  0.00  0.00     0.032 A 
HETATM    5  C   UNK N   1      25.789  27.937  -4.385  0.00  0.00     0.073 A 
HETATM    6  C   UNK N   1      26.792  27.112  -3.971  0.00  0.00     0.134 A 
HETATM    7  O   UNK N   1      27.505  27.747  -3.080  0.00  0.00    -0.257 OA
HETATM    8  C   UNK N   1      26.972  28.936  -2.935  0.00  0.00     0.370 A 
HETATM    9  O   UNK N   1      27.400  29.778  -2.175  0.00  0.00    -0.238 OA
HETATM   10  N   UNK N   1      25.877  29.112  -3.740  0.00  0.00    -0.300 N 
HETATM   11  H   UNK N   1      25.298  29.904  -3.825  0.00  0.00     0.171 HD
ENDROOT
BRANCH   1  12
HETATM   12  N   UNK N   1      28.027  24.977  -4.006  0.00  0.00    -0.375 N 
HETATM   13  C   UNK N   1      27.749  23.993  -2.976  0.00  0.00     0.142 A 
HETATM   14  C   UNK N   1      28.902  23.114  -2.503  0.00  0.00     0.136 A 
HETATM   15  N   UNK N   1      30.192  23.344  -3.134  0.00  0.00    -0.414 N 
HETATM   16  C   UNK N   1      31.303  22.521  -2.700  0.00  0.00     0.143 C 
HETATM   17  C   UNK N   1      30.495  24.315  -4.159  0.00  0.00     0.136 A 
HETATM   18  C   UNK N   1      29.337  25.167  -4.605  0.00  0.00     0.142 A 
ENDBRANCH   1  12
TORSDOF 1
ENDMDL
MODEL 6
REMARK VINA RESULT:      -5.6     10.475     12.835
REMARK  1 active torsions:
REMARK  status: ('A' for Active; 'I' for Inactive)
REMARK    1  A    between atoms: N_5  and  C_8 
ROOT
HETATM    1  C   UNK N   1      31.288  17.078   6.527  0.00  0.00     0.067 A 
HETATM    2  C   UNK N   1      29.962  17.426   6.881  0.00  0.00     0.032 A 
HETATM    3  C   UNK N   1      28.972  17.593   5.880  0.00  0.00     0.005 A 
HETATM    4  C   UNK N   1      29.289  17.415   4.517  0.00  0.00     0.032 A 
HETATM    5  C   UNK N   1      30.600  17.073   4.203  0.00  0.00     0.073 A 
HETATM    6  C   UNK N   1      31.554  16.913   5.164  0.00  0.00     0.134 A 
HETATM    7  O   UNK N   1      32.678  16.596   4.580  0.00  0.00    -0.257 OA
HETATM    8  C   UNK N   1      32.445  16.557   3.290  0.00  0.00     0.370 A 
HETATM    9  O   UNK N   1      33.288  16.291   2.461  0.00  0.00    -0.238 OA
HETATM   10  N   UNK N   1      31.140  16.852   2.992  0.00  0.00    -0.300 N 
HETATM   11  H   UNK N   1      30.705  16.893   2.110  0.00  0.00     0.171 HD
ENDROOT
BRANCH   1  12
HETATM   12  N   UNK N   1      32.318  16.901   7.509  0.00  0.00    -0.375 N 
HETATM   13  C   UNK N   1      32.294  15.712   8.341  0.00  0.00     0.142 A 
HETATM   14  C   UNK N   1      33.401  15.547   9.377  0.00  0.00     0.136 A 
HETATM   15  N   UNK N   1      34.392  16.608   9.439  0.00  0.00    -0.414 N 
HETATM   16  C   UNK N   1      35.454  16.473  10.417  0.00  0.00     0.143 C 
HETATM   17  C   UNK N   1      34.440  17.800   8.625  0.00  0.00     0.136 A 
HETATM   18  C   UNK N   1      33.334  17.934   7.611  0.00  0.00     0.142 A 
ENDBRANCH   1  12
TORSDOF 1
ENDMDL
MODEL 7
REMARK VINA RESULT:      -5.5     14.722     16.224
REMARK  1 active torsions:
REMARK  status: ('A' for Active; 'I' for Inactive)
REMARK    1  A    between atoms: N_5  and  C_8 
ROOT
HETATM    1  C   UNK N   1      35.587  11.360  16.442  0.00  0.00     0.067 A 
HETATM    2  C   UNK N   1      35.524  10.034  16.933  0.00  0.00     0.032 A 
HETATM    3  C   UNK N   1      35.328   9.788  18.315  0.00  0.00     0.005 A 
HETATM    4  C   UNK N   1      35.192  10.859  19.224  0.00  0.00     0.032 A 
HETATM    5  C   UNK N   1      35.259  12.149  18.711  0.00  0.00     0.073 A 
HETATM    6  C   UNK N   1      35.448  12.387  17.382  0.00  0.00     0.134 A 
HETATM    7  O   UNK N   1      35.468  13.679  17.193  0.00  0.00    -0.257 OA
HETATM    8  C   UNK N   1      35.297  14.242  18.365  0.00  0.00     0.370 A 
HETATM    9  O   UNK N   1      35.266  15.442  18.537  0.00  0.00    -0.238 OA
HETATM   10  N   UNK N   1      35.159  13.317  19.367  0.00  0.00    -0.300 N 
HETATM   11  H   UNK N   1      35.021  13.470  20.330  0.00  0.00     0.171 HD
ENDROOT
BRANCH   1  12
HETATM   12  N   UNK N   1      35.784  11.651  15.051  0.00  0.00    -0.375 N 
HETATM   13  C   UNK N   1      34.640  12.047  14.251  0.00  0.00     0.142 A 
HETATM   14  C   UNK N   1      34.876  12.350  12.775  0.00  0.00     0.136 A 
HETATM   15  N   UNK N   1      36.243  12.213  12.297  0.00  0.00    -0.414 N 
HETATM   16  C   UNK N   1      36.491  12.496  10.898  0.00  0.00     0.143 C 
HETATM   17  C   UNK N   1      37.397  11.821  13.071  0.00  0.00     0.136 A 
HETATM   18  C   UNK N   1      37.133  11.529  14.524  0.00  0.00     0.142 A 
ENDBRANCH   1  12
TORSDOF 1
ENDMDL
MODEL 8
REMARK VINA RESULT:      -5.5     17.370     18.989
REMARK  1 active torsions:
REMARK  status: ('A' for Active; 'I' for Inactive)
REMARK    1  A    between atoms: N_5  and  C_8 
ROOT
HETATM    1  C   UNK N   1      28.380  24.533  -5.075  0.00  0.00     0.067 A 
HETATM    2  C   UNK N   1      28.167  24.003  -6.371  0.00  0.00     0.032 A 
HETATM    3  C   UNK N   1      28.698  22.739  -6.728  0.00  0.00     0.005 A 
HETATM    4  C   UNK N   1      29.448  21.986  -5.799  0.00  0.00     0.032 A 
HETATM    5  C   UNK N   1      29.640  22.533  -4.535  0.00  0.00     0.073 A 
HETATM    6  C   UNK N   1      29.130  23.749  -4.191  0.00  0.00     0.134 A 
HETATM    7  O   UNK N   1      29.466  24.002  -2.955  0.00  0.00    -0.257 OA
HETATM    8  C   UNK N   1      30.167  22.979  -2.529  0.00  0.00     0.370 A 
HETATM    9  O   UNK N   1      30.633  22.901  -1.413  0.00  0.00    -0.238 OA
HETATM   10  N   UNK N   1      30.310  22.014  -3.492  0.00  0.00    -0.300 N 
HETATM   11  H   UNK N   1      30.785  21.155  -3.434  0.00  0.00     0.171 HD
ENDROOT
BRANCH   1  12
HETATM   12  N   UNK N   1      27.860  25.808  -4.676  0.00  0.00    -0.375 N 
HETATM   13  C   UNK N   1      26.653  25.849  -3.871  0.00  0.00     0.142 A 
HETATM   14  C   UNK N   1      26.120  27.218  -3.459  0.00  0.00     0.136 A 
HETATM   15  N   UNK N   1      26.877  28.371  -3.917  0.00  0.00    -0.414 N 
HETATM   16  C   UNK N   1      26.390  29.682  -3.538  0.00  0.00     0.143 C 
HETATM   17  C   UNK N   1      28.079  28.358  -4.718  0.00  0.00     0.136 A 
HETATM   18  C   UNK N   1      28.581  26.993  -5.108  0.00  0.00     0.142 A 
ENDBRANCH   1  12
TORSDOF 1
ENDMDL
MODEL 9
REMARK VINA RESULT:      -5.5     14.795     16.218
REMARK  1 active torsions:
REMARK  status: ('A' for Active; 'I' for Inactive)
REMARK    1  A    between atoms: N_5  and  C_8 
ROOT
HETATM    1  C   UNK N   1      36.596  13.295  12.861  0.00  0.00     0.067 A 
HETATM    2  C   UNK N   1      37.248  12.143  12.357  0.00  0.00     0.032 A 
HETATM    3  C   UNK N   1      37.587  12.053  10.983  0.00  0.00     0.005 A 
HETATM    4  C   UNK N   1      37.280  13.107  10.096  0.00  0.00     0.032 A 
HETATM    5  C   UNK N   1      36.640  14.223  10.622  0.00  0.00     0.073 A 
HETATM    6  C   UNK N   1      36.314  14.311  11.943  0.00  0.00     0.134 A 
HETATM    7  O   UNK N   1      35.728  15.460  12.146  0.00  0.00    -0.257 OA
HETATM    8  C   UNK N   1      35.683  16.081  10.992  0.00  0.00     0.370 A 
HETATM    9  O   UNK N   1      35.198  17.180  10.837  0.00  0.00    -0.238 OA
HETATM   10  N   UNK N   1      36.249  15.340   9.986  0.00  0.00    -0.300 N 
HETATM   11  H   UNK N   1      36.346  15.571   9.034  0.00  0.00     0.171 HD
ENDROOT
BRANCH   1  12
HETATM   12  N   UNK N   1      36.237  13.424  14.243  0.00  0.00    -0.375 N 
HETATM   13  C   UNK N   1      36.985  14.348  15.076  0.00  0.00     0.142 A 
HETATM   14  C   UNK N   1      36.583  14.468  16.542  0.00  0.00     0.136 A 
HETATM   15  N   UNK N   1      35.474  13.635  16.979  0.00  0.00    -0.414 N 
HETATM   16  C   UNK N   1      35.074  13.732  18.369  0.00  0.00     0.143 C 
HETATM   17  C   UNK N   1      34.714  12.709  16.173  0.00  0.00     0.136 A 
HETATM   18  C   UNK N   1      35.134  12.613  14.730  0.00  0.00     0.142 A 
ENDBRANCH   1  12
TORSDOF 1
ENDMDL
