MODEL 1
REMARK VINA RESULT:      -7.9      0.000      0.000
REMARK  7 active torsions:
REMARK  status: ('A' for Active; 'I' for Inactive)
REMARK    1  A    between atoms: C_7  and  C_8 
REMARK    2  A    between atoms: N_14  and  C_27 
REMARK       I    between atoms: C_18  and  N_21 
REMARK    3  A    between atoms: N_21  and  C_22 
REMARK    4  A    between atoms: C_22  and  C_23 
REMARK    5  A    between atoms: C_22  and  C_25 
REMARK    6  A    between atoms: C_23  and  O_24 
REMARK    7  A    between atoms: C_25  and  O_26 
ROOT
HETATM    1  C   UNK N   1      31.935  16.132   7.675  0.00  0.00     0.074 A 
HETATM    2  C   UNK N   1      30.744  16.865   7.876  0.00  0.00     0.037 A 
HETATM    3  C   UNK N   1      30.504  17.556   9.059  0.00  0.00     0.023 A 
HETATM    4  C   UNK N   1      29.401  18.373   9.180  0.00  0.00     0.076 A 
HETATM    5  C   UNK N   1      28.528  18.525   8.109  0.00  0.00     0.254 A 
HETATM    6  O   UNK N   1      27.629  19.339   8.221  0.00  0.00    -0.268 OA
HETATM    7  N   UNK N   1      28.725  17.824   6.918  0.00  0.00    -0.257 N 
HETATM    8  C   UNK N   1      29.823  16.984   6.808  0.00  0.00     0.143 A 
HETATM    9  N   UNK N   1      30.068  16.297   5.660  0.00  0.00    -0.175 N 
ATOM     10  HN  UNK N   1      29.368  16.306   4.918  1.00  0.00     0.186 HD
HETATM   11  C   UNK N   1      31.215  15.600   5.476  0.00  0.00     0.680 A 
HETATM   12  N   UNK N   1      32.147  15.556   6.463  0.00  0.00    -0.190 N 
ATOM     13  HN  UNK N   1      33.031  15.076   6.289  1.00  0.00     0.184 HD
HETATM   14  N   UNK N   1      31.493  15.037   4.212  0.00  0.00    -0.217 N 
HETATM   15  H   UNK N   1      30.795  14.533   3.734  0.00  0.00     0.178 HD
ENDROOT
BRANCH  14  16
HETATM   16  C   UNK N   1      32.798  15.200   3.617  0.00  0.00     0.146 C 
BRANCH  16  17
HETATM   17  C   UNK N   1      32.953  16.619   3.088  0.00  0.00     0.192 C 
BRANCH  17  18
HETATM   18  O   UNK N   1      31.871  16.969   2.276  0.00  0.00    -0.399 OA
HETATM   19  H   UNK N   1      31.650  17.606   1.580  0.00  0.00     0.209 HD
ENDBRANCH  17  18
ENDBRANCH  16  17
BRANCH  16  20
HETATM   20  C   UNK N   1      33.063  14.173   2.531  0.00  0.00     0.192 C 
BRANCH  20  21
HETATM   21  O   UNK N   1      34.060  14.643   1.677  0.00  0.00    -0.399 OA
HETATM   22  H   UNK N   1      34.834  15.111   2.028  0.00  0.00     0.209 HD
ENDBRANCH  20  21
ENDBRANCH  16  20
ENDBRANCH  14  16
BRANCH   1  23
HETATM   23  C   UNK N   1      33.015  16.080   8.710  0.00  0.00    -0.002 A 
HETATM   24  C   UNK N   1      33.029  15.045   9.663  0.00  0.00     0.017 A 
HETATM   25  C   UNK N   1      33.983  15.016  10.679  0.00  0.00     0.043 A 
HETATM   26  C   UNK N   1      34.933  16.031  10.770  0.00  0.00     0.117 A 
HETATM   27  C   UNK N   1      34.941  17.064   9.833  0.00  0.00     0.049 A 
HETATM   28  F   UNK N   1      35.832  16.028  11.782  0.00  0.00    -0.206 F 
HETATM   29  C   UNK N   1      34.003  17.094   8.798  0.00  0.00    -0.047 A 
HETATM   30  C   UNK N   1      34.021  18.268   7.878  0.00  0.00     0.049 C 
ENDBRANCH   1  23
BRANCH   7  31
HETATM   31  C   UNK N   1      27.818  18.049   5.783  0.00  0.00     0.121 A 
HETATM   32  C   UNK N   1      26.711  17.188   5.552  0.00  0.00     0.146 A 
HETATM   33  C   UNK N   1      25.837  17.423   4.489  0.00  0.00     0.045 A 
HETATM   34  F   UNK N   1      26.491  16.094   6.321  0.00  0.00    -0.204 F 
HETATM   35  C   UNK N   1      26.031  18.507   3.638  0.00  0.00     0.006 A 
HETATM   36  C   UNK N   1      27.100  19.369   3.847  0.00  0.00     0.045 A 
HETATM   37  C   UNK N   1      27.990  19.156   4.903  0.00  0.00     0.146 A 
HETATM   38  F   UNK N   1      28.963  20.082   5.093  0.00  0.00    -0.204 F 
ENDBRANCH   7  31
TORSDOF 7
ENDMDL
MODEL 2
REMARK VINA RESULT:      -7.5      5.031      9.829
REMARK  7 active torsions:
REMARK  status: ('A' for Active; 'I' for Inactive)
REMARK    1  A    between atoms: C_7  and  C_8 
REMARK    2  A    between atoms: N_14  and  C_27 
REMARK       I    between atoms: C_18  and  N_21 
REMARK    3  A    between atoms: N_21  and  C_22 
REMARK    4  A    between atoms: C_22  and  C_23 
REMARK    5  A    between atoms: C_22  and  C_25 
REMARK    6  A    between atoms: C_23  and  O_24 
REMARK    7  A    between atoms: C_25  and  O_26 
ROOT
HETATM    1  C   UNK N   1      24.391  15.068   2.844  0.00  0.00     0.074 A 
HETATM    2  C   UNK N   1      25.683  15.515   3.203  0.00  0.00     0.037 A 
HETATM    3  C   UNK N   1      26.830  14.890   2.728  0.00  0.00     0.023 A 
HETATM    4  C   UNK N   1      28.074  15.424   2.981  0.00  0.00     0.076 A 
HETATM    5  C   UNK N   1      28.189  16.608   3.701  0.00  0.00     0.254 A 
HETATM    6  O   UNK N   1      29.297  17.102   3.807  0.00  0.00    -0.268 OA
HETATM    7  N   UNK N   1      27.059  17.245   4.216  0.00  0.00    -0.257 N 
HETATM    8  C   UNK N   1      25.810  16.692   3.980  0.00  0.00     0.143 A 
HETATM    9  N   UNK N   1      24.679  17.288   4.443  0.00  0.00    -0.175 N 
ATOM     10  HN  UNK N   1      24.762  18.085   5.075  1.00  0.00     0.186 HD
HETATM   11  C   UNK N   1      23.446  16.854   4.090  0.00  0.00     0.680 A 
HETATM   12  N   UNK N   1      23.315  15.780   3.270  0.00  0.00    -0.190 N 
ATOM     13  HN  UNK N   1      22.382  15.499   2.964  1.00  0.00     0.184 HD
HETATM   14  N   UNK N   1      22.309  17.601   4.467  0.00  0.00    -0.217 N 
HETATM   15  H   UNK N   1      22.221  17.929   5.391  0.00  0.00     0.178 HD
ENDROOT
BRANCH  14  16
HETATM   16  C   UNK N   1      21.276  17.885   3.501  0.00  0.00     0.146 C 
BRANCH  16  17
HETATM   17  C   UNK N   1      21.249  19.377   3.193  0.00  0.00     0.192 C 
BRANCH  17  18
HETATM   18  O   UNK N   1      20.600  20.083   4.210  0.00  0.00    -0.399 OA
HETATM   19  H   UNK N   1      20.757  20.366   5.124  0.00  0.00     0.209 HD
ENDBRANCH  17  18
ENDBRANCH  16  17
BRANCH  16  20
HETATM   20  C   UNK N   1      19.915  17.391   3.957  0.00  0.00     0.192 C 
BRANCH  20  21
HETATM   21  O   UNK N   1      18.933  17.847   3.078  0.00  0.00    -0.399 OA
HETATM   22  H   UNK N   1      18.015  17.954   3.373  0.00  0.00     0.209 HD
ENDBRANCH  20  21
ENDBRANCH  16  20
ENDBRANCH  14  16
BRANCH   1  23
HETATM   23  C   UNK N   1      24.185  13.915   1.912  0.00  0.00    -0.002 A 
HETATM   24  C   UNK N   1      23.882  14.150   0.558  0.00  0.00     0.017 A 
HETATM   25  C   UNK N   1      23.616  13.093  -0.312  0.00  0.00     0.043 A 
HETATM   26  C   UNK N   1      23.633  11.783   0.159  0.00  0.00     0.117 A 
HETATM   27  C   UNK N   1      23.935  11.527   1.496  0.00  0.00     0.049 A 
HETATM   28  F   UNK N   1      23.331  10.759  -0.674  0.00  0.00    -0.206 F 
HETATM   29  C   UNK N   1      24.224  12.575   2.374  0.00  0.00    -0.047 A 
HETATM   30  C   UNK N   1      24.464  12.235   3.807  0.00  0.00     0.049 C 
ENDBRANCH   1  23
BRANCH   7  31
HETATM   31  C   UNK N   1      27.206  18.526   4.924  0.00  0.00     0.121 A 
HETATM   32  C   UNK N   1      26.911  19.756   4.276  0.00  0.00     0.146 A 
HETATM   33  C   UNK N   1      27.026  20.966   4.962  0.00  0.00     0.045 A 
HETATM   34  F   UNK N   1      26.553  19.800   2.970  0.00  0.00    -0.204 F 
HETATM   35  C   UNK N   1      27.428  20.992   6.293  0.00  0.00     0.006 A 
HETATM   36  C   UNK N   1      27.714  19.803   6.953  0.00  0.00     0.045 A 
HETATM   37  C   UNK N   1      27.609  18.578   6.290  0.00  0.00     0.146 A 
HETATM   38  F   UNK N   1      27.827  17.455   7.019  0.00  0.00    -0.204 F 
ENDBRANCH   7  31
TORSDOF 7
ENDMDL
MODEL 3
REMARK VINA RESULT:      -7.4      4.482      6.716
REMARK  7 active torsions:
REMARK  status: ('A' for Active; 'I' for Inactive)
REMARK    1  A    between atoms: C_7  and  C_8 
REMARK    2  A    between atoms: N_14  and  C_27 
REMARK       I    between atoms: C_18  and  N_21 
REMARK    3  A    between atoms: N_21  and  C_22 
REMARK    4  A    between atoms: C_22  and  C_23 
REMARK    5  A    between atoms: C_22  and  C_25 
REMARK    6  A    between atoms: C_23  and  O_24 
REMARK    7  A    between atoms: C_25  and  O_26 
ROOT
HETATM    1  C   UNK N   1      34.664  12.790  11.159  0.00  0.00     0.074 A 
HETATM    2  C   UNK N   1      34.722  14.161  10.820  0.00  0.00     0.037 A 
HETATM    3  C   UNK N   1      35.449  15.070  11.581  0.00  0.00     0.023 A 
HETATM    4  C   UNK N   1      35.602  16.371  11.156  0.00  0.00     0.076 A 
HETATM    5  C   UNK N   1      35.045  16.780   9.951  0.00  0.00     0.254 A 
HETATM    6  O   UNK N   1      35.297  17.906   9.562  0.00  0.00    -0.268 OA
HETATM    7  N   UNK N   1      34.286  15.900   9.177  0.00  0.00    -0.257 N 
HETATM    8  C   UNK N   1      34.114  14.597   9.618  0.00  0.00     0.143 A 
HETATM    9  N   UNK N   1      33.401  13.698   8.889  0.00  0.00    -0.175 N 
ATOM     10  HN  UNK N   1      32.886  14.021   8.069  1.00  0.00     0.186 HD
HETATM   11  C   UNK N   1      33.354  12.385   9.221  0.00  0.00     0.680 A 
HETATM   12  N   UNK N   1      34.012  11.941  10.322  0.00  0.00    -0.190 N 
ATOM     13  HN  UNK N   1      34.017  10.941  10.527  1.00  0.00     0.184 HD
HETATM   14  N   UNK N   1      32.735  11.467   8.345  0.00  0.00    -0.217 N 
HETATM   15  H   UNK N   1      31.854  11.675   7.958  0.00  0.00     0.178 HD
ENDROOT
BRANCH  14  16
HETATM   16  C   UNK N   1      33.390  10.223   8.017  0.00  0.00     0.146 C 
BRANCH  16  17
HETATM   17  C   UNK N   1      33.654  10.156   6.519  0.00  0.00     0.192 C 
BRANCH  17  18
HETATM   18  O   UNK N   1      32.472  10.337   5.796  0.00  0.00    -0.399 OA
HETATM   19  H   UNK N   1      31.513  10.308   5.937  0.00  0.00     0.209 HD
ENDBRANCH  17  18
ENDBRANCH  16  17
BRANCH  16  20
HETATM   20  C   UNK N   1      32.600   9.018   8.493  0.00  0.00     0.192 C 
BRANCH  20  21
HETATM   21  O   UNK N   1      31.241   9.329   8.517  0.00  0.00    -0.399 OA
HETATM   22  H   UNK N   1      30.631   8.846   9.097  0.00  0.00     0.209 HD
ENDBRANCH  20  21
ENDBRANCH  16  20
ENDBRANCH  14  16
BRANCH   1  23
HETATM   23  C   UNK N   1      35.401  12.236  12.337  0.00  0.00    -0.002 A 
HETATM   24  C   UNK N   1      34.765  12.148  13.589  0.00  0.00     0.017 A 
HETATM   25  C   UNK N   1      35.454  11.701  14.716  0.00  0.00     0.043 A 
HETATM   26  C   UNK N   1      36.798  11.349  14.615  0.00  0.00     0.117 A 
HETATM   27  C   UNK N   1      37.447  11.425  13.384  0.00  0.00     0.049 A 
HETATM   28  F   UNK N   1      37.480  10.959  15.718  0.00  0.00    -0.206 F 
HETATM   29  C   UNK N   1      36.763  11.851  12.242  0.00  0.00    -0.047 A 
HETATM   30  C   UNK N   1      37.539  11.980  10.974  0.00  0.00     0.049 C 
ENDBRANCH   1  23
BRANCH   7  31
HETATM   31  C   UNK N   1      33.757  16.344   7.878  0.00  0.00     0.121 A 
HETATM   32  C   UNK N   1      34.464  16.078   6.674  0.00  0.00     0.146 A 
HETATM   33  C   UNK N   1      33.943  16.477   5.442  0.00  0.00     0.045 A 
HETATM   34  F   UNK N   1      35.676  15.473   6.683  0.00  0.00    -0.204 F 
HETATM   35  C   UNK N   1      32.722  17.139   5.369  0.00  0.00     0.006 A 
HETATM   36  C   UNK N   1      32.006  17.403   6.531  0.00  0.00     0.045 A 
HETATM   37  C   UNK N   1      32.505  17.016   7.777  0.00  0.00     0.146 A 
HETATM   38  F   UNK N   1      31.716  17.236   8.858  0.00  0.00    -0.204 F 
ENDBRANCH   7  31
TORSDOF 7
ENDMDL
MODEL 4
REMARK VINA RESULT:      -7.2      3.560      5.807
REMARK  7 active torsions:
REMARK  status: ('A' for Active; 'I' for Inactive)
REMARK    1  A    between atoms: C_7  and  C_8 
REMARK    2  A    between atoms: N_14  and  C_27 
REMARK       I    between atoms: C_18  and  N_21 
REMARK    3  A    between atoms: N_21  and  C_22 
REMARK    4  A    between atoms: C_22  and  C_23 
REMARK    5  A    between atoms: C_22  and  C_25 
REMARK    6  A    between atoms: C_23  and  O_24 
REMARK    7  A    between atoms: C_25  and  O_26 
ROOT
HETATM    1  C   UNK N   1      30.037  16.012   4.561  0.00  0.00     0.074 A 
HETATM    2  C   UNK N   1      28.877  15.930   3.757  0.00  0.00     0.037 A 
HETATM    3  C   UNK N   1      28.823  15.108   2.637  0.00  0.00     0.023 A 
HETATM    4  C   UNK N   1      27.641  14.941   1.950  0.00  0.00     0.076 A 
HETATM    5  C   UNK N   1      26.487  15.582   2.385  0.00  0.00     0.254 A 
HETATM    6  O   UNK N   1      25.443  15.321   1.814  0.00  0.00    -0.268 OA
HETATM    7  N   UNK N   1      26.514  16.436   3.489  0.00  0.00    -0.257 N 
HETATM    8  C   UNK N   1      27.711  16.620   4.165  0.00  0.00     0.143 A 
HETATM    9  N   UNK N   1      27.781  17.425   5.259  0.00  0.00    -0.175 N 
ATOM     10  HN  UNK N   1      26.972  17.994   5.509  1.00  0.00     0.186 HD
HETATM   11  C   UNK N   1      28.897  17.493   6.024  0.00  0.00     0.680 A 
HETATM   12  N   UNK N   1      29.992  16.763   5.693  0.00  0.00    -0.190 N 
ATOM     13  HN  UNK N   1      30.805  16.779   6.310  1.00  0.00     0.184 HD
HETATM   14  N   UNK N   1      28.867  18.218   7.235  0.00  0.00    -0.217 N 
HETATM   15  H   UNK N   1      28.473  19.120   7.259  0.00  0.00     0.178 HD
ENDROOT
BRANCH  14  16
HETATM   16  C   UNK N   1      29.415  17.641   8.439  0.00  0.00     0.146 C 
BRANCH  16  17
HETATM   17  C   UNK N   1      28.287  17.218   9.370  0.00  0.00     0.192 C 
BRANCH  17  18
HETATM   18  O   UNK N   1      27.275  18.182   9.397  0.00  0.00    -0.399 OA
HETATM   19  H   UNK N   1      26.544  18.495   8.843  0.00  0.00     0.209 HD
ENDBRANCH  17  18
ENDBRANCH  16  17
BRANCH  16  20
HETATM   20  C   UNK N   1      30.382  18.580   9.135  0.00  0.00     0.192 C 
BRANCH  20  21
HETATM   21  O   UNK N   1      29.878  18.926  10.388  0.00  0.00    -0.399 OA
HETATM   22  H   UNK N   1      28.943  18.783  10.604  0.00  0.00     0.209 HD
ENDBRANCH  20  21
ENDBRANCH  16  20
ENDBRANCH  14  16
BRANCH   1  23
HETATM   23  C   UNK N   1      31.260  15.200   4.269  0.00  0.00    -0.002 A 
HETATM   24  C   UNK N   1      31.420  13.932   4.856  0.00  0.00     0.017 A 
HETATM   25  C   UNK N   1      32.583  13.188   4.655  0.00  0.00     0.043 A 
HETATM   26  C   UNK N   1      33.614  13.707   3.875  0.00  0.00     0.117 A 
HETATM   27  C   UNK N   1      33.475  14.961   3.280  0.00  0.00     0.049 A 
HETATM   28  F   UNK N   1      34.761  13.006   3.716  0.00  0.00    -0.206 F 
HETATM   29  C   UNK N   1      32.306  15.707   3.457  0.00  0.00    -0.047 A 
HETATM   30  C   UNK N   1      32.256  17.072   2.855  0.00  0.00     0.049 C 
ENDBRANCH   1  23
BRANCH   7  31
HETATM   31  C   UNK N   1      25.266  17.054   3.961  0.00  0.00     0.121 A 
HETATM   32  C   UNK N   1      24.400  16.362   4.850  0.00  0.00     0.146 A 
HETATM   33  C   UNK N   1      23.231  16.965   5.317  0.00  0.00     0.045 A 
HETATM   34  F   UNK N   1      24.654  15.089   5.239  0.00  0.00    -0.204 F 
HETATM   35  C   UNK N   1      22.893  18.256   4.923  0.00  0.00     0.006 A 
HETATM   36  C   UNK N   1      23.727  18.958   4.061  0.00  0.00     0.045 A 
HETATM   37  C   UNK N   1      24.902  18.378   3.579  0.00  0.00     0.146 A 
HETATM   38  F   UNK N   1      25.706  19.150   2.806  0.00  0.00    -0.204 F 
ENDBRANCH   7  31
TORSDOF 7
ENDMDL
MODEL 5
REMARK VINA RESULT:      -7.0      6.931     10.470
REMARK  7 active torsions:
REMARK  status: ('A' for Active; 'I' for Inactive)
REMARK    1  A    between atoms: C_7  and  C_8 
REMARK    2  A    between atoms: N_14  and  C_27 
REMARK       I    between atoms: C_18  and  N_21 
REMARK    3  A    between atoms: N_21  and  C_22 
REMARK    4  A    between atoms: C_22  and  C_23 
REMARK    5  A    between atoms: C_22  and  C_25 
REMARK    6  A    between atoms: C_23  and  O_24 
REMARK    7  A    between atoms: C_25  and  O_26 
ROOT
HETATM    1  C   UNK N   1      36.609  13.476  13.142  0.00  0.00     0.074 A 
HETATM    2  C   UNK N   1      37.209  12.292  12.654  0.00  0.00     0.037 A 
HETATM    3  C   UNK N   1      37.458  11.205  13.484  0.00  0.00     0.023 A 
HETATM    4  C   UNK N   1      37.917  10.017  12.960  0.00  0.00     0.076 A 
HETATM    5  C   UNK N   1      38.116   9.892  11.590  0.00  0.00     0.254 A 
HETATM    6  O   UNK N   1      38.417   8.794  11.158  0.00  0.00    -0.268 OA
HETATM    7  N   UNK N   1      37.903  10.973  10.733  0.00  0.00    -0.257 N 
HETATM    8  C   UNK N   1      37.463  12.175  11.266  0.00  0.00     0.143 A 
HETATM    9  N   UNK N   1      37.221  13.249  10.468  0.00  0.00    -0.175 N 
ATOM     10  HN  UNK N   1      37.482  13.204   9.483  1.00  0.00     0.186 HD
HETATM   11  C   UNK N   1      36.642  14.377  10.946  0.00  0.00     0.680 A 
HETATM   12  N   UNK N   1      36.309  14.465  12.259  0.00  0.00    -0.190 N 
ATOM     13  HN  UNK N   1      35.821  15.297  12.593  1.00  0.00     0.184 HD
HETATM   14  N   UNK N   1      36.266  15.400  10.049  0.00  0.00    -0.217 N 
HETATM   15  H   UNK N   1      36.893  15.698   9.351  0.00  0.00     0.178 HD
ENDROOT
BRANCH  14  16
HETATM   16  C   UNK N   1      34.962  16.011  10.152  0.00  0.00     0.146 C 
BRANCH  16  17
HETATM   17  C   UNK N   1      33.880  14.943  10.069  0.00  0.00     0.192 C 
BRANCH  17  18
HETATM   18  O   UNK N   1      33.215  14.811  11.291  0.00  0.00    -0.399 OA
HETATM   19  H   UNK N   1      33.213  14.231  12.068  0.00  0.00     0.209 HD
ENDBRANCH  17  18
ENDBRANCH  16  17
BRANCH  16  20
HETATM   20  C   UNK N   1      34.753  17.092   9.107  0.00  0.00     0.192 C 
BRANCH  20  21
HETATM   21  O   UNK N   1      35.440  18.245   9.483  0.00  0.00    -0.399 OA
HETATM   22  H   UNK N   1      36.061  18.232  10.228  0.00  0.00     0.209 HD
ENDBRANCH  20  21
ENDBRANCH  16  20
ENDBRANCH  14  16
BRANCH   1  23
HETATM   23  C   UNK N   1      36.184  13.615  14.570  0.00  0.00    -0.002 A 
HETATM   24  C   UNK N   1      36.929  14.420  15.451  0.00  0.00     0.017 A 
HETATM   25  C   UNK N   1      36.594  14.508  16.802  0.00  0.00     0.043 A 
HETATM   26  C   UNK N   1      35.516  13.779  17.300  0.00  0.00     0.117 A 
HETATM   27  C   UNK N   1      34.762  12.977  16.444  0.00  0.00     0.049 A 
HETATM   28  F   UNK N   1      35.217  13.829  18.620  0.00  0.00    -0.206 F 
HETATM   29  C   UNK N   1      35.074  12.897  15.084  0.00  0.00    -0.047 A 
HETATM   30  C   UNK N   1      34.273  11.961  14.241  0.00  0.00     0.049 C 
ENDBRANCH   1  23
BRANCH   7  31
HETATM   31  C   UNK N   1      38.066  10.794   9.282  0.00  0.00     0.121 A 
HETATM   32  C   UNK N   1      36.995  10.315   8.481  0.00  0.00     0.146 A 
HETATM   33  C   UNK N   1      37.147  10.174   7.100  0.00  0.00     0.045 A 
HETATM   34  F   UNK N   1      35.814   9.940   9.029  0.00  0.00    -0.204 F 
HETATM   35  C   UNK N   1      38.349  10.503   6.483  0.00  0.00     0.006 A 
HETATM   36  C   UNK N   1      39.410  10.983   7.242  0.00  0.00     0.045 A 
HETATM   37  C   UNK N   1      39.285  11.133   8.625  0.00  0.00     0.146 A 
HETATM   38  F   UNK N   1      40.333  11.680   9.289  0.00  0.00    -0.204 F 
ENDBRANCH   7  31
TORSDOF 7
ENDMDL
MODEL 6
REMARK VINA RESULT:      -6.9      5.839      9.822
REMARK  7 active torsions:
REMARK  status: ('A' for Active; 'I' for Inactive)
REMARK    1  A    between atoms: C_7  and  C_8 
REMARK    2  A    between atoms: N_14  and  C_27 
REMARK       I    between atoms: C_18  and  N_21 
REMARK    3  A    between atoms: N_21  and  C_22 
REMARK    4  A    between atoms: C_22  and  C_23 
REMARK    5  A    between atoms: C_22  and  C_25 
REMARK    6  A    between atoms: C_23  and  O_24 
REMARK    7  A    between atoms: C_25  and  O_26 
ROOT
HETATM    1  C   UNK N   1      24.357  16.724   4.821  0.00  0.00     0.074 A 
HETATM    2  C   UNK N   1      24.191  16.066   3.581  0.00  0.00     0.037 A 
HETATM    3  C   UNK N   1      25.279  15.701   2.796  0.00  0.00     0.023 A 
HETATM    4  C   UNK N   1      25.099  14.943   1.661  0.00  0.00     0.076 A 
HETATM    5  C   UNK N   1      23.825  14.521   1.301  0.00  0.00     0.254 A 
HETATM    6  O   UNK N   1      23.725  13.763   0.353  0.00  0.00    -0.268 OA
HETATM    7  N   UNK N   1      22.708  14.894   2.051  0.00  0.00    -0.257 N 
HETATM    8  C   UNK N   1      22.890  15.677   3.181  0.00  0.00     0.143 A 
HETATM    9  N   UNK N   1      21.835  16.047   3.955  0.00  0.00    -0.175 N 
ATOM     10  HN  UNK N   1      20.888  15.847   3.631  1.00  0.00     0.186 HD
HETATM   11  C   UNK N   1      22.006  16.674   5.144  0.00  0.00     0.680 A 
HETATM   12  N   UNK N   1      23.257  16.970   5.580  0.00  0.00    -0.190 N 
ATOM     13  HN  UNK N   1      23.375  17.389   6.503  1.00  0.00     0.184 HD
HETATM   14  N   UNK N   1      20.892  16.893   5.982  0.00  0.00    -0.217 N 
HETATM   15  H   UNK N   1      20.058  17.258   5.606  0.00  0.00     0.178 HD
ENDROOT
BRANCH  14  16
HETATM   16  C   UNK N   1      20.972  16.584   7.390  0.00  0.00     0.146 C 
BRANCH  16  17
HETATM   17  C   UNK N   1      20.556  15.138   7.627  0.00  0.00     0.192 C 
BRANCH  17  18
HETATM   18  O   UNK N   1      19.630  15.052   8.670  0.00  0.00    -0.399 OA
HETATM   19  H   UNK N   1      18.762  14.658   8.851  0.00  0.00     0.209 HD
ENDBRANCH  17  18
ENDBRANCH  16  17
BRANCH  16  20
HETATM   20  C   UNK N   1      20.149  17.541   8.233  0.00  0.00     0.192 C 
BRANCH  20  21
HETATM   21  O   UNK N   1      20.516  18.854   7.943  0.00  0.00    -0.399 OA
HETATM   22  H   UNK N   1      21.178  19.315   8.483  0.00  0.00     0.209 HD
ENDBRANCH  20  21
ENDBRANCH  16  20
ENDBRANCH  14  16
BRANCH   1  23
HETATM   23  C   UNK N   1      25.713  17.039   5.372  0.00  0.00    -0.002 A 
HETATM   24  C   UNK N   1      26.352  18.243   5.023  0.00  0.00     0.017 A 
HETATM   25  C   UNK N   1      27.644  18.526   5.466  0.00  0.00     0.043 A 
HETATM   26  C   UNK N   1      28.326  17.602   6.255  0.00  0.00     0.117 A 
HETATM   27  C   UNK N   1      27.710  16.404   6.616  0.00  0.00     0.049 A 
HETATM   28  F   UNK N   1      29.596  17.856   6.649  0.00  0.00    -0.206 F 
HETATM   29  C   UNK N   1      26.408  16.118   6.195  0.00  0.00    -0.047 A 
HETATM   30  C   UNK N   1      25.840  14.786   6.555  0.00  0.00     0.049 C 
ENDBRANCH   1  23
BRANCH   7  31
HETATM   31  C   UNK N   1      21.380  14.385   1.679  0.00  0.00     0.121 A 
HETATM   32  C   UNK N   1      20.472  15.189   0.939  0.00  0.00     0.146 A 
HETATM   33  C   UNK N   1      19.222  14.690   0.565  0.00  0.00     0.045 A 
HETATM   34  F   UNK N   1      20.765  16.470   0.610  0.00  0.00    -0.204 F 
HETATM   35  C   UNK N   1      18.845  13.396   0.906  0.00  0.00     0.006 A 
HETATM   36  C   UNK N   1      19.717  12.585   1.622  0.00  0.00     0.045 A 
HETATM   37  C   UNK N   1      20.972  13.060   2.010  0.00  0.00     0.146 A 
HETATM   38  F   UNK N   1      21.801  12.188   2.637  0.00  0.00    -0.204 F 
ENDBRANCH   7  31
TORSDOF 7
ENDMDL
MODEL 7
REMARK VINA RESULT:      -6.9     13.025     14.940
REMARK  7 active torsions:
REMARK  status: ('A' for Active; 'I' for Inactive)
REMARK    1  A    between atoms: C_7  and  C_8 
REMARK    2  A    between atoms: N_14  and  C_27 
REMARK       I    between atoms: C_18  and  N_21 
REMARK    3  A    between atoms: N_21  and  C_22 
REMARK    4  A    between atoms: C_22  and  C_23 
REMARK    5  A    between atoms: C_22  and  C_25 
REMARK    6  A    between atoms: C_23  and  O_24 
REMARK    7  A    between atoms: C_25  and  O_26 
ROOT
HETATM    1  C   UNK N   1      29.644  22.561  -5.556  0.00  0.00     0.074 A 
HETATM    2  C   UNK N   1      29.814  23.767  -4.838  0.00  0.00     0.037 A 
HETATM    3  C   UNK N   1      31.026  24.094  -4.239  0.00  0.00     0.023 A 
HETATM    4  C   UNK N   1      31.209  25.332  -3.664  0.00  0.00     0.076 A 
HETATM    5  C   UNK N   1      30.186  26.272  -3.695  0.00  0.00     0.254 A 
HETATM    6  O   UNK N   1      30.427  27.388  -3.273  0.00  0.00    -0.268 OA
HETATM    7  N   UNK N   1      28.948  25.965  -4.264  0.00  0.00    -0.257 N 
HETATM    8  C   UNK N   1      28.759  24.710  -4.822  0.00  0.00     0.143 A 
HETATM    9  N   UNK N   1      27.578  24.373  -5.407  0.00  0.00    -0.175 N 
ATOM     10  HN  UNK N   1      26.785  25.009  -5.324  1.00  0.00     0.186 HD
HETATM   11  C   UNK N   1      27.427  23.215  -6.095  0.00  0.00     0.680 A 
HETATM   12  N   UNK N   1      28.464  22.345  -6.194  0.00  0.00    -0.190 N 
ATOM     13  HN  UNK N   1      28.354  21.505  -6.764  1.00  0.00     0.184 HD
HETATM   14  N   UNK N   1      26.235  22.985  -6.816  0.00  0.00    -0.217 N 
HETATM   15  H   UNK N   1      25.363  23.161  -6.394  0.00  0.00     0.178 HD
ENDROOT
BRANCH  14  16
HETATM   16  C   UNK N   1      26.293  22.494  -8.172  0.00  0.00     0.146 C 
BRANCH  16  17
HETATM   17  C   UNK N   1      26.174  23.655  -9.150  0.00  0.00     0.192 C 
BRANCH  17  18
HETATM   18  O   UNK N   1      25.503  23.260 -10.311  0.00  0.00    -0.399 OA
HETATM   19  H   UNK N   1      24.657  23.413 -10.759  0.00  0.00     0.209 HD
ENDBRANCH  17  18
ENDBRANCH  16  17
BRANCH  16  20
HETATM   20  C   UNK N   1      25.240  21.435  -8.441  0.00  0.00     0.192 C 
BRANCH  20  21
HETATM   21  O   UNK N   1      23.974  21.956  -8.178  0.00  0.00    -0.399 OA
HETATM   22  H   UNK N   1      23.686  22.122  -7.266  0.00  0.00     0.209 HD
ENDBRANCH  20  21
ENDBRANCH  16  20
ENDBRANCH  14  16
BRANCH   1  23
HETATM   23  C   UNK N   1      30.762  21.582  -5.733  0.00  0.00    -0.002 A 
HETATM   24  C   UNK N   1      31.025  20.624  -4.737  0.00  0.00     0.017 A 
HETATM   25  C   UNK N   1      32.105  19.750  -4.848  0.00  0.00     0.043 A 
HETATM   26  C   UNK N   1      32.953  19.827  -5.950  0.00  0.00     0.117 A 
HETATM   27  C   UNK N   1      32.709  20.767  -6.952  0.00  0.00     0.049 A 
HETATM   28  F   UNK N   1      34.028  19.009  -6.037  0.00  0.00    -0.206 F 
HETATM   29  C   UNK N   1      31.617  21.635  -6.863  0.00  0.00    -0.047 A 
HETATM   30  C   UNK N   1      31.461  22.665  -7.932  0.00  0.00     0.049 C 
ENDBRANCH   1  23
BRANCH   7  31
HETATM   31  C   UNK N   1      27.904  26.998  -4.335  0.00  0.00     0.121 A 
HETATM   32  C   UNK N   1      26.763  26.941  -3.490  0.00  0.00     0.146 A 
HETATM   33  C   UNK N   1      25.789  27.940  -3.543  0.00  0.00     0.045 A 
HETATM   34  F   UNK N   1      26.560  25.903  -2.643  0.00  0.00    -0.204 F 
HETATM   35  C   UNK N   1      25.919  29.012  -4.420  0.00  0.00     0.006 A 
HETATM   36  C   UNK N   1      27.030  29.096  -5.250  0.00  0.00     0.045 A 
HETATM   37  C   UNK N   1      28.018  28.110  -5.219  0.00  0.00     0.146 A 
HETATM   38  F   UNK N   1      29.111  28.300  -6.000  0.00  0.00    -0.204 F 
ENDBRANCH   7  31
TORSDOF 7
ENDMDL
MODEL 8
REMARK VINA RESULT:      -6.7      4.981      7.378
REMARK  7 active torsions:
REMARK  status: ('A' for Active; 'I' for Inactive)
REMARK    1  A    between atoms: C_7  and  C_8 
REMARK    2  A    between atoms: N_14  and  C_27 
REMARK       I    between atoms: C_18  and  N_21 
REMARK    3  A    between atoms: N_21  and  C_22 
REMARK    4  A    between atoms: C_22  and  C_23 
REMARK    5  A    between atoms: C_22  and  C_25 
REMARK    6  A    between atoms: C_23  and  O_24 
REMARK    7  A    between atoms: C_25  and  O_26 
ROOT
HETATM    1  C   UNK N   1      34.902  12.048  11.613  0.00  0.00     0.074 A 
HETATM    2  C   UNK N   1      34.938  13.433  11.334  0.00  0.00     0.037 A 
HETATM    3  C   UNK N   1      35.768  14.298  12.037  0.00  0.00     0.023 A 
HETATM    4  C   UNK N   1      35.886  15.617  11.658  0.00  0.00     0.076 A 
HETATM    5  C   UNK N   1      35.186  16.087  10.553  0.00  0.00     0.254 A 
HETATM    6  O   UNK N   1      35.403  17.229  10.187  0.00  0.00    -0.268 OA
HETATM    7  N   UNK N   1      34.323  15.252   9.842  0.00  0.00    -0.257 N 
HETATM    8  C   UNK N   1      34.188  13.931  10.241  0.00  0.00     0.143 A 
HETATM    9  N   UNK N   1      33.376  13.074   9.567  0.00  0.00    -0.175 N 
ATOM     10  HN  UNK N   1      32.766  13.440   8.835  1.00  0.00     0.186 HD
HETATM   11  C   UNK N   1      33.352  11.747   9.841  0.00  0.00     0.680 A 
HETATM   12  N   UNK N   1      34.138  11.245  10.828  0.00  0.00    -0.190 N 
ATOM     13  HN  UNK N   1      34.154  10.236  10.984  1.00  0.00     0.184 HD
HETATM   14  N   UNK N   1      32.614  10.877   9.010  0.00  0.00    -0.217 N 
HETATM   15  H   UNK N   1      31.694  11.111   8.747  0.00  0.00     0.178 HD
ENDROOT
BRANCH  14  16
HETATM   16  C   UNK N   1      33.204   9.645   8.544  0.00  0.00     0.146 C 
BRANCH  16  17
HETATM   17  C   UNK N   1      34.062   9.914   7.315  0.00  0.00     0.192 C 
BRANCH  17  18
HETATM   18  O   UNK N   1      35.242   9.166   7.358  0.00  0.00    -0.399 OA
HETATM   19  H   UNK N   1      35.531   8.244   7.277  0.00  0.00     0.209 HD
ENDBRANCH  17  18
ENDBRANCH  16  17
BRANCH  16  20
HETATM   20  C   UNK N   1      32.159   8.580   8.266  0.00  0.00     0.192 C 
BRANCH  20  21
HETATM   21  O   UNK N   1      30.888   9.151   8.306  0.00  0.00    -0.399 OA
HETATM   22  H   UNK N   1      30.172   8.732   8.810  0.00  0.00     0.209 HD
ENDBRANCH  20  21
ENDBRANCH  16  20
ENDBRANCH  14  16
BRANCH   1  23
HETATM   23  C   UNK N   1      35.774  11.431  12.662  0.00  0.00    -0.002 A 
HETATM   24  C   UNK N   1      37.128  11.167  12.386  0.00  0.00     0.017 A 
HETATM   25  C   UNK N   1      37.941  10.528  13.321  0.00  0.00     0.043 A 
HETATM   26  C   UNK N   1      37.411  10.128  14.545  0.00  0.00     0.117 A 
HETATM   27  C   UNK N   1      36.073  10.383  14.842  0.00  0.00     0.049 A 
HETATM   28  F   UNK N   1      38.188   9.467  15.436  0.00  0.00    -0.206 F 
HETATM   29  C   UNK N   1      35.252  11.041  13.921  0.00  0.00    -0.047 A 
HETATM   30  C   UNK N   1      33.812  11.213  14.273  0.00  0.00     0.049 C 
ENDBRANCH   1  23
BRANCH   7  31
HETATM   31  C   UNK N   1      33.640  15.762   8.643  0.00  0.00     0.121 A 
HETATM   32  C   UNK N   1      32.272  16.142   8.689  0.00  0.00     0.146 A 
HETATM   33  C   UNK N   1      31.637  16.652   7.555  0.00  0.00     0.045 A 
HETATM   34  F   UNK N   1      31.530  15.985   9.812  0.00  0.00    -0.204 F 
HETATM   35  C   UNK N   1      32.333  16.800   6.359  0.00  0.00     0.006 A 
HETATM   36  C   UNK N   1      33.674  16.444   6.290  0.00  0.00     0.045 A 
HETATM   37  C   UNK N   1      34.333  15.930   7.409  0.00  0.00     0.146 A 
HETATM   38  F   UNK N   1      35.661  15.679   7.289  0.00  0.00    -0.204 F 
ENDBRANCH   7  31
TORSDOF 7
ENDMDL
MODEL 9
REMARK VINA RESULT:      -6.7      5.789      9.606
REMARK  7 active torsions:
REMARK  status: ('A' for Active; 'I' for Inactive)
REMARK    1  A    between atoms: C_7  and  C_8 
REMARK    2  A    between atoms: N_14  and  C_27 
REMARK       I    between atoms: C_18  and  N_21 
REMARK    3  A    between atoms: N_21  and  C_22 
REMARK    4  A    between atoms: C_22  and  C_23 
REMARK    5  A    between atoms: C_22  and  C_25 
REMARK    6  A    between atoms: C_23  and  O_24 
REMARK    7  A    between atoms: C_25  and  O_26 
ROOT
HETATM    1  C   UNK N   1      24.489  16.663   4.826  0.00  0.00     0.074 A 
HETATM    2  C   UNK N   1      24.312  16.036   3.571  0.00  0.00     0.037 A 
HETATM    3  C   UNK N   1      25.390  15.751   2.740  0.00  0.00     0.023 A 
HETATM    4  C   UNK N   1      25.208  15.021   1.587  0.00  0.00     0.076 A 
HETATM    5  C   UNK N   1      23.945  14.546   1.256  0.00  0.00     0.254 A 
HETATM    6  O   UNK N   1      23.849  13.814   0.288  0.00  0.00    -0.268 OA
HETATM    7  N   UNK N   1      22.837  14.838   2.054  0.00  0.00    -0.257 N 
HETATM    8  C   UNK N   1      23.019  15.594   3.202  0.00  0.00     0.143 A 
HETATM    9  N   UNK N   1      21.974  15.886   4.022  0.00  0.00    -0.175 N 
ATOM     10  HN  UNK N   1      21.028  15.650   3.723  1.00  0.00     0.186 HD
HETATM   11  C   UNK N   1      22.156  16.484   5.225  0.00  0.00     0.680 A 
HETATM   12  N   UNK N   1      23.405  16.829   5.628  0.00  0.00    -0.190 N 
ATOM     13  HN  UNK N   1      23.533  17.225   6.560  1.00  0.00     0.184 HD
HETATM   14  N   UNK N   1      21.061  16.621   6.106  0.00  0.00    -0.217 N 
HETATM   15  H   UNK N   1      20.198  16.955   5.770  0.00  0.00     0.178 HD
ENDROOT
BRANCH  14  16
HETATM   16  C   UNK N   1      21.205  16.273   7.499  0.00  0.00     0.146 C 
BRANCH  16  17
HETATM   17  C   UNK N   1      21.290  14.760   7.649  0.00  0.00     0.192 C 
BRANCH  17  18
HETATM   18  O   UNK N   1      21.597  14.407   8.966  0.00  0.00    -0.399 OA
HETATM   19  H   UNK N   1      21.945  14.815   9.774  0.00  0.00     0.209 HD
ENDBRANCH  17  18
ENDBRANCH  16  17
BRANCH  16  20
HETATM   20  C   UNK N   1      20.090  16.850   8.351  0.00  0.00     0.192 C 
BRANCH  20  21
HETATM   21  O   UNK N   1      19.111  15.880   8.561  0.00  0.00    -0.399 OA
HETATM   22  H   UNK N   1      18.433  15.999   9.245  0.00  0.00     0.209 HD
ENDBRANCH  20  21
ENDBRANCH  16  20
ENDBRANCH  14  16
BRANCH   1  23
HETATM   23  C   UNK N   1      25.845  17.030   5.342  0.00  0.00    -0.002 A 
HETATM   24  C   UNK N   1      26.550  16.135   6.168  0.00  0.00     0.017 A 
HETATM   25  C   UNK N   1      27.783  16.484   6.718  0.00  0.00     0.043 A 
HETATM   26  C   UNK N   1      28.327  17.741   6.464  0.00  0.00     0.117 A 
HETATM   27  C   UNK N   1      27.647  18.642   5.645  0.00  0.00     0.049 A 
HETATM   28  F   UNK N   1      29.502  18.098   7.034  0.00  0.00    -0.206 F 
HETATM   29  C   UNK N   1      26.420  18.297   5.071  0.00  0.00    -0.047 A 
HETATM   30  C   UNK N   1      25.713  19.337   4.268  0.00  0.00     0.049 C 
ENDBRANCH   1  23
BRANCH   7  31
HETATM   31  C   UNK N   1      21.523  14.274   1.710  0.00  0.00     0.121 A 
HETATM   32  C   UNK N   1      21.163  12.962   2.120  0.00  0.00     0.146 A 
HETATM   33  C   UNK N   1      19.904  12.443   1.814  0.00  0.00     0.045 A 
HETATM   34  F   UNK N   1      22.035  12.161   2.778  0.00  0.00    -0.204 F 
HETATM   35  C   UNK N   1      18.977  13.201   1.106  0.00  0.00     0.006 A 
HETATM   36  C   UNK N   1      19.301  14.490   0.701  0.00  0.00     0.045 A 
HETATM   37  C   UNK N   1      20.554  15.034   0.992  0.00  0.00     0.146 A 
HETATM   38  F   UNK N   1      20.771  16.324   0.635  0.00  0.00    -0.204 F 
ENDBRANCH   7  31
TORSDOF 7
ENDMDL
