MODEL 1
REMARK VINA RESULT:      -7.3      0.000      0.000
REMARK  7 active torsions:
REMARK  status: ('A' for Active; 'I' for Inactive)
REMARK    1  A    between atoms: N_2  and  C_4 
REMARK    2  A    between atoms: C_4  and  C_5 
REMARK    3  A    between atoms: C_5  and  C_6 
REMARK    4  A    between atoms: C_6  and  O_7 
REMARK    5  A    between atoms: O_7  and  C_8 
REMARK    6  A    between atoms: C_14  and  S_18 
REMARK    7  A    between atoms: S_18  and  C_21 
ROOT
HETATM    1  C   UNK N   1      34.737  12.959  10.081  0.00  0.00     0.069 A 
HETATM    2  C   UNK N   1      34.985  13.232  11.446  0.00  0.00     0.039 A 
HETATM    3  C   UNK N   1      35.150  14.554  11.895  0.00  0.00     0.034 A 
HETATM    4  C   UNK N   1      35.043  15.567  10.954  0.00  0.00     0.061 A 
HETATM    5  C   UNK N   1      34.766  15.321   9.641  0.00  0.00     0.035 A 
HETATM    6  C   UNK N   1      34.609  14.024   9.155  0.00  0.00     0.053 A 
HETATM    7  C   UNK N   1      34.654  16.560   9.057  0.00  0.00     0.161 A 
HETATM    8  N   UNK N   1      34.881  17.501  10.005  0.00  0.00    -0.289 N 
ATOM      9  HN  UNK N   1      34.867  18.510   9.858  1.00  0.00     0.188 HD
HETATM   10  N   UNK N   1      35.125  16.893  11.161  0.00  0.00    -0.299 N 
HETATM   11  H   UNK N   1      35.330  17.335  12.017  0.00  0.00     0.187 HD
ENDROOT
BRANCH   7  12
HETATM   12  S   UNK N   1      34.054  16.935   7.405  0.00  0.00     0.225 S 
HETATM   13  O   UNK N   1      34.675  18.331   7.254  0.00  0.00    -0.216 OA
HETATM   14  O   UNK N   1      35.088  16.271   6.484  0.00  0.00    -0.216 OA
BRANCH  12  15
HETATM   15  C   UNK N   1      32.557  17.207   6.414  0.00  0.00     0.076 A 
HETATM   16  C   UNK N   1      32.687  17.215   5.020  0.00  0.00     0.025 A 
HETATM   17  C   UNK N   1      31.564  17.311   4.194  0.00  0.00     0.002 A 
HETATM   18  C   UNK N   1      30.287  17.380   4.752  0.00  0.00     0.012 A 
HETATM   19  C   UNK N   1      30.126  17.375   6.136  0.00  0.00    -0.025 A 
HETATM   20  C   UNK N   1      31.261  17.296   6.985  0.00  0.00    -0.004 A 
HETATM   21  C   UNK N   1      28.840  17.426   6.684  0.00  0.00     0.012 A 
HETATM   22  C   UNK N   1      31.064  17.282   8.375  0.00  0.00     0.014 A 
HETATM   23  C   UNK N   1      29.776  17.341   8.913  0.00  0.00     0.001 A 
HETATM   24  C   UNK N   1      28.666  17.408   8.069  0.00  0.00     0.001 A 
ENDBRANCH  12  15
ENDBRANCH   7  12
BRANCH   1  25
HETATM   25  O   UNK N   1      34.659  11.670   9.690  0.00  0.00    -0.351 OA
BRANCH  25  26
HETATM   26  C   UNK N   1      35.647  10.747   9.942  0.00  0.00     0.177 C 
BRANCH  26  27
HETATM   27  C   UNK N   1      36.768  10.906   8.909  0.00  0.00     0.057 C 
BRANCH  27  28
HETATM   28  C   UNK N   1      38.103  11.309   9.547  0.00  0.00     0.273 C 
BRANCH  28  29
HETATM   29  N   UNK N   1      38.644  12.513   8.930  0.00  0.00     0.080 N 
HETATM   30  C   UNK N   1      38.480  13.596   9.883  0.00  0.00     0.309 C 
HETATM   31  C   UNK N   1      37.824  12.836   7.774  0.00  0.00     0.309 C 
ENDBRANCH  28  29
ENDBRANCH  27  28
ENDBRANCH  26  27
ENDBRANCH  25  26
ENDBRANCH   1  25
TORSDOF 7
ENDMDL
MODEL 2
REMARK VINA RESULT:      -7.2      1.755      2.519
REMARK  7 active torsions:
REMARK  status: ('A' for Active; 'I' for Inactive)
REMARK    1  A    between atoms: N_2  and  C_4 
REMARK    2  A    between atoms: C_4  and  C_5 
REMARK    3  A    between atoms: C_5  and  C_6 
REMARK    4  A    between atoms: C_6  and  O_7 
REMARK    5  A    between atoms: O_7  and  C_8 
REMARK    6  A    between atoms: C_14  and  S_18 
REMARK    7  A    between atoms: S_18  and  C_21 
ROOT
HETATM    1  C   UNK N   1      34.546  13.069  10.203  0.00  0.00     0.069 A 
HETATM    2  C   UNK N   1      34.891  13.408  11.532  0.00  0.00     0.039 A 
HETATM    3  C   UNK N   1      35.173  14.739  11.884  0.00  0.00     0.034 A 
HETATM    4  C   UNK N   1      35.082  15.697  10.884  0.00  0.00     0.061 A 
HETATM    5  C   UNK N   1      34.712  15.391   9.607  0.00  0.00     0.035 A 
HETATM    6  C   UNK N   1      34.439  14.081   9.217  0.00  0.00     0.053 A 
HETATM    7  C   UNK N   1      34.653  16.596   8.949  0.00  0.00     0.161 A 
HETATM    8  N   UNK N   1      34.999  17.575   9.819  0.00  0.00    -0.289 N 
ATOM      9  HN  UNK N   1      35.046  18.571   9.606  1.00  0.00     0.188 HD
HETATM   10  N   UNK N   1      35.267  17.024  10.998  0.00  0.00    -0.299 N 
HETATM   11  H   UNK N   1      35.551  17.503  11.811  0.00  0.00     0.187 HD
ENDROOT
BRANCH   7  12
HETATM   12  S   UNK N   1      33.986  16.910   7.310  0.00  0.00     0.225 S 
HETATM   13  O   UNK N   1      34.621  18.286   7.070  0.00  0.00    -0.216 OA
HETATM   14  O   UNK N   1      34.966  16.188   6.375  0.00  0.00    -0.216 OA
BRANCH  12  15
HETATM   15  C   UNK N   1      32.450  17.165   6.376  0.00  0.00     0.076 A 
HETATM   16  C   UNK N   1      32.524  17.144   4.977  0.00  0.00     0.025 A 
HETATM   17  C   UNK N   1      31.368  17.226   4.196  0.00  0.00     0.002 A 
HETATM   18  C   UNK N   1      30.115  17.311   4.803  0.00  0.00     0.012 A 
HETATM   19  C   UNK N   1      30.010  17.335   6.193  0.00  0.00    -0.025 A 
HETATM   20  C   UNK N   1      31.178  17.270   6.997  0.00  0.00    -0.004 A 
HETATM   21  C   UNK N   1      28.747  17.401   6.791  0.00  0.00     0.012 A 
HETATM   22  C   UNK N   1      31.038  17.286   8.393  0.00  0.00     0.014 A 
HETATM   23  C   UNK N   1      29.773  17.361   8.982  0.00  0.00     0.001 A 
HETATM   24  C   UNK N   1      28.630  17.414   8.182  0.00  0.00     0.001 A 
ENDBRANCH  12  15
ENDBRANCH   7  12
BRANCH   1  25
HETATM   25  O   UNK N   1      34.357  11.768   9.904  0.00  0.00    -0.351 OA
BRANCH  25  26
HETATM   26  C   UNK N   1      34.847  10.740  10.675  0.00  0.00     0.177 C 
BRANCH  26  27
HETATM   27  C   UNK N   1      33.694  10.083  11.440  0.00  0.00     0.057 C 
BRANCH  27  28
HETATM   28  C   UNK N   1      33.883  10.149  12.961  0.00  0.00     0.273 C 
BRANCH  28  29
HETATM   29  N   UNK N   1      35.295  10.166  13.319  0.00  0.00     0.080 N 
HETATM   30  C   UNK N   1      35.621   8.855  13.851  0.00  0.00     0.309 C 
HETATM   31  C   UNK N   1      35.476  11.120  14.400  0.00  0.00     0.309 C 
ENDBRANCH  28  29
ENDBRANCH  27  28
ENDBRANCH  26  27
ENDBRANCH  25  26
ENDBRANCH   1  25
TORSDOF 7
ENDMDL
MODEL 3
REMARK VINA RESULT:      -7.1      2.141      2.970
REMARK  7 active torsions:
REMARK  status: ('A' for Active; 'I' for Inactive)
REMARK    1  A    between atoms: N_2  and  C_4 
REMARK    2  A    between atoms: C_4  and  C_5 
REMARK    3  A    between atoms: C_5  and  C_6 
REMARK    4  A    between atoms: C_6  and  O_7 
REMARK    5  A    between atoms: O_7  and  C_8 
REMARK    6  A    between atoms: C_14  and  S_18 
REMARK    7  A    between atoms: S_18  and  C_21 
ROOT
HETATM    1  C   UNK N   1      34.566  12.989  10.137  0.00  0.00     0.069 A 
HETATM    2  C   UNK N   1      34.882  13.289  11.481  0.00  0.00     0.039 A 
HETATM    3  C   UNK N   1      35.146  14.610  11.880  0.00  0.00     0.034 A 
HETATM    4  C   UNK N   1      35.067  15.598  10.909  0.00  0.00     0.061 A 
HETATM    5  C   UNK N   1      34.726  15.329   9.617  0.00  0.00     0.035 A 
HETATM    6  C   UNK N   1      34.470  14.030   9.180  0.00  0.00     0.053 A 
HETATM    7  C   UNK N   1      34.670  16.554   8.995  0.00  0.00     0.161 A 
HETATM    8  N   UNK N   1      34.991  17.508   9.902  0.00  0.00    -0.289 N 
ATOM      9  HN  UNK N   1      35.035  18.511   9.721  1.00  0.00     0.188 HD
HETATM   10  N   UNK N   1      35.241  16.923  11.068  0.00  0.00    -0.299 N 
HETATM   11  H   UNK N   1      35.504  17.377  11.901  0.00  0.00     0.187 HD
ENDROOT
BRANCH   7  12
HETATM   12  S   UNK N   1      34.033  16.914   7.354  0.00  0.00     0.225 S 
HETATM   13  O   UNK N   1      34.681  18.292   7.160  0.00  0.00    -0.216 OA
HETATM   14  O   UNK N   1      35.024  16.210   6.417  0.00  0.00    -0.216 OA
BRANCH  12  15
HETATM   15  C   UNK N   1      32.516  17.204   6.400  0.00  0.00     0.076 A 
HETATM   16  C   UNK N   1      32.613  17.223   5.003  0.00  0.00     0.025 A 
HETATM   17  C   UNK N   1      31.472  17.334   4.204  0.00  0.00     0.002 A 
HETATM   18  C   UNK N   1      30.209  17.406   4.791  0.00  0.00     0.012 A 
HETATM   19  C   UNK N   1      30.080  17.390   6.180  0.00  0.00    -0.025 A 
HETATM   20  C   UNK N   1      31.233  17.296   7.001  0.00  0.00    -0.004 A 
HETATM   21  C   UNK N   1      28.807  17.445   6.757  0.00  0.00     0.012 A 
HETATM   22  C   UNK N   1      31.068  17.272   8.395  0.00  0.00     0.014 A 
HETATM   23  C   UNK N   1      29.793  17.335   8.963  0.00  0.00     0.001 A 
HETATM   24  C   UNK N   1      28.665  17.417   8.146  0.00  0.00     0.001 A 
ENDBRANCH  12  15
ENDBRANCH   7  12
BRANCH   1  25
HETATM   25  O   UNK N   1      34.393  11.696   9.793  0.00  0.00    -0.351 OA
BRANCH  25  26
HETATM   26  C   UNK N   1      34.717  10.648  10.622  0.00  0.00     0.177 C 
BRANCH  26  27
HETATM   27  C   UNK N   1      33.434   9.955  11.092  0.00  0.00     0.057 C 
BRANCH  27  28
HETATM   28  C   UNK N   1      33.120   8.689  10.285  0.00  0.00     0.273 C 
BRANCH  28  29
HETATM   29  N   UNK N   1      31.765   8.723   9.751  0.00  0.00     0.080 N 
HETATM   30  C   UNK N   1      31.187   7.407   9.956  0.00  0.00     0.309 C 
HETATM   31  C   UNK N   1      31.850   8.931   8.315  0.00  0.00     0.309 C 
ENDBRANCH  28  29
ENDBRANCH  27  28
ENDBRANCH  26  27
ENDBRANCH  25  26
ENDBRANCH   1  25
TORSDOF 7
ENDMDL
MODEL 4
REMARK VINA RESULT:      -7.1      9.630     13.444
REMARK  7 active torsions:
REMARK  status: ('A' for Active; 'I' for Inactive)
REMARK    1  A    between atoms: N_2  and  C_4 
REMARK    2  A    between atoms: C_4  and  C_5 
REMARK    3  A    between atoms: C_5  and  C_6 
REMARK    4  A    between atoms: C_6  and  O_7 
REMARK    5  A    between atoms: O_7  and  C_8 
REMARK    6  A    between atoms: C_14  and  S_18 
REMARK    7  A    between atoms: S_18  and  C_21 
ROOT
HETATM    1  C   UNK N   1      22.569  20.173   3.045  0.00  0.00     0.069 A 
HETATM    2  C   UNK N   1      21.605  20.545   2.080  0.00  0.00     0.039 A 
HETATM    3  C   UNK N   1      20.426  19.799   1.917  0.00  0.00     0.034 A 
HETATM    4  C   UNK N   1      20.245  18.702   2.747  0.00  0.00     0.061 A 
HETATM    5  C   UNK N   1      21.147  18.353   3.708  0.00  0.00     0.035 A 
HETATM    6  C   UNK N   1      22.334  19.060   3.891  0.00  0.00     0.053 A 
HETATM    7  C   UNK N   1      20.580  17.288   4.368  0.00  0.00     0.161 A 
HETATM    8  N   UNK N   1      19.386  17.014   3.788  0.00  0.00    -0.289 N 
ATOM      9  HN  UNK N   1      18.746  16.272   4.068  1.00  0.00     0.188 HD
HETATM   10  N   UNK N   1      19.186  17.873   2.795  0.00  0.00    -0.299 N 
HETATM   11  H   UNK N   1      18.402  17.900   2.200  0.00  0.00     0.187 HD
ENDROOT
BRANCH   7  12
HETATM   12  S   UNK N   1      21.145  16.527   5.894  0.00  0.00     0.225 S 
HETATM   13  O   UNK N   1      21.305  17.803   6.733  0.00  0.00    -0.216 OA
HETATM   14  O   UNK N   1      19.844  16.113   6.597  0.00  0.00    -0.216 OA
BRANCH  12  15
HETATM   15  C   UNK N   1      22.484  15.555   6.641  0.00  0.00     0.076 A 
HETATM   16  C   UNK N   1      22.138  14.580   7.585  0.00  0.00     0.025 A 
HETATM   17  C   UNK N   1      23.104  13.724   8.120  0.00  0.00     0.002 A 
HETATM   18  C   UNK N   1      24.432  13.815   7.703  0.00  0.00     0.012 A 
HETATM   19  C   UNK N   1      24.806  14.775   6.765  0.00  0.00    -0.025 A 
HETATM   20  C   UNK N   1      23.838  15.663   6.228  0.00  0.00    -0.004 A 
HETATM   21  C   UNK N   1      26.137  14.845   6.340  0.00  0.00     0.012 A 
HETATM   22  C   UNK N   1      24.246  16.612   5.278  0.00  0.00     0.014 A 
HETATM   23  C   UNK N   1      25.579  16.680   4.865  0.00  0.00     0.001 A 
HETATM   24  C   UNK N   1      26.522  15.796   5.391  0.00  0.00     0.001 A 
ENDBRANCH  12  15
ENDBRANCH   7  12
BRANCH   1  25
HETATM   25  O   UNK N   1      23.716  20.880   3.111  0.00  0.00    -0.351 OA
BRANCH  25  26
HETATM   26  C   UNK N   1      24.832  20.574   2.368  0.00  0.00     0.177 C 
BRANCH  26  27
HETATM   27  C   UNK N   1      25.930  20.043   3.295  0.00  0.00     0.057 C 
BRANCH  27  28
HETATM   28  C   UNK N   1      25.756  20.514   4.744  0.00  0.00     0.273 C 
BRANCH  28  29
HETATM   29  N   UNK N   1      27.036  20.873   5.342  0.00  0.00     0.080 N 
HETATM   30  C   UNK N   1      27.812  19.653   5.466  0.00  0.00     0.309 C 
HETATM   31  C   UNK N   1      26.784  21.355   6.690  0.00  0.00     0.309 C 
ENDBRANCH  28  29
ENDBRANCH  27  28
ENDBRANCH  26  27
ENDBRANCH  25  26
ENDBRANCH   1  25
TORSDOF 7
ENDMDL
MODEL 5
REMARK VINA RESULT:      -7.1      9.311     13.410
REMARK  7 active torsions:
REMARK  status: ('A' for Active; 'I' for Inactive)
REMARK    1  A    between atoms: N_2  and  C_4 
REMARK    2  A    between atoms: C_4  and  C_5 
REMARK    3  A    between atoms: C_5  and  C_6 
REMARK    4  A    between atoms: C_6  and  O_7 
REMARK    5  A    between atoms: O_7  and  C_8 
REMARK    6  A    between atoms: C_14  and  S_18 
REMARK    7  A    between atoms: S_18  and  C_21 
ROOT
HETATM    1  C   UNK N   1      23.193  18.581   4.484  0.00  0.00     0.069 A 
HETATM    2  C   UNK N   1      22.605  19.413   3.504  0.00  0.00     0.039 A 
HETATM    3  C   UNK N   1      21.321  19.137   3.004  0.00  0.00     0.034 A 
HETATM    4  C   UNK N   1      20.658  18.033   3.521  0.00  0.00     0.061 A 
HETATM    5  C   UNK N   1      21.197  17.244   4.494  0.00  0.00     0.035 A 
HETATM    6  C   UNK N   1      22.473  17.478   5.005  0.00  0.00     0.053 A 
HETATM    7  C   UNK N   1      20.220  16.327   4.798  0.00  0.00     0.161 A 
HETATM    8  N   UNK N   1      19.147  16.567   4.006  0.00  0.00    -0.289 N 
ATOM      9  HN  UNK N   1      18.274  16.039   4.009  1.00  0.00     0.188 HD
HETATM   10  N   UNK N   1      19.419  17.604   3.221  0.00  0.00    -0.299 N 
HETATM   11  H   UNK N   1      18.820  17.991   2.542  0.00  0.00     0.187 HD
ENDROOT
BRANCH   7  12
HETATM   12  S   UNK N   1      20.204  15.167   6.171  0.00  0.00     0.225 S 
HETATM   13  O   UNK N   1      19.024  15.762   6.952  0.00  0.00    -0.216 OA
HETATM   14  O   UNK N   1      19.381  13.985   5.639  0.00  0.00    -0.216 OA
BRANCH  12  15
HETATM   15  C   UNK N   1      21.166  14.552   7.582  0.00  0.00     0.076 A 
HETATM   16  C   UNK N   1      20.506  14.397   8.808  0.00  0.00     0.025 A 
HETATM   17  C   UNK N   1      21.156  13.829   9.907  0.00  0.00     0.002 A 
HETATM   18  C   UNK N   1      22.473  13.385   9.791  0.00  0.00     0.012 A 
HETATM   19  C   UNK N   1      23.156  13.526   8.584  0.00  0.00    -0.025 A 
HETATM   20  C   UNK N   1      22.513  14.119   7.466  0.00  0.00    -0.004 A 
HETATM   21  C   UNK N   1      24.471  13.061   8.475  0.00  0.00     0.012 A 
HETATM   22  C   UNK N   1      23.225  14.237   6.263  0.00  0.00     0.014 A 
HETATM   23  C   UNK N   1      24.541  13.777   6.165  0.00  0.00     0.001 A 
HETATM   24  C   UNK N   1      25.161  13.186   7.267  0.00  0.00     0.001 A 
ENDBRANCH  12  15
ENDBRANCH   7  12
BRANCH   1  25
HETATM   25  O   UNK N   1      24.456  18.849   4.877  0.00  0.00    -0.351 OA
BRANCH  25  26
HETATM   26  C   UNK N   1      25.502  18.997   3.997  0.00  0.00     0.177 C 
BRANCH  26  27
HETATM   27  C   UNK N   1      26.185  20.346   4.240  0.00  0.00     0.057 C 
BRANCH  27  28
HETATM   28  C   UNK N   1      27.619  20.194   4.762  0.00  0.00     0.273 C 
BRANCH  28  29
HETATM   29  N   UNK N   1      27.750  20.724   6.114  0.00  0.00     0.080 N 
HETATM   30  C   UNK N   1      27.758  19.591   7.022  0.00  0.00     0.309 C 
HETATM   31  C   UNK N   1      26.558  21.499   6.412  0.00  0.00     0.309 C 
ENDBRANCH  28  29
ENDBRANCH  27  28
ENDBRANCH  26  27
ENDBRANCH  25  26
ENDBRANCH   1  25
TORSDOF 7
ENDMDL
MODEL 6
REMARK VINA RESULT:      -7.0      1.834      2.280
REMARK  7 active torsions:
REMARK  status: ('A' for Active; 'I' for Inactive)
REMARK    1  A    between atoms: N_2  and  C_4 
REMARK    2  A    between atoms: C_4  and  C_5 
REMARK    3  A    between atoms: C_5  and  C_6 
REMARK    4  A    between atoms: C_6  and  O_7 
REMARK    5  A    between atoms: O_7  and  C_8 
REMARK    6  A    between atoms: C_14  and  S_18 
REMARK    7  A    between atoms: S_18  and  C_21 
ROOT
HETATM    1  C   UNK N   1      34.614  12.974  10.113  0.00  0.00     0.069 A 
HETATM    2  C   UNK N   1      34.894  13.252  11.471  0.00  0.00     0.039 A 
HETATM    3  C   UNK N   1      35.108  14.572  11.904  0.00  0.00     0.034 A 
HETATM    4  C   UNK N   1      35.016  15.579  10.954  0.00  0.00     0.061 A 
HETATM    5  C   UNK N   1      34.708  15.330   9.650  0.00  0.00     0.035 A 
HETATM    6  C   UNK N   1      34.503  14.034   9.179  0.00  0.00     0.053 A 
HETATM    7  C   UNK N   1      34.624  16.566   9.055  0.00  0.00     0.161 A 
HETATM    8  N   UNK N   1      34.897  17.509   9.990  0.00  0.00    -0.289 N 
ATOM      9  HN  UNK N   1      34.912  18.516   9.832  1.00  0.00     0.188 HD
HETATM   10  N   UNK N   1      35.143  16.904  11.147  0.00  0.00    -0.299 N 
HETATM   11  H   UNK N   1      35.376  17.348  11.995  0.00  0.00     0.187 HD
ENDROOT
BRANCH   7  12
HETATM   12  S   UNK N   1      34.008  16.944   7.410  0.00  0.00     0.225 S 
HETATM   13  O   UNK N   1      34.630  18.339   7.253  0.00  0.00    -0.216 OA
HETATM   14  O   UNK N   1      35.029  16.278   6.477  0.00  0.00    -0.216 OA
BRANCH  12  15
HETATM   15  C   UNK N   1      32.501  17.220   6.436  0.00  0.00     0.076 A 
HETATM   16  C   UNK N   1      32.615  17.223   5.040  0.00  0.00     0.025 A 
HETATM   17  C   UNK N   1      31.483  17.323   4.227  0.00  0.00     0.002 A 
HETATM   18  C   UNK N   1      30.213  17.401   4.799  0.00  0.00     0.012 A 
HETATM   19  C   UNK N   1      30.068  17.401   6.185  0.00  0.00    -0.025 A 
HETATM   20  C   UNK N   1      31.212  17.319   7.021  0.00  0.00    -0.004 A 
HETATM   21  C   UNK N   1      28.788  17.461   6.748  0.00  0.00     0.012 A 
HETATM   22  C   UNK N   1      31.031  17.311   8.413  0.00  0.00     0.014 A 
HETATM   23  C   UNK N   1      29.750  17.379   8.966  0.00  0.00     0.001 A 
HETATM   24  C   UNK N   1      28.631  17.450   8.135  0.00  0.00     0.001 A 
ENDBRANCH  12  15
ENDBRANCH   7  12
BRANCH   1  25
HETATM   25  O   UNK N   1      34.489  11.685   9.737  0.00  0.00    -0.351 OA
BRANCH  25  26
HETATM   26  C   UNK N   1      33.405  11.208   9.038  0.00  0.00     0.177 C 
BRANCH  26  27
HETATM   27  C   UNK N   1      33.850  10.055   8.132  0.00  0.00     0.057 C 
BRANCH  27  28
HETATM   28  C   UNK N   1      34.169  10.517   6.705  0.00  0.00     0.273 C 
BRANCH  28  29
HETATM   29  N   UNK N   1      33.480  11.761   6.384  0.00  0.00     0.080 N 
HETATM   30  C   UNK N   1      32.446  11.444   5.416  0.00  0.00     0.309 C 
HETATM   31  C   UNK N   1      34.426  12.643   5.721  0.00  0.00     0.309 C 
ENDBRANCH  28  29
ENDBRANCH  27  28
ENDBRANCH  26  27
ENDBRANCH  25  26
ENDBRANCH   1  25
TORSDOF 7
ENDMDL
MODEL 7
REMARK VINA RESULT:      -6.8     15.564     18.864
REMARK  7 active torsions:
REMARK  status: ('A' for Active; 'I' for Inactive)
REMARK    1  A    between atoms: N_2  and  C_4 
REMARK    2  A    between atoms: C_4  and  C_5 
REMARK    3  A    between atoms: C_5  and  C_6 
REMARK    4  A    between atoms: C_6  and  O_7 
REMARK    5  A    between atoms: O_7  and  C_8 
REMARK    6  A    between atoms: C_14  and  S_18 
REMARK    7  A    between atoms: S_18  and  C_21 
ROOT
HETATM    1  C   UNK N   1      29.383  22.170  -6.222  0.00  0.00     0.069 A 
HETATM    2  C   UNK N   1      29.062  21.333  -7.315  0.00  0.00     0.039 A 
HETATM    3  C   UNK N   1      27.804  21.415  -7.937  0.00  0.00     0.034 A 
HETATM    4  C   UNK N   1      26.908  22.354  -7.446  0.00  0.00     0.061 A 
HETATM    5  C   UNK N   1      27.219  23.194  -6.418  0.00  0.00     0.035 A 
HETATM    6  C   UNK N   1      28.450  23.135  -5.767  0.00  0.00     0.053 A 
HETATM    7  C   UNK N   1      26.128  24.021  -6.285  0.00  0.00     0.161 A 
HETATM    8  N   UNK N   1      25.200  23.654  -7.202  0.00  0.00    -0.289 N 
ATOM      9  HN  UNK N   1      24.287  24.090  -7.332  1.00  0.00     0.188 HD
HETATM   10  N   UNK N   1      25.675  22.632  -7.905  0.00  0.00    -0.299 N 
HETATM   11  H   UNK N   1      25.208  22.162  -8.634  0.00  0.00     0.187 HD
ENDROOT
BRANCH   7  12
HETATM   12  S   UNK N   1      26.003  25.505  -5.280  0.00  0.00     0.225 S 
HETATM   13  O   UNK N   1      24.476  25.667  -5.312  0.00  0.00    -0.216 OA
HETATM   14  O   UNK N   1      26.012  24.970  -3.840  0.00  0.00    -0.216 OA
BRANCH  12  15
HETATM   15  C   UNK N   1      26.450  27.262  -5.196  0.00  0.00     0.076 A 
HETATM   16  C   UNK N   1      25.981  28.006  -4.107  0.00  0.00     0.025 A 
HETATM   17  C   UNK N   1      26.374  29.335  -3.922  0.00  0.00     0.002 A 
HETATM   18  C   UNK N   1      27.261  29.935  -4.815  0.00  0.00     0.012 A 
HETATM   19  C   UNK N   1      27.745  29.219  -5.909  0.00  0.00    -0.025 A 
HETATM   20  C   UNK N   1      27.339  27.876  -6.118  0.00  0.00    -0.004 A 
HETATM   21  C   UNK N   1      28.649  29.826  -6.788  0.00  0.00     0.012 A 
HETATM   22  C   UNK N   1      27.852  27.180  -7.223  0.00  0.00     0.014 A 
HETATM   23  C   UNK N   1      28.748  27.796  -8.100  0.00  0.00     0.001 A 
HETATM   24  C   UNK N   1      29.149  29.115  -7.880  0.00  0.00     0.001 A 
ENDBRANCH  12  15
ENDBRANCH   7  12
BRANCH   1  25
HETATM   25  O   UNK N   1      30.576  22.002  -5.616  0.00  0.00    -0.351 OA
BRANCH  25  26
HETATM   26  C   UNK N   1      30.708  21.765  -4.267  0.00  0.00     0.177 C 
BRANCH  26  27
HETATM   27  C   UNK N   1      31.259  23.020  -3.582  0.00  0.00     0.057 C 
BRANCH  27  28
HETATM   28  C   UNK N   1      32.222  23.806  -4.480  0.00  0.00     0.273 C 
BRANCH  28  29
HETATM   29  N   UNK N   1      31.862  25.217  -4.536  0.00  0.00     0.080 N 
HETATM   30  C   UNK N   1      30.788  25.427  -3.583  0.00  0.00     0.309 C 
HETATM   31  C   UNK N   1      31.319  25.492  -5.856  0.00  0.00     0.309 C 
ENDBRANCH  28  29
ENDBRANCH  27  28
ENDBRANCH  26  27
ENDBRANCH  25  26
ENDBRANCH   1  25
TORSDOF 7
ENDMDL
MODEL 8
REMARK VINA RESULT:      -6.8      9.586     13.515
REMARK  7 active torsions:
REMARK  status: ('A' for Active; 'I' for Inactive)
REMARK    1  A    between atoms: N_2  and  C_4 
REMARK    2  A    between atoms: C_4  and  C_5 
REMARK    3  A    between atoms: C_5  and  C_6 
REMARK    4  A    between atoms: C_6  and  O_7 
REMARK    5  A    between atoms: O_7  and  C_8 
REMARK    6  A    between atoms: C_14  and  S_18 
REMARK    7  A    between atoms: S_18  and  C_21 
ROOT
HETATM    1  C   UNK N   1      22.764  19.525   3.419  0.00  0.00     0.069 A 
HETATM    2  C   UNK N   1      21.848  20.104   2.510  0.00  0.00     0.039 A 
HETATM    3  C   UNK N   1      20.582  19.530   2.303  0.00  0.00     0.034 A 
HETATM    4  C   UNK N   1      20.269  18.393   3.033  0.00  0.00     0.061 A 
HETATM    5  C   UNK N   1      21.127  17.846   3.941  0.00  0.00     0.035 A 
HETATM    6  C   UNK N   1      22.395  18.378   4.165  0.00  0.00     0.053 A 
HETATM    7  C   UNK N   1      20.434  16.805   4.512  0.00  0.00     0.161 A 
HETATM    8  N   UNK N   1      19.210  16.739   3.934  0.00  0.00    -0.289 N 
ATOM      9  HN  UNK N   1      18.483  16.060   4.157  1.00  0.00     0.188 HD
HETATM   10  N   UNK N   1      19.114  17.704   3.026  0.00  0.00    -0.299 N 
HETATM   11  H   UNK N   1      18.335  17.883   2.451  0.00  0.00     0.187 HD
ENDROOT
BRANCH   7  12
HETATM   12  S   UNK N   1      20.908  15.842   5.953  0.00  0.00     0.225 S 
HETATM   13  O   UNK N   1      20.832  16.959   7.003  0.00  0.00    -0.216 OA
HETATM   14  O   UNK N   1      19.592  15.194   6.406  0.00  0.00    -0.216 OA
BRANCH  12  15
HETATM   15  C   UNK N   1      22.257  14.879   6.695  0.00  0.00     0.076 A 
HETATM   16  C   UNK N   1      23.502  14.896   6.055  0.00  0.00     0.025 A 
HETATM   17  C   UNK N   1      24.611  14.266   6.626  0.00  0.00     0.002 A 
HETATM   18  C   UNK N   1      24.497  13.625   7.859  0.00  0.00     0.012 A 
HETATM   19  C   UNK N   1      23.270  13.591   8.520  0.00  0.00    -0.025 A 
HETATM   20  C   UNK N   1      22.132  14.211   7.941  0.00  0.00    -0.004 A 
HETATM   21  C   UNK N   1      23.171  12.961   9.765  0.00  0.00     0.012 A 
HETATM   22  C   UNK N   1      20.913  14.168   8.636  0.00  0.00     0.014 A 
HETATM   23  C   UNK N   1      20.822  13.530   9.876  0.00  0.00     0.001 A 
HETATM   24  C   UNK N   1      21.949  12.931  10.441  0.00  0.00     0.001 A 
ENDBRANCH  12  15
ENDBRANCH   7  12
BRANCH   1  25
HETATM   25  O   UNK N   1      23.991  20.074   3.527  0.00  0.00    -0.351 OA
BRANCH  25  26
HETATM   26  C   UNK N   1      25.091  19.374   3.966  0.00  0.00     0.177 C 
BRANCH  26  27
HETATM   27  C   UNK N   1      26.365  20.116   3.549  0.00  0.00     0.057 C 
BRANCH  27  28
HETATM   28  C   UNK N   1      27.124  20.701   4.747  0.00  0.00     0.273 C 
BRANCH  28  29
HETATM   29  N   UNK N   1      26.650  20.135   6.003  0.00  0.00     0.080 N 
HETATM   30  C   UNK N   1      26.434  21.240   6.919  0.00  0.00     0.309 C 
HETATM   31  C   UNK N   1      27.716  19.321   6.563  0.00  0.00     0.309 C 
ENDBRANCH  28  29
ENDBRANCH  27  28
ENDBRANCH  26  27
ENDBRANCH  25  26
ENDBRANCH   1  25
TORSDOF 7
ENDMDL
MODEL 9
REMARK VINA RESULT:      -6.8      1.297      1.706
REMARK  7 active torsions:
REMARK  status: ('A' for Active; 'I' for Inactive)
REMARK    1  A    between atoms: N_2  and  C_4 
REMARK    2  A    between atoms: C_4  and  C_5 
REMARK    3  A    between atoms: C_5  and  C_6 
REMARK    4  A    between atoms: C_6  and  O_7 
REMARK    5  A    between atoms: O_7  and  C_8 
REMARK    6  A    between atoms: C_14  and  S_18 
REMARK    7  A    between atoms: S_18  and  C_21 
ROOT
HETATM    1  C   UNK N   1      35.896  13.064   9.549  0.00  0.00     0.069 A 
HETATM    2  C   UNK N   1      36.043  13.227  10.945  0.00  0.00     0.039 A 
HETATM    3  C   UNK N   1      35.795  14.469  11.553  0.00  0.00     0.034 A 
HETATM    4  C   UNK N   1      35.389  15.512  10.733  0.00  0.00     0.061 A 
HETATM    5  C   UNK N   1      35.206  15.359   9.391  0.00  0.00     0.035 A 
HETATM    6  C   UNK N   1      35.454  14.147   8.749  0.00  0.00     0.053 A 
HETATM    7  C   UNK N   1      34.724  16.570   8.951  0.00  0.00     0.161 A 
HETATM    8  N   UNK N   1      34.649  17.410  10.012  0.00  0.00    -0.289 N 
ATOM      9  HN  UNK N   1      34.329  18.378   9.983  1.00  0.00     0.188 HD
HETATM   10  N   UNK N   1      35.062  16.765  11.098  0.00  0.00    -0.299 N 
HETATM   11  H   UNK N   1      35.119  17.138  12.008  0.00  0.00     0.187 HD
ENDROOT
BRANCH   7  12
HETATM   12  S   UNK N   1      34.045  16.948   7.331  0.00  0.00     0.225 S 
HETATM   13  O   UNK N   1      34.658  18.345   7.154  0.00  0.00    -0.216 OA
HETATM   14  O   UNK N   1      35.033  16.287   6.360  0.00  0.00    -0.216 OA
BRANCH  12  15
HETATM   15  C   UNK N   1      32.503  17.222   6.414  0.00  0.00     0.076 A 
HETATM   16  C   UNK N   1      32.567  17.241   5.015  0.00  0.00     0.025 A 
HETATM   17  C   UNK N   1      31.406  17.340   4.244  0.00  0.00     0.002 A 
HETATM   18  C   UNK N   1      30.156  17.401   4.861  0.00  0.00     0.012 A 
HETATM   19  C   UNK N   1      30.061  17.385   6.252  0.00  0.00    -0.025 A 
HETATM   20  C   UNK N   1      31.235  17.304   7.046  0.00  0.00    -0.004 A 
HETATM   21  C   UNK N   1      28.802  17.429   6.860  0.00  0.00     0.012 A 
HETATM   22  C   UNK N   1      31.103  17.280   8.443  0.00  0.00     0.014 A 
HETATM   23  C   UNK N   1      29.842  17.331   9.042  0.00  0.00     0.001 A 
HETATM   24  C   UNK N   1      28.693  17.401   8.252  0.00  0.00     0.001 A 
ENDBRANCH  12  15
ENDBRANCH   7  12
BRANCH   1  25
HETATM   25  O   UNK N   1      36.216  11.871   9.007  0.00  0.00    -0.351 OA
BRANCH  25  26
HETATM   26  C   UNK N   1      36.425  11.689   7.659  0.00  0.00     0.177 C 
BRANCH  26  27
HETATM   27  C   UNK N   1      37.900  11.357   7.413  0.00  0.00     0.057 C 
BRANCH  27  28
HETATM   28  C   UNK N   1      38.543  12.276   6.367  0.00  0.00     0.273 C 
BRANCH  28  29
HETATM   29  N   UNK N   1      37.534  12.943   5.555  0.00  0.00     0.080 N 
HETATM   30  C   UNK N   1      37.652  12.421   4.205  0.00  0.00     0.309 C 
HETATM   31  C   UNK N   1      37.865  14.357   5.494  0.00  0.00     0.309 C 
ENDBRANCH  28  29
ENDBRANCH  27  28
ENDBRANCH  26  27
ENDBRANCH  25  26
ENDBRANCH   1  25
TORSDOF 7
ENDMDL
