MODEL 1
REMARK VINA RESULT:      -7.5      0.000      0.000
REMARK  7 active torsions:
REMARK  status: ('A' for Active; 'I' for Inactive)
REMARK    1  A    between atoms: C_3  and  C_2 
REMARK    2  A    between atoms: C_3  and  C_20 
REMARK    3  A    between atoms: N_7  and  C_9 
REMARK    4  A    between atoms: C_9  and  C_10 
REMARK    5  A    between atoms: C_10  and  O_19 
REMARK    6  A    between atoms: C_24  and  N_26 
REMARK    7  A    between atoms: N_26  and  S_27 
ROOT
HETATM    1  C   UNK N   1      29.408  20.522  -7.876  0.00  0.00    -0.002 A 
HETATM    2  C   UNK N   1      28.004  21.118  -7.688  0.00  0.00     0.034 A 
HETATM    3  C   UNK N   1      28.730  21.218  -9.036  0.00  0.00     0.034 A 
HETATM    4  C   UNK N   1      29.056  22.673  -9.196  0.00  0.00     0.278 C 
HETATM    5  N   UNK N   1      28.018  23.381  -8.480  0.00  0.00     0.092 N 
HETATM    6  C   UNK N   1      27.900  22.592  -7.266  0.00  0.00     0.278 C 
ENDROOT
BRANCH   1   7
HETATM    7  C   UNK N   1      29.386  19.011  -8.096  0.00  0.00     0.011 C 
HETATM    8  C   UNK N   1      30.057  18.596  -9.395  0.00  0.00     0.006 C 
ENDBRANCH   1   7
BRANCH   1   9
HETATM    9  C   UNK N   1      30.434  21.040  -6.889  0.00  0.00    -0.046 A 
HETATM   10  C   UNK N   1      31.801  21.086  -7.200  0.00  0.00     0.008 A 
HETATM   11  C   UNK N   1      32.737  21.399  -6.203  0.00  0.00     0.003 A 
HETATM   12  C   UNK N   1      32.317  21.602  -4.882  0.00  0.00     0.030 A 
HETATM   13  C   UNK N   1      30.952  21.547  -4.562  0.00  0.00     0.042 A 
HETATM   14  C   UNK N   1      30.027  21.282  -5.572  0.00  0.00     0.038 A 
BRANCH  13  15
HETATM   15  N   UNK N   1      30.487  21.664  -3.232  0.00  0.00    -0.285 N 
HETATM   16  H   UNK N   1      30.523  20.866  -2.655  0.00  0.00     0.178 HD
BRANCH  15  17
HETATM   17  S   UNK N   1      29.851  23.154  -2.547  0.00  0.00     0.227 S 
HETATM   18  O   UNK N   1      30.141  23.035  -1.043  0.00  0.00    -0.206 OA
HETATM   19  O   UNK N   1      30.871  24.223  -2.965  0.00  0.00    -0.206 OA
HETATM   20  C   UNK N   1      28.141  23.651  -2.892  0.00  0.00     0.186 C 
ENDBRANCH  15  17
ENDBRANCH  13  15
ENDBRANCH   1   9
BRANCH   5  21
HETATM   21  C   UNK N   1      28.335  24.777  -8.139  0.00  0.00     0.310 C 
BRANCH  21  22
HETATM   22  C   UNK N   1      27.379  25.854  -8.695  0.00  0.00     0.092 C 
HETATM   23  C   UNK N   1      25.993  25.649  -8.052  0.00  0.00     0.079 C 
HETATM   24  C   UNK N   1      26.038  26.603  -6.929  0.00  0.00    -0.049 A 
HETATM   25  C   UNK N   1      25.133  26.674  -5.871  0.00  0.00     0.007 A 
HETATM   26  C   UNK N   1      27.089  27.467  -7.023  0.00  0.00    -0.049 A 
HETATM   27  C   UNK N   1      25.335  27.648  -4.881  0.00  0.00     0.001 A 
HETATM   28  C   UNK N   1      26.428  28.531  -4.971  0.00  0.00     0.001 A 
HETATM   29  C   UNK N   1      27.312  28.448  -6.059  0.00  0.00     0.007 A 
HETATM   30  C   UNK N   1      27.888  27.241  -8.240  0.00  0.00     0.079 C 
BRANCH  22  31
HETATM   31  O   UNK N   1      27.273  25.774 -10.086  0.00  0.00    -0.387 OA
HETATM   32  H   UNK N   1      27.277  26.448 -10.783  0.00  0.00     0.210 HD
ENDBRANCH  22  31
ENDBRANCH  21  22
ENDBRANCH   5  21
TORSDOF 7
ENDMDL
MODEL 2
REMARK VINA RESULT:      -7.4      2.482      7.828
REMARK  7 active torsions:
REMARK  status: ('A' for Active; 'I' for Inactive)
REMARK    1  A    between atoms: C_3  and  C_2 
REMARK    2  A    between atoms: C_3  and  C_20 
REMARK    3  A    between atoms: N_7  and  C_9 
REMARK    4  A    between atoms: C_9  and  C_10 
REMARK    5  A    between atoms: C_10  and  O_19 
REMARK    6  A    between atoms: C_24  and  N_26 
REMARK    7  A    between atoms: N_26  and  S_27 
ROOT
HETATM    1  C   UNK N   1      26.730  26.814  -4.680  0.00  0.00    -0.002 A 
HETATM    2  C   UNK N   1      26.959  25.634  -3.722  0.00  0.00     0.034 A 
HETATM    3  C   UNK N   1      27.823  26.899  -3.638  0.00  0.00     0.034 A 
HETATM    4  C   UNK N   1      29.186  26.469  -4.094  0.00  0.00     0.278 C 
HETATM    5  N   UNK N   1      29.289  25.072  -3.737  0.00  0.00     0.092 N 
HETATM    6  C   UNK N   1      27.985  24.566  -4.129  0.00  0.00     0.278 C 
ENDROOT
BRANCH   1   7
HETATM    7  C   UNK N   1      25.553  27.695  -4.267  0.00  0.00     0.011 C 
HETATM    8  C   UNK N   1      25.960  29.134  -4.002  0.00  0.00     0.006 C 
ENDBRANCH   1   7
BRANCH   1   9
HETATM    9  C   UNK N   1      26.804  26.439  -6.147  0.00  0.00    -0.046 A 
HETATM   10  C   UNK N   1      27.416  27.275  -7.093  0.00  0.00     0.008 A 
HETATM   11  C   UNK N   1      27.307  26.983  -8.460  0.00  0.00     0.003 A 
HETATM   12  C   UNK N   1      26.534  25.896  -8.889  0.00  0.00     0.030 A 
HETATM   13  C   UNK N   1      25.911  25.063  -7.948  0.00  0.00     0.042 A 
HETATM   14  C   UNK N   1      26.066  25.336  -6.589  0.00  0.00     0.038 A 
BRANCH  13  15
HETATM   15  N   UNK N   1      25.055  24.004  -8.333  0.00  0.00    -0.285 N 
HETATM   16  H   UNK N   1      24.182  24.233  -8.729  0.00  0.00     0.178 HD
BRANCH  15  17
HETATM   17  S   UNK N   1      25.461  22.303  -8.147  0.00  0.00     0.227 S 
HETATM   18  O   UNK N   1      24.351  21.744  -7.245  0.00  0.00    -0.206 OA
HETATM   19  O   UNK N   1      25.090  21.680  -9.501  0.00  0.00    -0.206 OA
HETATM   20  C   UNK N   1      27.120  21.824  -7.592  0.00  0.00     0.186 C 
ENDBRANCH  15  17
ENDBRANCH  13  15
ENDBRANCH   1   9
BRANCH   5  21
HETATM   21  C   UNK N   1      30.346  24.325  -4.438  0.00  0.00     0.310 C 
BRANCH  21  22
HETATM   22  C   UNK N   1      30.941  23.112  -3.690  0.00  0.00     0.092 C 
HETATM   23  C   UNK N   1      30.134  21.859  -4.084  0.00  0.00     0.079 C 
HETATM   24  C   UNK N   1      30.959  21.298  -5.169  0.00  0.00    -0.049 A 
HETATM   25  C   UNK N   1      30.586  20.282  -6.047  0.00  0.00     0.007 A 
HETATM   26  C   UNK N   1      32.192  21.878  -5.237  0.00  0.00    -0.049 A 
HETATM   27  C   UNK N   1      31.504  19.875  -7.029  0.00  0.00     0.001 A 
HETATM   28  C   UNK N   1      32.770  20.483  -7.108  0.00  0.00     0.001 A 
HETATM   29  C   UNK N   1      33.126  21.491  -6.196  0.00  0.00     0.007 A 
HETATM   30  C   UNK N   1      32.387  22.893  -4.188  0.00  0.00     0.079 C 
BRANCH  22  31
HETATM   31  O   UNK N   1      30.892  23.292  -2.305  0.00  0.00    -0.387 OA
HETATM   32  H   UNK N   1      30.211  23.096  -1.643  0.00  0.00     0.210 HD
ENDBRANCH  22  31
ENDBRANCH  21  22
ENDBRANCH   5  21
TORSDOF 7
ENDMDL
MODEL 3
REMARK VINA RESULT:      -7.4     16.390     20.379
REMARK  7 active torsions:
REMARK  status: ('A' for Active; 'I' for Inactive)
REMARK    1  A    between atoms: C_3  and  C_2 
REMARK    2  A    between atoms: C_3  and  C_20 
REMARK    3  A    between atoms: N_7  and  C_9 
REMARK    4  A    between atoms: C_9  and  C_10 
REMARK    5  A    between atoms: C_10  and  O_19 
REMARK    6  A    between atoms: C_24  and  N_26 
REMARK    7  A    between atoms: N_26  and  S_27 
ROOT
HETATM    1  C   UNK N   1      33.807  14.108   6.599  0.00  0.00    -0.002 A 
HETATM    2  C   UNK N   1      35.268  13.796   6.958  0.00  0.00     0.034 A 
HETATM    3  C   UNK N   1      34.129  12.874   7.411  0.00  0.00     0.034 A 
HETATM    4  C   UNK N   1      34.061  13.043   8.900  0.00  0.00     0.278 C 
HETATM    5  N   UNK N   1      35.408  13.370   9.312  0.00  0.00     0.092 N 
HETATM    6  C   UNK N   1      35.809  14.325   8.295  0.00  0.00     0.278 C 
ENDROOT
BRANCH   1   7
HETATM    7  C   UNK N   1      33.448  13.707   5.170  0.00  0.00     0.011 C 
HETATM    8  C   UNK N   1      32.052  13.117   5.057  0.00  0.00     0.006 C 
ENDBRANCH   1   7
BRANCH   1   9
HETATM    9  C   UNK N   1      33.342  15.480   7.046  0.00  0.00    -0.046 A 
HETATM   10  C   UNK N   1      34.105  16.632   6.807  0.00  0.00     0.008 A 
HETATM   11  C   UNK N   1      33.734  17.852   7.391  0.00  0.00     0.003 A 
HETATM   12  C   UNK N   1      32.642  17.911   8.265  0.00  0.00     0.030 A 
HETATM   13  C   UNK N   1      31.881  16.759   8.517  0.00  0.00     0.042 A 
HETATM   14  C   UNK N   1      32.231  15.562   7.893  0.00  0.00     0.038 A 
BRANCH  13  15
HETATM   15  N   UNK N   1      30.820  16.749   9.454  0.00  0.00    -0.285 N 
HETATM   16  H   UNK N   1      30.894  16.150  10.232  0.00  0.00     0.178 HD
BRANCH  15  17
HETATM   17  S   UNK N   1      29.380  17.748   9.309  0.00  0.00     0.227 S 
HETATM   18  O   UNK N   1      28.303  16.976  10.083  0.00  0.00    -0.206 OA
HETATM   19  O   UNK N   1      29.646  18.926  10.258  0.00  0.00    -0.206 OA
HETATM   20  C   UNK N   1      28.814  18.288   7.672  0.00  0.00     0.186 C 
ENDBRANCH  15  17
ENDBRANCH  13  15
ENDBRANCH   1   9
BRANCH   5  21
HETATM   21  C   UNK N   1      35.520  13.984  10.645  0.00  0.00     0.310 C 
BRANCH  21  22
HETATM   22  C   UNK N   1      36.546  13.348  11.609  0.00  0.00     0.092 C 
HETATM   23  C   UNK N   1      36.232  13.834  13.038  0.00  0.00     0.079 C 
HETATM   24  C   UNK N   1      35.409  12.728  13.559  0.00  0.00    -0.049 A 
HETATM   25  C   UNK N   1      34.658  12.741  14.733  0.00  0.00     0.007 A 
HETATM   26  C   UNK N   1      35.456  11.624  12.759  0.00  0.00    -0.049 A 
HETATM   27  C   UNK N   1      33.926  11.592  15.072  0.00  0.00     0.001 A 
HETATM   28  C   UNK N   1      33.964  10.458  14.239  0.00  0.00     0.001 A 
HETATM   29  C   UNK N   1      34.745  10.468  13.072  0.00  0.00     0.007 A 
HETATM   30  C   UNK N   1      36.343  11.816  11.598  0.00  0.00     0.079 C 
BRANCH  22  31
HETATM   31  O   UNK N   1      37.854  13.699  11.266  0.00  0.00    -0.387 OA
HETATM   32  H   UNK N   1      38.579  13.202  10.856  0.00  0.00     0.210 HD
ENDBRANCH  22  31
ENDBRANCH  21  22
ENDBRANCH   5  21
TORSDOF 7
ENDMDL
MODEL 4
REMARK VINA RESULT:      -7.4      2.516      7.639
REMARK  7 active torsions:
REMARK  status: ('A' for Active; 'I' for Inactive)
REMARK    1  A    between atoms: C_3  and  C_2 
REMARK    2  A    between atoms: C_3  and  C_20 
REMARK    3  A    between atoms: N_7  and  C_9 
REMARK    4  A    between atoms: C_9  and  C_10 
REMARK    5  A    between atoms: C_10  and  O_19 
REMARK    6  A    between atoms: C_24  and  N_26 
REMARK    7  A    between atoms: N_26  and  S_27 
ROOT
HETATM    1  C   UNK N   1      28.920  28.322  -5.936  0.00  0.00    -0.002 A 
HETATM    2  C   UNK N   1      29.673  28.067  -4.620  0.00  0.00     0.034 A 
HETATM    3  C   UNK N   1      30.175  27.478  -5.944  0.00  0.00     0.034 A 
HETATM    4  C   UNK N   1      29.961  25.998  -5.818  0.00  0.00     0.278 C 
HETATM    5  N   UNK N   1      30.070  25.713  -4.405  0.00  0.00     0.092 N 
HETATM    6  C   UNK N   1      29.314  26.805  -3.819  0.00  0.00     0.278 C 
ENDROOT
BRANCH   1   7
HETATM    7  C   UNK N   1      29.217  29.696  -6.533  0.00  0.00     0.011 C 
HETATM    8  C   UNK N   1      29.429  29.650  -8.037  0.00  0.00     0.006 C 
ENDBRANCH   1   7
BRANCH   1   9
HETATM    9  C   UNK N   1      27.463  27.907  -5.901  0.00  0.00    -0.046 A 
HETATM   10  C   UNK N   1      26.537  28.530  -5.051  0.00  0.00     0.008 A 
HETATM   11  C   UNK N   1      25.244  28.003  -4.916  0.00  0.00     0.003 A 
HETATM   12  C   UNK N   1      24.895  26.818  -5.575  0.00  0.00     0.030 A 
HETATM   13  C   UNK N   1      25.819  26.183  -6.418  0.00  0.00     0.042 A 
HETATM   14  C   UNK N   1      27.086  26.744  -6.582  0.00  0.00     0.038 A 
BRANCH  13  15
HETATM   15  N   UNK N   1      25.542  24.944  -7.040  0.00  0.00    -0.285 N 
HETATM   16  H   UNK N   1      24.991  24.947  -7.857  0.00  0.00     0.178 HD
BRANCH  15  17
HETATM   17  S   UNK N   1      26.126  23.398  -6.439  0.00  0.00     0.227 S 
HETATM   18  O   UNK N   1      26.204  23.586  -4.917  0.00  0.00    -0.206 OA
HETATM   19  O   UNK N   1      24.912  22.465  -6.564  0.00  0.00    -0.206 OA
HETATM   20  C   UNK N   1      27.637  22.670  -7.131  0.00  0.00     0.186 C 
ENDBRANCH  15  17
ENDBRANCH  13  15
ENDBRANCH   1   9
BRANCH   5  21
HETATM   21  C   UNK N   1      29.495  24.425  -3.983  0.00  0.00     0.310 C 
BRANCH  21  22
HETATM   22  C   UNK N   1      30.480  23.397  -3.384  0.00  0.00     0.092 C 
HETATM   23  C   UNK N   1      29.961  21.983  -3.713  0.00  0.00     0.079 C 
HETATM   24  C   UNK N   1      30.726  21.657  -4.931  0.00  0.00    -0.049 A 
HETATM   25  C   UNK N   1      30.490  20.586  -5.791  0.00  0.00     0.007 A 
HETATM   26  C   UNK N   1      31.750  22.531  -5.150  0.00  0.00    -0.049 A 
HETATM   27  C   UNK N   1      31.320  20.432  -6.912  0.00  0.00     0.001 A 
HETATM   28  C   UNK N   1      32.368  21.342  -7.145  0.00  0.00     0.001 A 
HETATM   29  C   UNK N   1      32.594  22.400  -6.251  0.00  0.00     0.007 A 
HETATM   30  C   UNK N   1      31.843  23.555  -4.095  0.00  0.00     0.079 C 
BRANCH  22  31
HETATM   31  O   UNK N   1      30.598  23.549  -2.000  0.00  0.00    -0.387 OA
HETATM   32  H   UNK N   1      30.189  24.165  -1.372  0.00  0.00     0.210 HD
ENDBRANCH  22  31
ENDBRANCH  21  22
ENDBRANCH   5  21
TORSDOF 7
ENDMDL
MODEL 5
REMARK VINA RESULT:      -7.3     17.345     20.473
REMARK  7 active torsions:
REMARK  status: ('A' for Active; 'I' for Inactive)
REMARK    1  A    between atoms: C_3  and  C_2 
REMARK    2  A    between atoms: C_3  and  C_20 
REMARK    3  A    between atoms: N_7  and  C_9 
REMARK    4  A    between atoms: C_9  and  C_10 
REMARK    5  A    between atoms: C_10  and  O_19 
REMARK    6  A    between atoms: C_24  and  N_26 
REMARK    7  A    between atoms: N_26  and  S_27 
ROOT
HETATM    1  C   UNK N   1      35.608  12.652  10.213  0.00  0.00    -0.002 A 
HETATM    2  C   UNK N   1      34.426  13.114   9.346  0.00  0.00     0.034 A 
HETATM    3  C   UNK N   1      35.873  13.416   8.935  0.00  0.00     0.034 A 
HETATM    4  C   UNK N   1      36.019  14.901   9.087  0.00  0.00     0.278 C 
HETATM    5  N   UNK N   1      34.699  15.443   8.852  0.00  0.00     0.092 N 
HETATM    6  C   UNK N   1      33.859  14.520   9.594  0.00  0.00     0.278 C 
ENDROOT
BRANCH   1   7
HETATM    7  C   UNK N   1      35.950  11.177  10.014  0.00  0.00     0.011 C 
HETATM    8  C   UNK N   1      37.430  10.886  10.198  0.00  0.00     0.006 C 
ENDBRANCH   1   7
BRANCH   1   9
HETATM    9  C   UNK N   1      35.546  13.137  11.647  0.00  0.00    -0.046 A 
HETATM   10  C   UNK N   1      36.275  14.254  12.082  0.00  0.00     0.008 A 
HETATM   11  C   UNK N   1      36.335  14.564  13.448  0.00  0.00     0.003 A 
HETATM   12  C   UNK N   1      35.723  13.725  14.388  0.00  0.00     0.030 A 
HETATM   13  C   UNK N   1      35.001  12.601  13.961  0.00  0.00     0.042 A 
HETATM   14  C   UNK N   1      34.909  12.330  12.596  0.00  0.00     0.038 A 
BRANCH  13  15
HETATM   15  N   UNK N   1      34.435  11.680  14.874  0.00  0.00    -0.285 N 
HETATM   16  H   UNK N   1      33.542  11.316  14.674  0.00  0.00     0.178 HD
BRANCH  15  17
HETATM   17  S   UNK N   1      35.238  11.146  16.345  0.00  0.00     0.227 S 
HETATM   18  O   UNK N   1      34.655   9.750  16.610  0.00  0.00    -0.206 OA
HETATM   19  O   UNK N   1      36.662  10.793  15.886  0.00  0.00    -0.206 OA
HETATM   20  C   UNK N   1      35.223  12.202  17.819  0.00  0.00     0.186 C 
ENDBRANCH  15  17
ENDBRANCH  13  15
ENDBRANCH   1   9
BRANCH   5  21
HETATM   21  C   UNK N   1      34.491  16.814   9.345  0.00  0.00     0.310 C 
BRANCH  21  22
HETATM   22  C   UNK N   1      34.126  17.877   8.286  0.00  0.00     0.092 C 
HETATM   23  C   UNK N   1      34.195  17.217   6.895  0.00  0.00     0.079 C 
HETATM   24  C   UNK N   1      32.786  16.845   6.667  0.00  0.00    -0.049 A 
HETATM   25  C   UNK N   1      32.306  16.010   5.661  0.00  0.00     0.007 A 
HETATM   26  C   UNK N   1      31.944  17.432   7.566  0.00  0.00    -0.049 A 
HETATM   27  C   UNK N   1      30.926  15.761   5.598  0.00  0.00     0.001 A 
HETATM   28  C   UNK N   1      30.058  16.355   6.534  0.00  0.00     0.001 A 
HETATM   29  C   UNK N   1      30.569  17.208   7.525  0.00  0.00     0.007 A 
HETATM   30  C   UNK N   1      32.659  18.307   8.510  0.00  0.00     0.079 C 
BRANCH  22  31
HETATM   31  O   UNK N   1      34.998  18.968   8.336  0.00  0.00    -0.387 OA
HETATM   32  H   UNK N   1      35.065  19.725   8.939  0.00  0.00     0.210 HD
ENDBRANCH  22  31
ENDBRANCH  21  22
ENDBRANCH   5  21
TORSDOF 7
ENDMDL
MODEL 6
REMARK VINA RESULT:      -7.2     11.785     15.459
REMARK  7 active torsions:
REMARK  status: ('A' for Active; 'I' for Inactive)
REMARK    1  A    between atoms: C_3  and  C_2 
REMARK    2  A    between atoms: C_3  and  C_20 
REMARK    3  A    between atoms: N_7  and  C_9 
REMARK    4  A    between atoms: C_9  and  C_10 
REMARK    5  A    between atoms: C_10  and  O_19 
REMARK    6  A    between atoms: C_24  and  N_26 
REMARK    7  A    between atoms: N_26  and  S_27 
ROOT
HETATM    1  C   UNK N   1      26.815  19.321   4.399  0.00  0.00    -0.002 A 
HETATM    2  C   UNK N   1      27.564  19.514   5.727  0.00  0.00     0.034 A 
HETATM    3  C   UNK N   1      28.323  19.434   4.396  0.00  0.00     0.034 A 
HETATM    4  C   UNK N   1      29.069  18.133   4.451  0.00  0.00     0.278 C 
HETATM    5  N   UNK N   1      29.331  17.899   5.854  0.00  0.00     0.092 N 
HETATM    6  C   UNK N   1      28.062  18.259   6.460  0.00  0.00     0.278 C 
ENDROOT
BRANCH   1   7
HETATM    7  C   UNK N   1      26.199  20.615   3.872  0.00  0.00     0.011 C 
HETATM    8  C   UNK N   1      25.258  20.384   2.701  0.00  0.00     0.006 C 
ENDBRANCH   1   7
BRANCH   1   9
HETATM    9  C   UNK N   1      25.925  18.095   4.367  0.00  0.00    -0.046 A 
HETATM   10  C   UNK N   1      26.003  17.153   3.330  0.00  0.00     0.008 A 
HETATM   11  C   UNK N   1      25.047  16.131   3.238  0.00  0.00     0.003 A 
HETATM   12  C   UNK N   1      23.975  16.086   4.139  0.00  0.00     0.030 A 
HETATM   13  C   UNK N   1      23.885  17.032   5.171  0.00  0.00     0.042 A 
HETATM   14  C   UNK N   1      24.869  18.014   5.281  0.00  0.00     0.038 A 
BRANCH  13  15
HETATM   15  N   UNK N   1      22.781  17.078   6.054  0.00  0.00    -0.285 N 
HETATM   16  H   UNK N   1      22.848  16.591   6.908  0.00  0.00     0.178 HD
BRANCH  15  17
HETATM   17  S   UNK N   1      21.295  17.956   5.714  0.00  0.00     0.227 S 
HETATM   18  O   UNK N   1      20.205  16.874   5.718  0.00  0.00    -0.206 OA
HETATM   19  O   UNK N   1      20.990  18.695   7.025  0.00  0.00    -0.206 OA
HETATM   20  C   UNK N   1      21.197  19.041   4.264  0.00  0.00     0.186 C 
ENDBRANCH  15  17
ENDBRANCH  13  15
ENDBRANCH   1   9
BRANCH   5  21
HETATM   21  C   UNK N   1      29.675  16.511   6.201  0.00  0.00     0.310 C 
BRANCH  21  22
HETATM   22  C   UNK N   1      31.016  15.978   5.651  0.00  0.00     0.092 C 
HETATM   23  C   UNK N   1      32.002  17.158   5.553  0.00  0.00     0.079 C 
HETATM   24  C   UNK N   1      32.743  17.038   6.822  0.00  0.00    -0.049 A 
HETATM   25  C   UNK N   1      33.607  17.987   7.365  0.00  0.00     0.007 A 
HETATM   26  C   UNK N   1      32.511  15.848   7.448  0.00  0.00    -0.049 A 
HETATM   27  C   UNK N   1      34.225  17.704   8.593  0.00  0.00     0.001 A 
HETATM   28  C   UNK N   1      33.975  16.483   9.246  0.00  0.00     0.001 A 
HETATM   29  C   UNK N   1      33.115  15.537   8.665  0.00  0.00     0.007 A 
HETATM   30  C   UNK N   1      31.603  14.982   6.677  0.00  0.00     0.079 C 
BRANCH  22  31
HETATM   31  O   UNK N   1      30.854  15.389   4.394  0.00  0.00    -0.387 OA
HETATM   32  H   UNK N   1      30.103  15.349   3.782  0.00  0.00     0.210 HD
ENDBRANCH  22  31
ENDBRANCH  21  22
ENDBRANCH   5  21
TORSDOF 7
ENDMDL
MODEL 7
REMARK VINA RESULT:      -7.1     15.458     18.943
REMARK  7 active torsions:
REMARK  status: ('A' for Active; 'I' for Inactive)
REMARK    1  A    between atoms: C_3  and  C_2 
REMARK    2  A    between atoms: C_3  and  C_20 
REMARK    3  A    between atoms: N_7  and  C_9 
REMARK    4  A    between atoms: C_9  and  C_10 
REMARK    5  A    between atoms: C_10  and  O_19 
REMARK    6  A    between atoms: C_24  and  N_26 
REMARK    7  A    between atoms: N_26  and  S_27 
ROOT
HETATM    1  C   UNK N   1      35.737  13.857  11.782  0.00  0.00    -0.002 A 
HETATM    2  C   UNK N   1      35.805  15.392  11.792  0.00  0.00     0.034 A 
HETATM    3  C   UNK N   1      34.470  14.662  11.601  0.00  0.00     0.034 A 
HETATM    4  C   UNK N   1      34.076  14.937  10.180  0.00  0.00     0.278 C 
HETATM    5  N   UNK N   1      34.651  16.225   9.863  0.00  0.00     0.092 N 
HETATM    6  C   UNK N   1      35.977  16.112  10.445  0.00  0.00     0.278 C 
ENDROOT
BRANCH   1   7
HETATM    7  C   UNK N   1      35.770  13.252  13.185  0.00  0.00     0.011 C 
HETATM    8  C   UNK N   1      34.754  12.137  13.368  0.00  0.00     0.006 C 
ENDBRANCH   1   7
BRANCH   1   9
HETATM    9  C   UNK N   1      36.639  13.207  10.752  0.00  0.00    -0.046 A 
HETATM   10  C   UNK N   1      38.037  13.254  10.859  0.00  0.00     0.008 A 
HETATM   11  C   UNK N   1      38.837  12.801   9.800  0.00  0.00     0.003 A 
HETATM   12  C   UNK N   1      38.245  12.363   8.608  0.00  0.00     0.030 A 
HETATM   13  C   UNK N   1      36.848  12.323   8.491  0.00  0.00     0.042 A 
HETATM   14  C   UNK N   1      36.063  12.731   9.569  0.00  0.00     0.038 A 
BRANCH  13  15
HETATM   15  N   UNK N   1      36.205  11.967   7.282  0.00  0.00    -0.285 N 
HETATM   16  H   UNK N   1      36.169  11.013   7.039  0.00  0.00     0.178 HD
BRANCH  15  17
HETATM   17  S   UNK N   1      35.467  13.130   6.189  0.00  0.00     0.227 S 
HETATM   18  O   UNK N   1      36.426  14.329   6.206  0.00  0.00    -0.206 OA
HETATM   19  O   UNK N   1      35.733  12.552   4.792  0.00  0.00    -0.206 OA
HETATM   20  C   UNK N   1      33.735  13.618   6.422  0.00  0.00     0.186 C 
ENDBRANCH  15  17
ENDBRANCH  13  15
ENDBRANCH   1   9
BRANCH   5  21
HETATM   21  C   UNK N   1      34.761  16.522   8.426  0.00  0.00     0.310 C 
BRANCH  21  22
HETATM   22  C   UNK N   1      34.117  17.842   7.947  0.00  0.00     0.092 C 
HETATM   23  C   UNK N   1      33.937  17.764   6.418  0.00  0.00     0.079 C 
HETATM   24  C   UNK N   1      32.539  17.312   6.301  0.00  0.00    -0.049 A 
HETATM   25  C   UNK N   1      31.914  16.854   5.142  0.00  0.00     0.007 A 
HETATM   26  C   UNK N   1      31.865  17.397   7.484  0.00  0.00    -0.049 A 
HETATM   27  C   UNK N   1      30.570  16.457   5.218  0.00  0.00     0.001 A 
HETATM   28  C   UNK N   1      29.879  16.531   6.442  0.00  0.00     0.001 A 
HETATM   29  C   UNK N   1      30.529  17.015   7.589  0.00  0.00     0.007 A 
HETATM   30  C   UNK N   1      32.703  17.947   8.563  0.00  0.00     0.079 C 
BRANCH  22  31
HETATM   31  O   UNK N   1      34.908  18.945   8.276  0.00  0.00    -0.387 OA
HETATM   32  H   UNK N   1      34.710  19.782   8.725  0.00  0.00     0.210 HD
ENDBRANCH  22  31
ENDBRANCH  21  22
ENDBRANCH   5  21
TORSDOF 7
ENDMDL
MODEL 8
REMARK VINA RESULT:      -7.1     12.433     15.538
REMARK  7 active torsions:
REMARK  status: ('A' for Active; 'I' for Inactive)
REMARK    1  A    between atoms: C_3  and  C_2 
REMARK    2  A    between atoms: C_3  and  C_20 
REMARK    3  A    between atoms: N_7  and  C_9 
REMARK    4  A    between atoms: C_9  and  C_10 
REMARK    5  A    between atoms: C_10  and  O_19 
REMARK    6  A    between atoms: C_24  and  N_26 
REMARK    7  A    between atoms: N_26  and  S_27 
ROOT
HETATM    1  C   UNK N   1      27.038  16.430   4.169  0.00  0.00    -0.002 A 
HETATM    2  C   UNK N   1      28.131  16.144   3.128  0.00  0.00     0.034 A 
HETATM    3  C   UNK N   1      27.966  15.252   4.364  0.00  0.00     0.034 A 
HETATM    4  C   UNK N   1      29.181  15.517   5.202  0.00  0.00     0.278 C 
HETATM    5  N   UNK N   1      30.224  15.873   4.265  0.00  0.00     0.092 N 
HETATM    6  C   UNK N   1      29.520  16.760   3.357  0.00  0.00     0.278 C 
ENDROOT
BRANCH   1   7
HETATM    7  C   UNK N   1      25.660  15.937   3.734  0.00  0.00     0.011 C 
HETATM    8  C   UNK N   1      24.786  15.522   4.906  0.00  0.00     0.006 C 
ENDBRANCH   1   7
BRANCH   1   9
HETATM    9  C   UNK N   1      27.095  17.827   4.754  0.00  0.00    -0.046 A 
HETATM   10  C   UNK N   1      27.187  18.966   3.940  0.00  0.00     0.008 A 
HETATM   11  C   UNK N   1      27.418  20.223   4.517  0.00  0.00     0.003 A 
HETATM   12  C   UNK N   1      27.624  20.337   5.898  0.00  0.00     0.030 A 
HETATM   13  C   UNK N   1      27.544  19.200   6.716  0.00  0.00     0.042 A 
HETATM   14  C   UNK N   1      27.265  17.963   6.137  0.00  0.00     0.038 A 
BRANCH  13  15
HETATM   15  N   UNK N   1      27.825  19.252   8.102  0.00  0.00    -0.285 N 
HETATM   16  H   UNK N   1      27.456  20.002   8.623  0.00  0.00     0.178 HD
BRANCH  15  17
HETATM   17  S   UNK N   1      28.792  18.051   8.947  0.00  0.00     0.227 S 
HETATM   18  O   UNK N   1      29.300  18.783  10.198  0.00  0.00    -0.206 OA
HETATM   19  O   UNK N   1      27.755  17.097   9.558  0.00  0.00    -0.206 OA
HETATM   20  C   UNK N   1      30.113  17.171   8.068  0.00  0.00     0.186 C 
ENDBRANCH  15  17
ENDBRANCH  13  15
ENDBRANCH   1   9
BRANCH   5  21
HETATM   21  C   UNK N   1      31.378  16.572   4.852  0.00  0.00     0.310 C 
BRANCH  21  22
HETATM   22  C   UNK N   1      32.704  15.782   4.906  0.00  0.00     0.092 C 
HETATM   23  C   UNK N   1      33.811  16.731   5.407  0.00  0.00     0.079 C 
HETATM   24  C   UNK N   1      33.841  16.424   6.849  0.00  0.00    -0.049 A 
HETATM   25  C   UNK N   1      34.503  17.155   7.834  0.00  0.00     0.007 A 
HETATM   26  C   UNK N   1      33.140  15.294   7.154  0.00  0.00    -0.049 A 
HETATM   27  C   UNK N   1      34.418  16.716   9.164  0.00  0.00     0.001 A 
HETATM   28  C   UNK N   1      33.683  15.558   9.481  0.00  0.00     0.001 A 
HETATM   29  C   UNK N   1      33.042  14.831   8.465  0.00  0.00     0.007 A 
HETATM   30  C   UNK N   1      32.561  14.659   5.958  0.00  0.00     0.079 C 
BRANCH  22  31
HETATM   31  O   UNK N   1      33.047  15.274   3.651  0.00  0.00    -0.387 OA
HETATM   32  H   UNK N   1      33.828  14.798   3.328  0.00  0.00     0.210 HD
ENDBRANCH  22  31
ENDBRANCH  21  22
ENDBRANCH   5  21
TORSDOF 7
ENDMDL
MODEL 9
REMARK VINA RESULT:      -7.0     16.076     19.394
REMARK  7 active torsions:
REMARK  status: ('A' for Active; 'I' for Inactive)
REMARK    1  A    between atoms: C_3  and  C_2 
REMARK    2  A    between atoms: C_3  and  C_20 
REMARK    3  A    between atoms: N_7  and  C_9 
REMARK    4  A    between atoms: C_9  and  C_10 
REMARK    5  A    between atoms: C_10  and  O_19 
REMARK    6  A    between atoms: C_24  and  N_26 
REMARK    7  A    between atoms: N_26  and  S_27 
ROOT
HETATM    1  C   UNK N   1      35.674  14.009  11.513  0.00  0.00    -0.002 A 
HETATM    2  C   UNK N   1      36.115  15.305  10.814  0.00  0.00     0.034 A 
HETATM    3  C   UNK N   1      34.738  15.197  11.481  0.00  0.00     0.034 A 
HETATM    4  C   UNK N   1      33.755  15.215  10.349  0.00  0.00     0.278 C 
HETATM    5  N   UNK N   1      34.385  15.991   9.303  0.00  0.00     0.092 N 
HETATM    6  C   UNK N   1      35.745  15.484   9.333  0.00  0.00     0.278 C 
ENDROOT
BRANCH   1   7
HETATM    7  C   UNK N   1      36.269  13.858  12.912  0.00  0.00     0.011 C 
HETATM    8  C   UNK N   1      35.561  12.798  13.740  0.00  0.00     0.006 C 
ENDBRANCH   1   7
BRANCH   1   9
HETATM    9  C   UNK N   1      35.727  12.781  10.626  0.00  0.00    -0.046 A 
HETATM   10  C   UNK N   1      36.930  12.326  10.067  0.00  0.00     0.008 A 
HETATM   11  C   UNK N   1      36.915  11.300   9.111  0.00  0.00     0.003 A 
HETATM   12  C   UNK N   1      35.697  10.773   8.664  0.00  0.00     0.030 A 
HETATM   13  C   UNK N   1      34.489  11.231   9.212  0.00  0.00     0.042 A 
HETATM   14  C   UNK N   1      34.521  12.218  10.196  0.00  0.00     0.038 A 
BRANCH  13  15
HETATM   15  N   UNK N   1      33.232  10.789   8.736  0.00  0.00    -0.285 N 
HETATM   16  H   UNK N   1      32.684  11.421   8.216  0.00  0.00     0.178 HD
BRANCH  15  17
HETATM   17  S   UNK N   1      32.595   9.175   9.017  0.00  0.00     0.227 S 
HETATM   18  O   UNK N   1      32.579   9.034  10.547  0.00  0.00    -0.206 OA
HETATM   19  O   UNK N   1      31.095   9.307   8.712  0.00  0.00    -0.206 OA
HETATM   20  C   UNK N   1      33.350   7.746   8.192  0.00  0.00     0.186 C 
ENDBRANCH  15  17
ENDBRANCH  13  15
ENDBRANCH   1   9
BRANCH   5  21
HETATM   21  C   UNK N   1      33.813  15.808   7.960  0.00  0.00     0.310 C 
BRANCH  21  22
HETATM   22  C   UNK N   1      33.426  17.094   7.197  0.00  0.00     0.092 C 
HETATM   23  C   UNK N   1      32.235  16.769   6.274  0.00  0.00     0.079 C 
HETATM   24  C   UNK N   1      31.090  17.194   7.099  0.00  0.00    -0.049 A 
HETATM   25  C   UNK N   1      29.747  16.918   6.850  0.00  0.00     0.007 A 
HETATM   26  C   UNK N   1      31.474  17.933   8.179  0.00  0.00    -0.049 A 
HETATM   27  C   UNK N   1      28.785  17.401   7.751  0.00  0.00     0.001 A 
HETATM   28  C   UNK N   1      29.183  18.151   8.873  0.00  0.00     0.001 A 
HETATM   29  C   UNK N   1      30.542  18.431   9.088  0.00  0.00     0.007 A 
HETATM   30  C   UNK N   1      32.932  18.139   8.222  0.00  0.00     0.079 C 
BRANCH  22  31
HETATM   31  O   UNK N   1      34.496  17.578   6.439  0.00  0.00    -0.387 OA
HETATM   32  H   UNK N   1      35.438  17.352   6.417  0.00  0.00     0.210 HD
ENDBRANCH  22  31
ENDBRANCH  21  22
ENDBRANCH   5  21
TORSDOF 7
ENDMDL
