REMARK  5 active torsions:
REMARK  status: ('A' for Active; 'I' for Inactive)
REMARK    1  A    between atoms: C_3  and  C_24 
REMARK    2  A    between atoms: C_6  and  C_7 
REMARK       I    between atoms: C_7  and  N_9 
REMARK    3  A    between atoms: N_9  and  N_10 
REMARK    4  A    between atoms: C_14  and  C_22 
REMARK    5  A    between atoms: C_17  and  C_21 
ROOT
HETATM    1  N   UNK N   1       3.650   0.750   0.315  0.00  0.00    -0.187 N 
HETATM    2  C   UNK N   1       2.908  -0.363   0.254  0.00  0.00     0.251 A 
HETATM    3  O   UNK N   1       3.347  -1.437  -0.129  0.00  0.00    -0.271 OA
HETATM    4  C   UNK N   1       1.495  -0.146   0.736  0.00  0.00     0.102 A 
HETATM    5  C   UNK N   1       0.386  -0.399  -0.323  0.00  0.00     0.026 C 
HETATM    6  C   UNK N   1       0.670   0.528  -1.497  0.00  0.00    -0.024 C 
HETATM    7  C   UNK N   1       0.716   1.834  -1.191  0.00  0.00    -0.024 C 
HETATM    8  C   UNK N   1       0.466   2.165   0.277  0.00  0.00     0.026 C 
HETATM    9  C   UNK N   1       1.518   1.392   1.116  0.00  0.00     0.102 A 
HETATM   10  C   UNK N   1       2.928   1.774   0.803  0.00  0.00     0.251 A 
HETATM   11  O   UNK N   1       3.389   2.882   1.030  0.00  0.00    -0.271 OA
ENDROOT
BRANCH   1  12
HETATM   12  N   UNK N   1       5.003   0.791   0.033  0.00  0.00    -0.254 N 
HETATM   13  C   UNK N   1       5.628   1.885  -0.486  0.00  0.00     0.270 C 
HETATM   14  O   UNK N   1       4.979   2.787  -0.995  0.00  0.00    -0.266 OA
HETATM   15  H   UNK N   1       5.543  -0.011   0.217  0.00  0.00     0.191 HD
BRANCH  13  16
HETATM   16  C   UNK N   1       7.094   2.007  -0.392  0.00  0.00     0.033 A 
HETATM   17  C   UNK N   1       7.853   1.003   0.226  0.00  0.00     0.018 A 
HETATM   18  C   UNK N   1       9.232   1.159   0.381  0.00  0.00     0.017 A 
HETATM   19  C   UNK N   1       9.867   2.322  -0.074  0.00  0.00     0.048 A 
HETATM   20  C   UNK N   1       9.109   3.326  -0.690  0.00  0.00     0.017 A 
HETATM   21  C   UNK N   1       7.730   3.172  -0.843  0.00  0.00     0.018 A 
BRANCH  19  22
HETATM   22  C   UNK N   1      11.350   2.476   0.092  0.00  0.00     0.417 C 
HETATM   23  F   UNK N   1      11.672   2.456   1.437  0.00  0.00    -0.166 F 
HETATM   24  F   UNK N   1      11.991   1.430  -0.545  0.00  0.00    -0.166 F 
HETATM   25  F   UNK N   1      11.791   3.669  -0.455  0.00  0.00    -0.166 F 
ENDBRANCH  19  22
ENDBRANCH  13  16
ENDBRANCH   1  12
BRANCH   5  26
HETATM   26  C   UNK N   1      -0.942   0.037   0.400  0.00  0.00    -0.001 A 
HETATM   27  C   UNK N   1      -0.895   1.551   0.749  0.00  0.00    -0.001 A 
HETATM   28  C   UNK N   1      -1.833   1.036  -0.340  0.00  0.00     0.011 A 
BRANCH  27  29
ENDBRANCH  27  29
ENDBRANCH   5  26
TORSDOF 5
