MODEL 1
REMARK VINA RESULT:      -8.4      0.000      0.000
REMARK  8 active torsions:
REMARK  status: ('A' for Active; 'I' for Inactive)
REMARK       I    between atoms: N_2  and  C_3 
REMARK    1  A    between atoms: C_3  and  C_5 
REMARK    2  A    between atoms: C_8  and  N_11 
REMARK       I    between atoms: N_11  and  C_12 
REMARK    3  A    between atoms: C_16  and  C_36 
REMARK    4  A    between atoms: C_17  and  N_20 
REMARK    5  A    between atoms: N_20  and  C_21 
REMARK    6  A    between atoms: C_21  and  C_22 
REMARK    7  A    between atoms: C_23  and  N_30 
REMARK    8  A    between atoms: N_30  and  S_32 
ROOT
HETATM    1  N   UNK N   1      28.074  17.163   6.632  0.00  0.00    -0.192 N 
HETATM    2  C   UNK N   1      27.336  17.940   5.689  0.00  0.00     0.684 A 
HETATM    3  N   UNK N   1      27.892  19.074   5.174  0.00  0.00    -0.201 N 
ATOM      4  HN  UNK N   1      28.833  19.339   5.467  1.00  0.00     0.183 HD
HETATM    5  C   UNK N   1      27.238  19.853   4.293  0.00  0.00     0.126 A 
HETATM    6  C   UNK N   1      25.949  19.525   3.899  0.00  0.00     0.107 A 
HETATM    7  C   UNK N   1      25.361  18.362   4.449  0.00  0.00     0.133 A 
HETATM    8  N   UNK N   1      26.074  17.593   5.327  0.00  0.00    -0.176 N 
ATOM      9  HN  UNK N   1      25.653  16.750   5.715  1.00  0.00     0.186 HD
HETATM   10  H   UNK N   1      27.703  16.339   7.024  0.00  0.00     0.184 HD
ENDROOT
BRANCH   7  11
HETATM   11  N   UNK N   1      24.059  17.960   4.057  0.00  0.00    -0.369 N 
HETATM   12  H   UNK N   1      23.923  17.511   3.191  0.00  0.00     0.161 HD
BRANCH  11  13
HETATM   13  C   UNK N   1      22.933  18.210   4.924  0.00  0.00     0.182 C 
BRANCH  13  14
HETATM   14  C   UNK N   1      21.655  18.391   4.172  0.00  0.00     0.072 A 
HETATM   15  C   UNK N   1      20.676  17.385   4.177  0.00  0.00     0.141 A 
HETATM   16  N   UNK N   1      19.539  17.555   3.450  0.00  0.00    -0.349 N 
HETATM   17  C   UNK N   1      19.342  18.678   2.710  0.00  0.00     0.106 A 
ATOM     18  HN  UNK N   1      18.822  16.830   3.461  1.00  0.00     0.167 HD
HETATM   19  C   UNK N   1      20.313  19.681   2.708  0.00  0.00     0.105 A 
HETATM   20  N   UNK N   1      21.449  19.518   3.439  0.00  0.00    -0.363 N 
ATOM     21  HN  UNK N   1      22.156  20.252   3.437  1.00  0.00     0.165 HD
BRANCH  15  22
HETATM   22  N   UNK N   1      20.856  16.207   4.938  0.00  0.00    -0.264 N 
HETATM   23  C   UNK N   1      21.430  15.056   4.293  0.00  0.00     0.171 C 
BRANCH  22  24
HETATM   24  S   UNK N   1      19.826  15.954   6.336  0.00  0.00     0.229 S 
HETATM   25  O   UNK N   1      19.977  14.461   6.658  0.00  0.00    -0.206 OA
HETATM   26  O   UNK N   1      18.388  16.033   5.805  0.00  0.00    -0.206 OA
HETATM   27  C   UNK N   1      20.127  17.008   7.783  0.00  0.00     0.186 C 
ENDBRANCH  22  24
ENDBRANCH  15  22
ENDBRANCH  13  14
ENDBRANCH  11  13
ENDBRANCH   7  11
BRANCH   6  28
HETATM   28  C   UNK N   1      25.254  20.394   2.886  0.00  0.00     0.422 C 
HETATM   29  F   UNK N   1      24.831  19.624   1.820  0.00  0.00    -0.166 F 
HETATM   30  F   UNK N   1      26.125  21.370   2.438  0.00  0.00    -0.166 F 
HETATM   31  F   UNK N   1      24.149  21.021   3.446  0.00  0.00    -0.166 F 
ENDBRANCH   6  28
BRANCH   1  32
HETATM   32  C   UNK N   1      29.363  17.634   6.976  0.00  0.00     0.049 A 
HETATM   33  C   UNK N   1      30.458  17.144   6.258  0.00  0.00     0.031 A 
HETATM   34  C   UNK N   1      31.720  17.097   6.856  0.00  0.00     0.019 A 
HETATM   35  C   UNK N   1      31.879  17.507   8.190  0.00  0.00     0.032 A 
HETATM   36  C   UNK N   1      30.801  18.082   8.869  0.00  0.00     0.019 A 
HETATM   37  C   UNK N   1      29.554  18.146   8.267  0.00  0.00     0.031 A 
BRANCH  35  38
HETATM   38  C   UNK N   1      33.098  17.152   8.937  0.00  0.00     0.251 C 
HETATM   39  N   UNK N   1      33.156  15.960   9.584  0.00  0.00    -0.361 N 
HETATM   40  C   UNK N   1      34.368  15.476  10.193  0.00  0.00     0.149 C 
HETATM   41  H   UNK N   1      32.343  15.408   9.638  0.00  0.00     0.162 HD
HETATM   42  O   UNK N   1      34.087  17.867   8.870  0.00  0.00    -0.268 OA
ENDBRANCH  35  38
ENDBRANCH   1  32
TORSDOF 8
ENDMDL
MODEL 2
REMARK VINA RESULT:      -8.1      4.499     11.240
REMARK  8 active torsions:
REMARK  status: ('A' for Active; 'I' for Inactive)
REMARK       I    between atoms: N_2  and  C_3 
REMARK    1  A    between atoms: C_3  and  C_5 
REMARK    2  A    between atoms: C_8  and  N_11 
REMARK       I    between atoms: N_11  and  C_12 
REMARK    3  A    between atoms: C_16  and  C_36 
REMARK    4  A    between atoms: C_17  and  N_20 
REMARK    5  A    between atoms: N_20  and  C_21 
REMARK    6  A    between atoms: C_21  and  C_22 
REMARK    7  A    between atoms: C_23  and  N_30 
REMARK    8  A    between atoms: N_30  and  S_32 
ROOT
HETATM    1  N   UNK N   1      27.126  18.191   4.254  0.00  0.00    -0.192 N 
HETATM    2  C   UNK N   1      27.915  18.114   5.442  0.00  0.00     0.684 A 
HETATM    3  N   UNK N   1      27.486  18.742   6.573  0.00  0.00    -0.201 N 
ATOM      4  HN  UNK N   1      26.600  19.248   6.551  1.00  0.00     0.183 HD
HETATM    5  C   UNK N   1      28.195  18.715   7.717  0.00  0.00     0.126 A 
HETATM    6  C   UNK N   1      29.413  18.054   7.764  0.00  0.00     0.107 A 
HETATM    7  C   UNK N   1      29.872  17.421   6.585  0.00  0.00     0.133 A 
HETATM    8  N   UNK N   1      29.106  17.461   5.453  0.00  0.00    -0.176 N 
ATOM      9  HN  UNK N   1      29.433  16.996   4.607  1.00  0.00     0.186 HD
HETATM   10  H   UNK N   1      27.406  17.749   3.419  0.00  0.00     0.184 HD
ENDROOT
BRANCH   7  11
HETATM   11  N   UNK N   1      31.095  16.702   6.583  0.00  0.00    -0.369 N 
HETATM   12  H   UNK N   1      31.130  15.792   6.959  0.00  0.00     0.161 HD
BRANCH  11  13
HETATM   13  C   UNK N   1      32.286  17.302   6.033  0.00  0.00     0.182 C 
BRANCH  13  14
HETATM   14  C   UNK N   1      33.387  16.313   5.828  0.00  0.00     0.072 A 
HETATM   15  C   UNK N   1      34.383  16.143   6.804  0.00  0.00     0.141 A 
HETATM   16  N   UNK N   1      35.399  15.267   6.577  0.00  0.00    -0.349 N 
HETATM   17  C   UNK N   1      35.471  14.566   5.414  0.00  0.00     0.106 A 
ATOM     18  HN  UNK N   1      36.116  15.134   7.288  1.00  0.00     0.167 HD
HETATM   19  C   UNK N   1      34.480  14.731   4.447  0.00  0.00     0.105 A 
HETATM   20  N   UNK N   1      33.458  15.600   4.672  0.00  0.00    -0.363 N 
ATOM     21  HN  UNK N   1      32.734  15.719   3.965  1.00  0.00     0.165 HD
BRANCH  15  22
HETATM   22  N   UNK N   1      34.330  16.860   8.021  0.00  0.00    -0.264 N 
HETATM   23  C   UNK N   1      34.588  18.275   7.993  0.00  0.00     0.171 C 
BRANCH  22  24
HETATM   24  S   UNK N   1      34.622  15.988   9.515  0.00  0.00     0.229 S 
HETATM   25  O   UNK N   1      34.954  17.082  10.539  0.00  0.00    -0.206 OA
HETATM   26  O   UNK N   1      35.978  15.293   9.326  0.00  0.00    -0.206 OA
HETATM   27  C   UNK N   1      33.308  14.876  10.092  0.00  0.00     0.186 C 
ENDBRANCH  22  24
ENDBRANCH  15  22
ENDBRANCH  13  14
ENDBRANCH  11  13
ENDBRANCH   7  11
BRANCH   6  28
HETATM   28  C   UNK N   1      30.168  18.009   9.064  0.00  0.00     0.422 C 
HETATM   29  F   UNK N   1      29.433  18.630  10.055  0.00  0.00    -0.166 F 
HETATM   30  F   UNK N   1      31.384  18.650   8.916  0.00  0.00    -0.166 F 
HETATM   31  F   UNK N   1      30.413  16.698   9.450  0.00  0.00    -0.166 F 
ENDBRANCH   6  28
BRANCH   1  32
HETATM   32  C   UNK N   1      25.924  18.932   4.336  0.00  0.00     0.049 A 
HETATM   33  C   UNK N   1      24.782  18.286   4.818  0.00  0.00     0.031 A 
HETATM   34  C   UNK N   1      23.515  18.716   4.417  0.00  0.00     0.019 A 
HETATM   35  C   UNK N   1      23.391  19.772   3.500  0.00  0.00     0.032 A 
HETATM   36  C   UNK N   1      24.531  20.473   3.096  0.00  0.00     0.019 A 
HETATM   37  C   UNK N   1      25.787  20.056   3.511  0.00  0.00     0.031 A 
BRANCH  35  38
HETATM   38  C   UNK N   1      22.112  20.014   2.811  0.00  0.00     0.251 C 
HETATM   39  N   UNK N   1      21.092  19.134   2.978  0.00  0.00    -0.361 N 
HETATM   40  C   UNK N   1      19.768  19.389   2.473  0.00  0.00     0.149 C 
HETATM   41  H   UNK N   1      21.263  18.294   3.461  0.00  0.00     0.162 HD
HETATM   42  O   UNK N   1      21.933  21.057   2.199  0.00  0.00    -0.268 OA
ENDBRANCH  35  38
ENDBRANCH   1  32
TORSDOF 8
ENDMDL
MODEL 3
REMARK VINA RESULT:      -8.1      4.613      9.698
REMARK  8 active torsions:
REMARK  status: ('A' for Active; 'I' for Inactive)
REMARK       I    between atoms: N_2  and  C_3 
REMARK    1  A    between atoms: C_3  and  C_5 
REMARK    2  A    between atoms: C_8  and  N_11 
REMARK       I    between atoms: N_11  and  C_12 
REMARK    3  A    between atoms: C_16  and  C_36 
REMARK    4  A    between atoms: C_17  and  N_20 
REMARK    5  A    between atoms: N_20  and  C_21 
REMARK    6  A    between atoms: C_21  and  C_22 
REMARK    7  A    between atoms: C_23  and  N_30 
REMARK    8  A    between atoms: N_30  and  S_32 
ROOT
HETATM    1  N   UNK N   1      27.187  18.299   4.261  0.00  0.00    -0.192 N 
HETATM    2  C   UNK N   1      27.947  18.214   5.467  0.00  0.00     0.684 A 
HETATM    3  N   UNK N   1      27.484  18.824   6.594  0.00  0.00    -0.201 N 
ATOM      4  HN  UNK N   1      26.595  19.322   6.557  1.00  0.00     0.183 HD
HETATM    5  C   UNK N   1      28.165  18.790   7.756  0.00  0.00     0.126 A 
HETATM    6  C   UNK N   1      29.389  18.140   7.824  0.00  0.00     0.107 A 
HETATM    7  C   UNK N   1      29.883  17.526   6.649  0.00  0.00     0.133 A 
HETATM    8  N   UNK N   1      29.144  17.573   5.499  0.00  0.00    -0.176 N 
ATOM      9  HN  UNK N   1      29.497  17.122   4.655  1.00  0.00     0.186 HD
HETATM   10  H   UNK N   1      27.492  17.871   3.428  0.00  0.00     0.184 HD
ENDROOT
BRANCH   7  11
HETATM   11  N   UNK N   1      31.112  16.819   6.669  0.00  0.00    -0.369 N 
HETATM   12  H   UNK N   1      31.946  17.287   6.905  0.00  0.00     0.161 HD
BRANCH  11  13
HETATM   13  C   UNK N   1      31.143  15.414   6.342  0.00  0.00     0.182 C 
BRANCH  13  14
HETATM   14  C   UNK N   1      31.888  15.133   5.078  0.00  0.00     0.072 A 
HETATM   15  C   UNK N   1      31.265  14.451   4.019  0.00  0.00     0.141 A 
HETATM   16  N   UNK N   1      31.977  14.169   2.895  0.00  0.00    -0.349 N 
HETATM   17  C   UNK N   1      33.285  14.525   2.786  0.00  0.00     0.106 A 
ATOM     18  HN  UNK N   1      31.524  13.683   2.122  1.00  0.00     0.167 HD
HETATM   19  C   UNK N   1      33.902  15.207   3.836  0.00  0.00     0.105 A 
HETATM   20  N   UNK N   1      33.193  15.497   4.959  0.00  0.00    -0.363 N 
ATOM     21  HN  UNK N   1      33.646  15.996   5.724  1.00  0.00     0.165 HD
BRANCH  15  22
HETATM   22  N   UNK N   1      29.907  14.069   4.107  0.00  0.00    -0.264 N 
HETATM   23  C   UNK N   1      29.599  12.731   4.538  0.00  0.00     0.171 C 
BRANCH  22  24
HETATM   24  S   UNK N   1      28.737  14.915   3.111  0.00  0.00     0.229 S 
HETATM   25  O   UNK N   1      29.376  16.286   2.850  0.00  0.00    -0.206 OA
HETATM   26  O   UNK N   1      27.577  15.266   4.052  0.00  0.00    -0.206 OA
HETATM   27  C   UNK N   1      28.210  14.094   1.580  0.00  0.00     0.186 C 
ENDBRANCH  22  24
ENDBRANCH  15  22
ENDBRANCH  13  14
ENDBRANCH  11  13
ENDBRANCH   7  11
BRANCH   6  28
HETATM   28  C   UNK N   1      30.112  18.086   9.142  0.00  0.00     0.422 C 
HETATM   29  F   UNK N   1      29.371  18.733  10.111  0.00  0.00    -0.166 F 
HETATM   30  F   UNK N   1      31.347  18.694   9.017  0.00  0.00    -0.166 F 
HETATM   31  F   UNK N   1      30.314  16.772   9.542  0.00  0.00    -0.166 F 
ENDBRANCH   6  28
BRANCH   1  32
HETATM   32  C   UNK N   1      25.976  19.027   4.322  0.00  0.00     0.049 A 
HETATM   33  C   UNK N   1      24.843  18.382   4.826  0.00  0.00     0.031 A 
HETATM   34  C   UNK N   1      23.570  18.784   4.414  0.00  0.00     0.019 A 
HETATM   35  C   UNK N   1      23.432  19.810   3.466  0.00  0.00     0.032 A 
HETATM   36  C   UNK N   1      24.562  20.512   3.038  0.00  0.00     0.019 A 
HETATM   37  C   UNK N   1      25.824  20.124   3.463  0.00  0.00     0.031 A 
BRANCH  35  38
HETATM   38  C   UNK N   1      22.148  20.015   2.772  0.00  0.00     0.251 C 
HETATM   39  N   UNK N   1      21.076  19.263   3.127  0.00  0.00    -0.361 N 
HETATM   40  C   UNK N   1      19.756  19.518   2.612  0.00  0.00     0.149 C 
HETATM   41  H   UNK N   1      21.205  18.518   3.757  0.00  0.00     0.162 HD
HETATM   42  O   UNK N   1      22.021  20.935   1.977  0.00  0.00    -0.268 OA
ENDBRANCH  35  38
ENDBRANCH   1  32
TORSDOF 8
ENDMDL
MODEL 4
REMARK VINA RESULT:      -8.0      5.083      7.167
REMARK  8 active torsions:
REMARK  status: ('A' for Active; 'I' for Inactive)
REMARK       I    between atoms: N_2  and  C_3 
REMARK    1  A    between atoms: C_3  and  C_5 
REMARK    2  A    between atoms: C_8  and  N_11 
REMARK       I    between atoms: N_11  and  C_12 
REMARK    3  A    between atoms: C_16  and  C_36 
REMARK    4  A    between atoms: C_17  and  N_20 
REMARK    5  A    between atoms: N_20  and  C_21 
REMARK    6  A    between atoms: C_21  and  C_22 
REMARK    7  A    between atoms: C_23  and  N_30 
REMARK    8  A    between atoms: N_30  and  S_32 
ROOT
HETATM    1  N   UNK N   1      32.934  16.638   8.836  0.00  0.00    -0.192 N 
HETATM    2  C   UNK N   1      32.836  16.549   7.414  0.00  0.00     0.684 A 
HETATM    3  N   UNK N   1      33.754  15.816   6.724  0.00  0.00    -0.201 N 
ATOM      4  HN  UNK N   1      34.491  15.334   7.240  1.00  0.00     0.183 HD
HETATM    5  C   UNK N   1      33.720  15.709   5.382  0.00  0.00     0.126 A 
HETATM    6  C   UNK N   1      32.743  16.375   4.657  0.00  0.00     0.107 A 
HETATM    7  C   UNK N   1      31.803  17.156   5.369  0.00  0.00     0.133 A 
HETATM    8  N   UNK N   1      31.869  17.218   6.734  0.00  0.00    -0.176 N 
ATOM      9  HN  UNK N   1      31.185  17.773   7.246  1.00  0.00     0.186 HD
HETATM   10  H   UNK N   1      32.288  17.159   9.366  0.00  0.00     0.184 HD
ENDROOT
BRANCH   7  11
HETATM   11  N   UNK N   1      30.762  17.832   4.683  0.00  0.00    -0.369 N 
HETATM   12  H   UNK N   1      30.930  18.715   4.281  0.00  0.00     0.161 HD
BRANCH  11  13
HETATM   13  C   UNK N   1      29.457  17.227   4.574  0.00  0.00     0.182 C 
BRANCH  13  14
HETATM   14  C   UNK N   1      28.348  18.214   4.749  0.00  0.00     0.072 A 
HETATM   15  C   UNK N   1      27.463  18.107   5.834  0.00  0.00     0.141 A 
HETATM   16  N   UNK N   1      26.436  18.991   5.948  0.00  0.00    -0.349 N 
HETATM   17  C   UNK N   1      26.247  19.969   5.022  0.00  0.00     0.106 A 
ATOM     18  HN  UNK N   1      25.799  18.922   6.741  1.00  0.00     0.167 HD
HETATM   19  C   UNK N   1      27.129  20.078   3.947  0.00  0.00     0.105 A 
HETATM   20  N   UNK N   1      28.162  19.200   3.831  0.00  0.00    -0.363 N 
ATOM     21  HN  UNK N   1      28.806  19.283   3.046  1.00  0.00     0.165 HD
BRANCH  15  22
HETATM   22  N   UNK N   1      27.637  17.100   6.810  0.00  0.00    -0.264 N 
HETATM   23  C   UNK N   1      26.741  15.974   6.801  0.00  0.00     0.171 C 
BRANCH  22  24
HETATM   24  S   UNK N   1      28.420  17.530   8.320  0.00  0.00     0.229 S 
HETATM   25  O   UNK N   1      29.668  16.638   8.373  0.00  0.00    -0.206 OA
HETATM   26  O   UNK N   1      27.538  16.929   9.424  0.00  0.00    -0.206 OA
HETATM   27  C   UNK N   1      28.811  19.284   8.576  0.00  0.00     0.186 C 
ENDBRANCH  22  24
ENDBRANCH  15  22
ENDBRANCH  13  14
ENDBRANCH  11  13
ENDBRANCH   7  11
BRANCH   6  28
HETATM   28  C   UNK N   1      32.706  16.210   3.162  0.00  0.00     0.422 C 
HETATM   29  F   UNK N   1      32.525  17.439   2.559  0.00  0.00    -0.166 F 
HETATM   30  F   UNK N   1      31.669  15.364   2.816  0.00  0.00    -0.166 F 
HETATM   31  F   UNK N   1      33.891  15.658   2.696  0.00  0.00    -0.166 F 
ENDBRANCH   6  28
BRANCH   1  32
HETATM   32  C   UNK N   1      34.004  15.940   9.445  0.00  0.00     0.049 A 
HETATM   33  C   UNK N   1      33.843  14.575   9.696  0.00  0.00     0.031 A 
HETATM   34  C   UNK N   1      34.545  13.969  10.741  0.00  0.00     0.019 A 
HETATM   35  C   UNK N   1      35.383  14.742  11.562  0.00  0.00     0.032 A 
HETATM   36  C   UNK N   1      35.610  16.085  11.248  0.00  0.00     0.019 A 
HETATM   37  C   UNK N   1      34.927  16.679  10.198  0.00  0.00     0.031 A 
BRANCH  35  38
HETATM   38  C   UNK N   1      35.855  14.212  12.853  0.00  0.00     0.251 C 
HETATM   39  N   UNK N   1      36.606  15.004  13.660  0.00  0.00    -0.361 N 
HETATM   40  C   UNK N   1      36.962  14.616  15.000  0.00  0.00     0.149 C 
HETATM   41  H   UNK N   1      36.916  15.874  13.318  0.00  0.00     0.162 HD
HETATM   42  O   UNK N   1      35.471  13.119  13.244  0.00  0.00    -0.268 OA
ENDBRANCH  35  38
ENDBRANCH   1  32
TORSDOF 8
ENDMDL
MODEL 5
REMARK VINA RESULT:      -7.7      4.468     10.579
REMARK  8 active torsions:
REMARK  status: ('A' for Active; 'I' for Inactive)
REMARK       I    between atoms: N_2  and  C_3 
REMARK    1  A    between atoms: C_3  and  C_5 
REMARK    2  A    between atoms: C_8  and  N_11 
REMARK       I    between atoms: N_11  and  C_12 
REMARK    3  A    between atoms: C_16  and  C_36 
REMARK    4  A    between atoms: C_17  and  N_20 
REMARK    5  A    between atoms: N_20  and  C_21 
REMARK    6  A    between atoms: C_21  and  C_22 
REMARK    7  A    between atoms: C_23  and  N_30 
REMARK    8  A    between atoms: N_30  and  S_32 
ROOT
HETATM    1  N   UNK N   1      27.111  18.148   4.321  0.00  0.00    -0.192 N 
HETATM    2  C   UNK N   1      27.897  18.118   5.513  0.00  0.00     0.684 A 
HETATM    3  N   UNK N   1      27.480  18.815   6.608  0.00  0.00    -0.201 N 
ATOM      4  HN  UNK N   1      26.605  19.337   6.557  1.00  0.00     0.183 HD
HETATM    5  C   UNK N   1      28.187  18.835   7.753  0.00  0.00     0.126 A 
HETATM    6  C   UNK N   1      29.392  18.153   7.837  0.00  0.00     0.107 A 
HETATM    7  C   UNK N   1      29.839  17.448   6.694  0.00  0.00     0.133 A 
HETATM    8  N   UNK N   1      29.075  17.443   5.560  0.00  0.00    -0.176 N 
ATOM      9  HN  UNK N   1      29.393  16.927   4.741  1.00  0.00     0.186 HD
HETATM   10  H   UNK N   1      27.382  17.657   3.512  0.00  0.00     0.184 HD
ENDROOT
BRANCH   7  11
HETATM   11  N   UNK N   1      31.046  16.705   6.733  0.00  0.00    -0.369 N 
HETATM   12  H   UNK N   1      31.087  15.859   7.236  0.00  0.00     0.161 HD
BRANCH  11  13
HETATM   13  C   UNK N   1      32.215  17.188   6.038  0.00  0.00     0.182 C 
BRANCH  13  14
HETATM   14  C   UNK N   1      33.360  16.231   6.104  0.00  0.00     0.072 A 
HETATM   15  C   UNK N   1      33.553  15.277   5.091  0.00  0.00     0.141 A 
HETATM   16  N   UNK N   1      34.578  14.389   5.195  0.00  0.00    -0.349 N 
HETATM   17  C   UNK N   1      35.411  14.403   6.269  0.00  0.00     0.106 A 
ATOM     18  HN  UNK N   1      34.725  13.704   4.455  1.00  0.00     0.167 HD
HETATM   19  C   UNK N   1      35.223  15.354   7.274  0.00  0.00     0.105 A 
HETATM   20  N   UNK N   1      34.204  16.248   7.171  0.00  0.00    -0.363 N 
ATOM     21  HN  UNK N   1      34.069  16.942   7.906  1.00  0.00     0.165 HD
BRANCH  15  22
HETATM   22  N   UNK N   1      32.701  15.241   3.964  0.00  0.00    -0.264 N 
HETATM   23  C   UNK N   1      32.710  16.364   3.063  0.00  0.00     0.171 C 
BRANCH  22  24
HETATM   24  S   UNK N   1      31.260  14.244   4.039  0.00  0.00     0.229 S 
HETATM   25  O   UNK N   1      30.098  15.246   4.018  0.00  0.00    -0.206 OA
HETATM   26  O   UNK N   1      31.207  13.710   5.477  0.00  0.00    -0.206 OA
HETATM   27  C   UNK N   1      31.083  12.952   2.776  0.00  0.00     0.186 C 
ENDBRANCH  22  24
ENDBRANCH  15  22
ENDBRANCH  13  14
ENDBRANCH  11  13
ENDBRANCH   7  11
BRANCH   6  28
HETATM   28  C   UNK N   1      30.146  18.162   9.139  0.00  0.00     0.422 C 
HETATM   29  F   UNK N   1      31.454  18.546   8.922  0.00  0.00    -0.166 F 
HETATM   30  F   UNK N   1      30.118  16.898   9.698  0.00  0.00    -0.166 F 
HETATM   31  F   UNK N   1      29.568  19.048  10.039  0.00  0.00    -0.166 F 
ENDBRANCH   6  28
BRANCH   1  32
HETATM   32  C   UNK N   1      25.924  18.917   4.361  0.00  0.00     0.049 A 
HETATM   33  C   UNK N   1      24.762  18.312   4.850  0.00  0.00     0.031 A 
HETATM   34  C   UNK N   1      23.509  18.754   4.417  0.00  0.00     0.019 A 
HETATM   35  C   UNK N   1      23.421  19.781   3.463  0.00  0.00     0.032 A 
HETATM   36  C   UNK N   1      24.580  20.443   3.050  0.00  0.00     0.019 A 
HETATM   37  C   UNK N   1      25.821  20.015   3.496  0.00  0.00     0.031 A 
BRANCH  35  38
HETATM   38  C   UNK N   1      22.156  20.026   2.748  0.00  0.00     0.251 C 
HETATM   39  N   UNK N   1      21.049  19.323   3.100  0.00  0.00    -0.361 N 
HETATM   40  C   UNK N   1      19.747  19.623   2.563  0.00  0.00     0.149 C 
HETATM   41  H   UNK N   1      21.140  18.584   3.743  0.00  0.00     0.162 HD
HETATM   42  O   UNK N   1      22.076  20.938   1.937  0.00  0.00    -0.268 OA
ENDBRANCH  35  38
ENDBRANCH   1  32
TORSDOF 8
ENDMDL
MODEL 6
REMARK VINA RESULT:      -7.7      4.526     10.637
REMARK  8 active torsions:
REMARK  status: ('A' for Active; 'I' for Inactive)
REMARK       I    between atoms: N_2  and  C_3 
REMARK    1  A    between atoms: C_3  and  C_5 
REMARK    2  A    between atoms: C_8  and  N_11 
REMARK       I    between atoms: N_11  and  C_12 
REMARK    3  A    between atoms: C_16  and  C_36 
REMARK    4  A    between atoms: C_17  and  N_20 
REMARK    5  A    between atoms: N_20  and  C_21 
REMARK    6  A    between atoms: C_21  and  C_22 
REMARK    7  A    between atoms: C_23  and  N_30 
REMARK    8  A    between atoms: N_30  and  S_32 
ROOT
HETATM    1  N   UNK N   1      26.819  17.662   4.533  0.00  0.00    -0.192 N 
HETATM    2  C   UNK N   1      27.705  17.725   5.651  0.00  0.00     0.684 A 
HETATM    3  N   UNK N   1      27.407  18.548   6.696  0.00  0.00    -0.201 N 
ATOM      4  HN  UNK N   1      26.548  19.096   6.663  1.00  0.00     0.183 HD
HETATM    5  C   UNK N   1      28.212  18.659   7.769  0.00  0.00     0.126 A 
HETATM    6  C   UNK N   1      29.398  17.941   7.824  0.00  0.00     0.107 A 
HETATM    7  C   UNK N   1      29.721  17.104   6.731  0.00  0.00     0.133 A 
HETATM    8  N   UNK N   1      28.861  17.012   5.672  0.00  0.00    -0.176 N 
ATOM      9  HN  UNK N   1      29.090  16.401   4.889  1.00  0.00     0.186 HD
HETATM   10  H   UNK N   1      27.003  17.079   3.761  0.00  0.00     0.184 HD
ENDROOT
BRANCH   7  11
HETATM   11  N   UNK N   1      30.904  16.322   6.748  0.00  0.00    -0.369 N 
HETATM   12  H   UNK N   1      30.989  15.573   7.383  0.00  0.00     0.161 HD
BRANCH  11  13
HETATM   13  C   UNK N   1      31.982  16.622   5.838  0.00  0.00     0.182 C 
BRANCH  13  14
HETATM   14  C   UNK N   1      32.351  15.457   4.978  0.00  0.00     0.072 A 
HETATM   15  C   UNK N   1      33.346  14.554   5.388  0.00  0.00     0.141 A 
HETATM   16  N   UNK N   1      33.694  13.526   4.568  0.00  0.00    -0.349 N 
HETATM   17  C   UNK N   1      33.103  13.367   3.354  0.00  0.00     0.106 A 
ATOM     18  HN  UNK N   1      34.408  12.864   4.869  1.00  0.00     0.167 HD
HETATM   19  C   UNK N   1      32.111  14.261   2.948  0.00  0.00     0.105 A 
HETATM   20  N   UNK N   1      31.755  15.287   3.767  0.00  0.00    -0.363 N 
ATOM     21  HN  UNK N   1      31.030  15.938   3.469  1.00  0.00     0.165 HD
BRANCH  15  22
HETATM   22  N   UNK N   1      33.976  14.697   6.645  0.00  0.00    -0.264 N 
HETATM   23  C   UNK N   1      35.318  15.213   6.683  0.00  0.00     0.171 C 
BRANCH  22  24
HETATM   24  S   UNK N   1      33.434  13.681   7.968  0.00  0.00     0.229 S 
HETATM   25  O   UNK N   1      32.683  12.530   7.286  0.00  0.00    -0.206 OA
HETATM   26  O   UNK N   1      32.298  14.460   8.645  0.00  0.00    -0.206 OA
HETATM   27  C   UNK N   1      34.702  13.090   9.127  0.00  0.00     0.186 C 
ENDBRANCH  22  24
ENDBRANCH  15  22
ENDBRANCH  13  14
ENDBRANCH  11  13
ENDBRANCH   7  11
BRANCH   6  28
HETATM   28  C   UNK N   1      30.262  18.056   9.051  0.00  0.00     0.422 C 
HETATM   29  F   UNK N   1      31.527  18.483   8.696  0.00  0.00    -0.166 F 
HETATM   30  F   UNK N   1      30.345  16.825   9.675  0.00  0.00    -0.166 F 
HETATM   31  F   UNK N   1      29.724  18.965   9.952  0.00  0.00    -0.166 F 
ENDBRANCH   6  28
BRANCH   1  32
HETATM   32  C   UNK N   1      25.664  18.478   4.589  0.00  0.00     0.049 A 
HETATM   33  C   UNK N   1      24.461  17.891   4.992  0.00  0.00     0.031 A 
HETATM   34  C   UNK N   1      23.245  18.419   4.550  0.00  0.00     0.019 A 
HETATM   35  C   UNK N   1      23.235  19.515   3.673  0.00  0.00     0.032 A 
HETATM   36  C   UNK N   1      24.435  20.153   3.351  0.00  0.00     0.019 A 
HETATM   37  C   UNK N   1      25.640  19.639   3.805  0.00  0.00     0.031 A 
BRANCH  35  38
HETATM   38  C   UNK N   1      22.008  19.867   2.936  0.00  0.00     0.251 C 
HETATM   39  N   UNK N   1      20.892  19.115   3.111  0.00  0.00    -0.361 N 
HETATM   40  C   UNK N   1      19.618  19.494   2.556  0.00  0.00     0.149 C 
HETATM   41  H   UNK N   1      20.954  18.284   3.634  0.00  0.00     0.162 HD
HETATM   42  O   UNK N   1      21.964  20.894   2.275  0.00  0.00    -0.268 OA
ENDBRANCH  35  38
ENDBRANCH   1  32
TORSDOF 8
ENDMDL
MODEL 7
REMARK VINA RESULT:      -7.7      2.269      2.865
REMARK  8 active torsions:
REMARK  status: ('A' for Active; 'I' for Inactive)
REMARK       I    between atoms: N_2  and  C_3 
REMARK    1  A    between atoms: C_3  and  C_5 
REMARK    2  A    between atoms: C_8  and  N_11 
REMARK       I    between atoms: N_11  and  C_12 
REMARK    3  A    between atoms: C_16  and  C_36 
REMARK    4  A    between atoms: C_17  and  N_20 
REMARK    5  A    between atoms: N_20  and  C_21 
REMARK    6  A    between atoms: C_21  and  C_22 
REMARK    7  A    between atoms: C_23  and  N_30 
REMARK    8  A    between atoms: N_30  and  S_32 
ROOT
HETATM    1  N   UNK N   1      29.307  15.906   3.225  0.00  0.00    -0.192 N 
HETATM    2  C   UNK N   1      28.620  17.076   3.669  0.00  0.00     0.684 A 
HETATM    3  N   UNK N   1      29.250  17.944   4.509  0.00  0.00    -0.201 N 
ATOM      4  HN  UNK N   1      30.208  17.746   4.797  1.00  0.00     0.183 HD
HETATM    5  C   UNK N   1      28.647  19.056   4.971  0.00  0.00     0.126 A 
HETATM    6  C   UNK N   1      27.336  19.334   4.613  0.00  0.00     0.107 A 
HETATM    7  C   UNK N   1      26.671  18.422   3.760  0.00  0.00     0.133 A 
HETATM    8  N   UNK N   1      27.334  17.317   3.302  0.00  0.00    -0.176 N 
ATOM      9  HN  UNK N   1      26.857  16.665   2.680  1.00  0.00     0.186 HD
HETATM   10  H   UNK N   1      28.882  15.256   2.618  0.00  0.00     0.184 HD
ENDROOT
BRANCH   7  11
HETATM   11  N   UNK N   1      25.342  18.673   3.334  0.00  0.00    -0.369 N 
HETATM   12  H   UNK N   1      25.178  19.174   2.502  0.00  0.00     0.161 HD
BRANCH  11  13
HETATM   13  C   UNK N   1      24.229  18.194   4.118  0.00  0.00     0.182 C 
BRANCH  13  14
HETATM   14  C   UNK N   1      22.940  18.854   3.752  0.00  0.00     0.072 A 
HETATM   15  C   UNK N   1      21.715  18.213   3.998  0.00  0.00     0.141 A 
HETATM   16  N   UNK N   1      20.557  18.815   3.618  0.00  0.00    -0.349 N 
HETATM   17  C   UNK N   1      20.568  20.022   2.991  0.00  0.00     0.106 A 
ATOM     18  HN  UNK N   1      19.666  18.356   3.805  1.00  0.00     0.167 HD
HETATM   19  C   UNK N   1      21.784  20.662   2.751  0.00  0.00     0.105 A 
HETATM   20  N   UNK N   1      22.945  20.067   3.136  0.00  0.00    -0.363 N 
ATOM     21  HN  UNK N   1      23.833  20.536   2.960  1.00  0.00     0.165 HD
BRANCH  15  22
HETATM   22  N   UNK N   1      21.676  16.958   4.648  0.00  0.00    -0.264 N 
HETATM   23  C   UNK N   1      21.514  15.776   3.843  0.00  0.00     0.171 C 
BRANCH  22  24
HETATM   24  S   UNK N   1      21.163  16.903   6.324  0.00  0.00     0.229 S 
HETATM   25  O   UNK N   1      21.321  18.346   6.822  0.00  0.00    -0.206 OA
HETATM   26  O   UNK N   1      22.287  16.172   7.072  0.00  0.00    -0.206 OA
HETATM   27  C   UNK N   1      19.510  16.232   6.660  0.00  0.00     0.186 C 
ENDBRANCH  22  24
ENDBRANCH  15  22
ENDBRANCH  13  14
ENDBRANCH  11  13
ENDBRANCH   7  11
BRANCH   6  28
HETATM   28  C   UNK N   1      26.697  20.601   5.114  0.00  0.00     0.422 C 
HETATM   29  F   UNK N   1      25.713  20.298   6.035  0.00  0.00    -0.166 F 
HETATM   30  F   UNK N   1      26.143  21.291   4.052  0.00  0.00    -0.166 F 
HETATM   31  F   UNK N   1      27.637  21.421   5.723  0.00  0.00    -0.166 F 
ENDBRANCH   6  28
BRANCH   1  32
HETATM   32  C   UNK N   1      30.627  15.725   3.699  0.00  0.00     0.049 A 
HETATM   33  C   UNK N   1      30.803  15.125   4.950  0.00  0.00     0.031 A 
HETATM   34  C   UNK N   1      31.940  15.412   5.709  0.00  0.00     0.019 A 
HETATM   35  C   UNK N   1      32.887  16.333   5.231  0.00  0.00     0.032 A 
HETATM   36  C   UNK N   1      32.752  16.856   3.942  0.00  0.00     0.019 A 
HETATM   37  C   UNK N   1      31.632  16.554   3.182  0.00  0.00     0.031 A 
BRANCH  35  38
HETATM   38  C   UNK N   1      33.897  16.902   6.140  0.00  0.00     0.251 C 
HETATM   39  N   UNK N   1      33.525  17.864   7.023  0.00  0.00    -0.361 N 
HETATM   40  C   UNK N   1      34.413  18.347   8.049  0.00  0.00     0.149 C 
HETATM   41  H   UNK N   1      32.620  18.244   6.960  0.00  0.00     0.162 HD
HETATM   42  O   UNK N   1      35.021  16.426   6.183  0.00  0.00    -0.268 OA
ENDBRANCH  35  38
ENDBRANCH   1  32
TORSDOF 8
ENDMDL
MODEL 8
REMARK VINA RESULT:      -7.6      6.824     10.101
REMARK  8 active torsions:
REMARK  status: ('A' for Active; 'I' for Inactive)
REMARK       I    between atoms: N_2  and  C_3 
REMARK    1  A    between atoms: C_3  and  C_5 
REMARK    2  A    between atoms: C_8  and  N_11 
REMARK       I    between atoms: N_11  and  C_12 
REMARK    3  A    between atoms: C_16  and  C_36 
REMARK    4  A    between atoms: C_17  and  N_20 
REMARK    5  A    between atoms: N_20  and  C_21 
REMARK    6  A    between atoms: C_21  and  C_22 
REMARK    7  A    between atoms: C_23  and  N_30 
REMARK    8  A    between atoms: N_30  and  S_32 
ROOT
HETATM    1  N   UNK N   1      34.205  13.571  11.392  0.00  0.00    -0.192 N 
HETATM    2  C   UNK N   1      34.138  14.729  10.558  0.00  0.00     0.684 A 
HETATM    3  N   UNK N   1      35.231  15.533  10.439  0.00  0.00    -0.201 N 
ATOM      4  HN  UNK N   1      36.083  15.286  10.942  1.00  0.00     0.183 HD
HETATM    5  C   UNK N   1      35.221  16.645   9.680  0.00  0.00     0.126 A 
HETATM    6  C   UNK N   1      34.065  17.015   9.007  0.00  0.00     0.107 A 
HETATM    7  C   UNK N   1      32.922  16.194   9.147  0.00  0.00     0.133 A 
HETATM    8  N   UNK N   1      32.989  15.065   9.916  0.00  0.00    -0.176 N 
ATOM      9  HN  UNK N   1      32.167  14.469  10.008  1.00  0.00     0.186 HD
HETATM   10  H   UNK N   1      33.435  12.968  11.501  0.00  0.00     0.184 HD
ENDROOT
BRANCH   7  11
HETATM   11  N   UNK N   1      31.724  16.505   8.455  0.00  0.00    -0.369 N 
HETATM   12  H   UNK N   1      31.087  17.152   8.840  0.00  0.00     0.161 HD
BRANCH  11  13
HETATM   13  C   UNK N   1      31.435  15.876   7.190  0.00  0.00     0.182 C 
BRANCH  13  14
HETATM   14  C   UNK N   1      30.482  16.668   6.356  0.00  0.00     0.072 A 
HETATM   15  C   UNK N   1      30.730  16.873   4.989  0.00  0.00     0.141 A 
HETATM   16  N   UNK N   1      29.870  17.633   4.259  0.00  0.00    -0.349 N 
HETATM   17  C   UNK N   1      28.781  18.208   4.837  0.00  0.00     0.106 A 
ATOM     18  HN  UNK N   1      30.043  17.774   3.265  1.00  0.00     0.167 HD
HETATM   19  C   UNK N   1      28.532  18.000   6.194  0.00  0.00     0.105 A 
HETATM   20  N   UNK N   1      29.385  17.235   6.926  0.00  0.00    -0.363 N 
ATOM     21  HN  UNK N   1      29.201  17.084   7.917  1.00  0.00     0.165 HD
BRANCH  15  22
HETATM   22  N   UNK N   1      31.855  16.287   4.364  0.00  0.00    -0.264 N 
HETATM   23  C   UNK N   1      32.906  17.151   3.895  0.00  0.00     0.171 C 
BRANCH  22  24
HETATM   24  S   UNK N   1      31.662  14.719   3.601  0.00  0.00     0.229 S 
HETATM   25  O   UNK N   1      32.704  14.709   2.475  0.00  0.00    -0.206 OA
HETATM   26  O   UNK N   1      30.340  14.801   2.826  0.00  0.00    -0.206 OA
HETATM   27  C   UNK N   1      31.787  13.259   4.673  0.00  0.00     0.186 C 
ENDBRANCH  22  24
ENDBRANCH  15  22
ENDBRANCH  13  14
ENDBRANCH  11  13
ENDBRANCH   7  11
BRANCH   6  28
HETATM   28  C   UNK N   1      34.091  18.242   8.136  0.00  0.00     0.422 C 
HETATM   29  F   UNK N   1      32.960  19.002   8.363  0.00  0.00    -0.166 F 
HETATM   30  F   UNK N   1      34.140  17.865   6.807  0.00  0.00    -0.166 F 
HETATM   31  F   UNK N   1      35.209  19.019   8.409  0.00  0.00    -0.166 F 
ENDBRANCH   6  28
BRANCH   1  32
HETATM   32  C   UNK N   1      35.434  13.334  12.052  0.00  0.00     0.049 A 
HETATM   33  C   UNK N   1      36.344  12.456  11.457  0.00  0.00     0.031 A 
HETATM   34  C   UNK N   1      37.256  11.753  12.249  0.00  0.00     0.019 A 
HETATM   35  C   UNK N   1      37.231  11.901  13.645  0.00  0.00     0.032 A 
HETATM   36  C   UNK N   1      36.383  12.849  14.224  0.00  0.00     0.019 A 
HETATM   37  C   UNK N   1      35.492  13.560  13.434  0.00  0.00     0.031 A 
BRANCH  35  38
HETATM   38  C   UNK N   1      37.932  10.935  14.509  0.00  0.00     0.251 C 
HETATM   39  N   UNK N   1      37.212  10.001  15.179  0.00  0.00    -0.361 N 
HETATM   40  C   UNK N   1      37.837   8.927  15.907  0.00  0.00     0.149 C 
HETATM   41  H   UNK N   1      36.229  10.059  15.167  0.00  0.00     0.162 HD
HETATM   42  O   UNK N   1      39.154  10.899  14.521  0.00  0.00    -0.268 OA
ENDBRANCH  35  38
ENDBRANCH   1  32
TORSDOF 8
ENDMDL
MODEL 9
REMARK VINA RESULT:      -7.6      2.160      2.825
REMARK  8 active torsions:
REMARK  status: ('A' for Active; 'I' for Inactive)
REMARK       I    between atoms: N_2  and  C_3 
REMARK    1  A    between atoms: C_3  and  C_5 
REMARK    2  A    between atoms: C_8  and  N_11 
REMARK       I    between atoms: N_11  and  C_12 
REMARK    3  A    between atoms: C_16  and  C_36 
REMARK    4  A    between atoms: C_17  and  N_20 
REMARK    5  A    between atoms: N_20  and  C_21 
REMARK    6  A    between atoms: C_21  and  C_22 
REMARK    7  A    between atoms: C_23  and  N_30 
REMARK    8  A    between atoms: N_30  and  S_32 
ROOT
HETATM    1  N   UNK N   1      28.043  18.076   6.367  0.00  0.00    -0.192 N 
HETATM    2  C   UNK N   1      27.044  17.216   5.818  0.00  0.00     0.684 A 
HETATM    3  N   UNK N   1      27.243  15.868   5.825  0.00  0.00    -0.201 N 
ATOM      4  HN  UNK N   1      28.101  15.498   6.234  1.00  0.00     0.183 HD
HETATM    5  C   UNK N   1      26.343  15.010   5.308  0.00  0.00     0.126 A 
HETATM    6  C   UNK N   1      25.181  15.492   4.724  0.00  0.00     0.107 A 
HETATM    7  C   UNK N   1      24.983  16.893   4.694  0.00  0.00     0.133 A 
HETATM    8  N   UNK N   1      25.918  17.721   5.250  0.00  0.00    -0.176 N 
ATOM      9  HN  UNK N   1      25.769  18.729   5.236  1.00  0.00     0.186 HD
HETATM   10  H   UNK N   1      27.932  19.055   6.379  0.00  0.00     0.184 HD
ENDROOT
BRANCH   7  11
HETATM   11  N   UNK N   1      23.797  17.440   4.140  0.00  0.00    -0.369 N 
HETATM   12  H   UNK N   1      23.761  17.667   3.182  0.00  0.00     0.161 HD
BRANCH  11  13
HETATM   13  C   UNK N   1      22.645  17.665   4.977  0.00  0.00     0.182 C 
BRANCH  13  14
HETATM   14  C   UNK N   1      21.472  18.189   4.215  0.00  0.00     0.072 A 
HETATM   15  C   UNK N   1      20.380  17.355   3.923  0.00  0.00     0.141 A 
HETATM   16  N   UNK N   1      19.343  17.843   3.191  0.00  0.00    -0.349 N 
HETATM   17  C   UNK N   1      19.353  19.121   2.728  0.00  0.00     0.106 A 
ATOM     18  HN  UNK N   1      18.545  17.242   2.988  1.00  0.00     0.167 HD
HETATM   19  C   UNK N   1      20.435  19.951   3.021  0.00  0.00     0.105 A 
HETATM   20  N   UNK N   1      21.472  19.470   3.759  0.00  0.00    -0.363 N 
ATOM     21  HN  UNK N   1      22.261  20.079   3.973  1.00  0.00     0.165 HD
BRANCH  15  22
HETATM   22  N   UNK N   1      20.345  16.022   4.393  0.00  0.00    -0.264 N 
HETATM   23  C   UNK N   1      20.467  14.955   3.436  0.00  0.00     0.171 C 
BRANCH  22  24
HETATM   24  S   UNK N   1      19.522  15.694   5.908  0.00  0.00     0.229 S 
HETATM   25  O   UNK N   1      19.655  14.177   6.096  0.00  0.00    -0.206 OA
HETATM   26  O   UNK N   1      18.027  15.859   5.605  0.00  0.00    -0.206 OA
HETATM   27  C   UNK N   1      20.076  16.624   7.366  0.00  0.00     0.186 C 
ENDBRANCH  22  24
ENDBRANCH  15  22
ENDBRANCH  13  14
ENDBRANCH  11  13
ENDBRANCH   7  11
BRANCH   6  28
HETATM   28  C   UNK N   1      24.176  14.511   4.185  0.00  0.00     0.422 C 
HETATM   29  F   UNK N   1      23.105  14.413   5.052  0.00  0.00    -0.166 F 
HETATM   30  F   UNK N   1      24.771  13.272   4.039  0.00  0.00    -0.166 F 
HETATM   31  F   UNK N   1      23.704  14.916   2.944  0.00  0.00    -0.166 F 
ENDBRANCH   6  28
BRANCH   1  32
HETATM   32  C   UNK N   1      29.198  17.453   6.895  0.00  0.00     0.049 A 
HETATM   33  C   UNK N   1      29.431  17.551   8.270  0.00  0.00     0.031 A 
HETATM   34  C   UNK N   1      30.737  17.486   8.763  0.00  0.00     0.019 A 
HETATM   35  C   UNK N   1      31.816  17.359   7.873  0.00  0.00     0.032 A 
HETATM   36  C   UNK N   1      31.570  17.167   6.511  0.00  0.00     0.019 A 
HETATM   37  C   UNK N   1      30.271  17.213   6.026  0.00  0.00     0.031 A 
BRANCH  35  38
HETATM   38  C   UNK N   1      33.192  17.628   8.328  0.00  0.00     0.251 C 
HETATM   39  N   UNK N   1      33.653  17.010   9.444  0.00  0.00    -0.361 N 
HETATM   40  C   UNK N   1      35.031  17.094   9.854  0.00  0.00     0.149 C 
HETATM   41  H   UNK N   1      33.026  16.485   9.992  0.00  0.00     0.162 HD
HETATM   42  O   UNK N   1      33.944  18.301   7.639  0.00  0.00    -0.268 OA
ENDBRANCH  35  38
ENDBRANCH   1  32
TORSDOF 8
ENDMDL
