REMARK  4 active torsions:
REMARK  status: ('A' for Active; 'I' for Inactive)
REMARK    1  A    between atoms: C_4  and  O_5 
REMARK    2  A    between atoms: C_10  and  C_11 
REMARK    3  A    between atoms: C_14  and  N_15 
REMARK    4  A    between atoms: N_15  and  N_16 
ROOT
HETATM    1  N   UNK N   1      -4.788   1.078   0.355  0.00  0.00    -0.282 N 
ATOM      2  HN  UNK N   1      -4.178   1.886   0.477  1.00  0.00     0.188 HD
HETATM    3  C   UNK N   1      -6.007   1.220   0.015  0.00  0.00     0.209 C 
HETATM    4  C   UNK N   1      -6.832   0.030  -0.164  0.00  0.00     0.130 C 
HETATM    5  N   UNK N   1      -7.391  -0.979  -0.277  0.00  0.00    -0.189 NA
HETATM    6  C   UNK N   1      -6.489   2.544  -0.202  0.00  0.00     0.130 C 
HETATM    7  N   UNK N   1      -6.812   3.641  -0.362  0.00  0.00    -0.189 NA
ENDROOT
BRANCH   1   8
HETATM    8  N   UNK N   1      -4.329  -0.183   0.548  0.00  0.00    -0.299 N 
HETATM    9  H   UNK N   1      -4.941  -0.863   0.910  0.00  0.00     0.187 HD
BRANCH   8  10
HETATM   10  C   UNK N   1      -3.034  -0.542   0.253  0.00  0.00     0.048 A 
HETATM   11  C   UNK N   1      -2.808  -1.884   0.073  0.00  0.00     0.032 A 
HETATM   12  C   UNK N   1      -1.539  -2.326  -0.131  0.00  0.00     0.016 A 
HETATM   13  C   UNK N   1      -0.467  -1.435  -0.141  0.00  0.00    -0.012 A 
HETATM   14  C   UNK N   1      -0.697  -0.055  -0.024  0.00  0.00     0.016 A 
HETATM   15  C   UNK N   1      -2.000   0.401   0.160  0.00  0.00     0.032 A 
BRANCH  13  16
HETATM   16  C   UNK N   1       0.859  -2.042  -0.127  0.00  0.00     0.040 C 
HETATM   17  N   UNK N   1       0.898  -3.332  -0.129  0.00  0.00    -0.302 N 
HETATM   18  N   UNK N   1       2.053  -4.065  -0.035  0.00  0.00    -0.283 N 
ATOM     19  HN  UNK N   1       0.015  -3.837  -0.205  1.00  0.00     0.186 HD
HETATM   20  C   UNK N   1       3.223  -3.534   0.006  0.00  0.00     0.130 C 
ATOM     21  HN  UNK N   1       1.981  -5.082   0.003  1.00  0.00     0.188 HD
HETATM   22  C   UNK N   1       3.430  -2.041  -0.040  0.00  0.00     0.096 C 
HETATM   23  C   UNK N   1       2.131  -1.261   0.038  0.00  0.00     0.041 C 
HETATM   24  C   UNK N   1       2.200   0.255  -0.063  0.00  0.00     0.017 C 
BRANCH  20  25
HETATM   25  O   UNK N   1       4.293  -4.339   0.069  0.00  0.00    -0.348 OA
HETATM   26  H   UNK N   1       4.180  -5.268   0.113  0.00  0.00     0.219 HD
ENDBRANCH  20  25
ENDBRANCH  13  16
ENDBRANCH   8  10
ENDBRANCH   1   8
TORSDOF 4
