MODEL 1
REMARK VINA RESULT:      -6.3      0.000      0.000
REMARK  0 active torsions:
REMARK  status: ('A' for Active; 'I' for Inactive)
ROOT
HETATM    1  C   UNK N   1      34.997  13.770  18.242  0.00  0.00     0.001 A 
HETATM    2  C   UNK N   1      35.287  12.942  19.323  0.00  0.00     0.011 A 
HETATM    3  C   UNK N   1      35.574  11.587  19.134  0.00  0.00    -0.014 A 
HETATM    4  C   UNK N   1      35.571  11.040  17.814  0.00  0.00     0.045 A 
HETATM    5  C   UNK N   1      35.265  11.903  16.727  0.00  0.00    -0.026 A 
HETATM    6  C   UNK N   1      34.981  13.252  16.952  0.00  0.00     0.010 A 
HETATM    7  C   UNK N   1      35.272  11.394  15.304  0.00  0.00     0.026 C 
HETATM    8  C   UNK N   1      33.893  11.416  14.682  0.00  0.00     0.010 C 
HETATM    9  C   UNK N   1      33.949  10.385  13.568  0.00  0.00     0.001 C 
HETATM   10  C   UNK N   1      35.156   9.493  13.841  0.00  0.00     0.007 C 
HETATM   11  C   UNK N   1      35.778   9.969  15.141  0.00  0.00     0.012 C 
HETATM   12  C   UNK N   1      35.327   9.095  16.301  0.00  0.00     0.128 C 
HETATM   13  N   UNK N   1      35.835   9.655  17.533  0.00  0.00    -0.378 N 
HETATM   14  C   UNK N   1      36.838   8.877  18.235  0.00  0.00     0.142 C 
HETATM   15  C   UNK N   1      36.587   8.745  19.716  0.00  0.00     0.134 C 
HETATM   16  N   UNK N   1      36.964   9.990  20.349  0.00  0.00    -0.416 N 
HETATM   17  C   UNK N   1      35.748  10.767  20.373  0.00  0.00     0.155 C 
HETATM   18  H   UNK N   1      37.884  10.259  20.698  0.00  0.00     0.153 HD
ENDROOT
TORSDOF 0
ENDMDL
MODEL 2
REMARK VINA RESULT:      -6.2     11.914     14.088
REMARK  0 active torsions:
REMARK  status: ('A' for Active; 'I' for Inactive)
ROOT
HETATM    1  C   UNK N   1      33.961  17.583   7.137  0.00  0.00     0.001 A 
HETATM    2  C   UNK N   1      33.770  17.136   5.833  0.00  0.00     0.011 A 
HETATM    3  C   UNK N   1      32.484  16.940   5.320  0.00  0.00    -0.014 A 
HETATM    4  C   UNK N   1      31.347  17.203   6.144  0.00  0.00     0.045 A 
HETATM    5  C   UNK N   1      31.566  17.652   7.475  0.00  0.00    -0.026 A 
HETATM    6  C   UNK N   1      32.865  17.835   7.954  0.00  0.00     0.010 A 
HETATM    7  C   UNK N   1      30.406  17.973   8.389  0.00  0.00     0.026 C 
HETATM    8  C   UNK N   1      30.322  17.023   9.563  0.00  0.00     0.010 C 
HETATM    9  C   UNK N   1      28.873  17.080  10.011  0.00  0.00     0.001 C 
HETATM   10  C   UNK N   1      28.070  17.681   8.861  0.00  0.00     0.007 C 
HETATM   11  C   UNK N   1      29.040  17.929   7.722  0.00  0.00     0.012 C 
HETATM   12  C   UNK N   1      28.967  16.803   6.703  0.00  0.00     0.128 C 
HETATM   13  N   UNK N   1      29.991  17.009   5.703  0.00  0.00    -0.378 N 
HETATM   14  C   UNK N   1      29.537  17.326   4.363  0.00  0.00     0.142 C 
HETATM   15  C   UNK N   1      30.224  16.534   3.278  0.00  0.00     0.134 C 
HETATM   16  N   UNK N   1      31.540  17.099   3.075  0.00  0.00    -0.416 N 
HETATM   17  C   UNK N   1      32.400  16.340   3.953  0.00  0.00     0.155 C 
HETATM   18  H   UNK N   1      31.802  17.863   2.452  0.00  0.00     0.153 HD
ENDROOT
TORSDOF 0
ENDMDL
MODEL 3
REMARK VINA RESULT:      -6.2     12.391     14.027
REMARK  0 active torsions:
REMARK  status: ('A' for Active; 'I' for Inactive)
ROOT
HETATM    1  C   UNK N   1      28.870  18.374   9.421  0.00  0.00     0.001 A 
HETATM    2  C   UNK N   1      28.010  18.445   8.328  0.00  0.00     0.011 A 
HETATM    3  C   UNK N   1      28.437  18.069   7.051  0.00  0.00    -0.014 A 
HETATM    4  C   UNK N   1      29.775  17.605   6.861  0.00  0.00     0.045 A 
HETATM    5  C   UNK N   1      30.637  17.547   7.990  0.00  0.00    -0.026 A 
HETATM    6  C   UNK N   1      30.177  17.933   9.251  0.00  0.00     0.010 A 
HETATM    7  C   UNK N   1      32.055  17.040   7.861  0.00  0.00     0.026 C 
HETATM    8  C   UNK N   1      33.077  18.123   8.125  0.00  0.00     0.010 C 
HETATM    9  C   UNK N   1      34.334  17.659   7.412  0.00  0.00     0.001 C 
HETATM   10  C   UNK N   1      33.912  16.591   6.407  0.00  0.00     0.007 C 
HETATM   11  C   UNK N   1      32.403  16.465   6.497  0.00  0.00     0.012 C 
HETATM   12  C   UNK N   1      31.734  17.258   5.385  0.00  0.00     0.128 C 
HETATM   13  N   UNK N   1      30.302  17.218   5.580  0.00  0.00    -0.378 N 
HETATM   14  C   UNK N   1      29.531  16.491   4.588  0.00  0.00     0.142 C 
HETATM   15  C   UNK N   1      28.310  17.228   4.098  0.00  0.00     0.134 C 
HETATM   16  N   UNK N   1      27.286  17.129   5.116  0.00  0.00    -0.416 N 
HETATM   17  C   UNK N   1      27.472  18.304   5.933  0.00  0.00     0.155 C 
HETATM   18  H   UNK N   1      26.590  16.392   5.229  0.00  0.00     0.153 HD
ENDROOT
TORSDOF 0
ENDMDL
MODEL 4
REMARK VINA RESULT:      -6.2     25.285     27.623
REMARK  0 active torsions:
REMARK  status: ('A' for Active; 'I' for Inactive)
ROOT
HETATM    1  C   UNK N   1      26.554  22.441  -7.406  0.00  0.00     0.001 A 
HETATM    2  C   UNK N   1      27.870  22.126  -7.081  0.00  0.00     0.011 A 
HETATM    3  C   UNK N   1      28.548  22.822  -6.076  0.00  0.00    -0.014 A 
HETATM    4  C   UNK N   1      27.885  23.872  -5.370  0.00  0.00     0.045 A 
HETATM    5  C   UNK N   1      26.543  24.181  -5.724  0.00  0.00    -0.026 A 
HETATM    6  C   UNK N   1      25.896  23.466  -6.735  0.00  0.00     0.010 A 
HETATM    7  C   UNK N   1      25.775  25.261  -4.998  0.00  0.00     0.026 C 
HETATM    8  C   UNK N   1      25.450  26.434  -5.897  0.00  0.00     0.010 C 
HETATM    9  C   UNK N   1      25.243  27.605  -4.954  0.00  0.00     0.001 C 
HETATM   10  C   UNK N   1      25.873  27.223  -3.617  0.00  0.00     0.007 C 
HETATM   11  C   UNK N   1      26.492  25.849  -3.793  0.00  0.00     0.012 C 
HETATM   12  C   UNK N   1      27.986  25.965  -4.050  0.00  0.00     0.128 C 
HETATM   13  N   UNK N   1      28.514  24.651  -4.337  0.00  0.00    -0.378 N 
HETATM   14  C   UNK N   1      29.424  24.087  -3.358  0.00  0.00     0.142 C 
HETATM   15  C   UNK N   1      30.671  23.483  -3.954  0.00  0.00     0.134 C 
HETATM   16  N   UNK N   1      30.322  22.198  -4.519  0.00  0.00    -0.416 N 
HETATM   17  C   UNK N   1      29.995  22.484  -5.896  0.00  0.00     0.155 C 
HETATM   18  H   UNK N   1      30.310  21.293  -4.049  0.00  0.00     0.153 HD
ENDROOT
TORSDOF 0
ENDMDL
MODEL 5
REMARK VINA RESULT:      -6.1     11.704     13.654
REMARK  0 active torsions:
REMARK  status: ('A' for Active; 'I' for Inactive)
ROOT
HETATM    1  C   UNK N   1      29.660  16.920   4.083  0.00  0.00     0.001 A 
HETATM    2  C   UNK N   1      28.645  17.033   5.028  0.00  0.00     0.011 A 
HETATM    3  C   UNK N   1      28.939  17.243   6.379  0.00  0.00    -0.014 A 
HETATM    4  C   UNK N   1      30.300  17.343   6.799  0.00  0.00     0.045 A 
HETATM    5  C   UNK N   1      31.321  17.218   5.818  0.00  0.00    -0.026 A 
HETATM    6  C   UNK N   1      30.990  17.007   4.477  0.00  0.00     0.010 A 
HETATM    7  C   UNK N   1      32.780  17.342   6.192  0.00  0.00     0.026 C 
HETATM    8  C   UNK N   1      33.532  16.044   6.001  0.00  0.00     0.010 C 
HETATM    9  C   UNK N   1      34.732  16.147   6.925  0.00  0.00     0.001 C 
HETATM   10  C   UNK N   1      34.430  17.252   7.934  0.00  0.00     0.007 C 
HETATM   11  C   UNK N   1      33.034  17.761   7.631  0.00  0.00     0.012 C 
HETATM   12  C   UNK N   1      32.019  17.128   8.570  0.00  0.00     0.128 C 
HETATM   13  N   UNK N   1      30.692  17.539   8.169  0.00  0.00    -0.378 N 
HETATM   14  C   UNK N   1      29.974  18.403   9.087  0.00  0.00     0.142 C 
HETATM   15  C   UNK N   1      28.546  17.985   9.335  0.00  0.00     0.134 C 
HETATM   16  N   UNK N   1      27.757  18.378   8.188  0.00  0.00    -0.416 N 
HETATM   17  C   UNK N   1      27.777  17.224   7.321  0.00  0.00     0.155 C 
HETATM   18  H   UNK N   1      27.292  19.272   8.028  0.00  0.00     0.153 HD
ENDROOT
TORSDOF 0
ENDMDL
MODEL 6
REMARK VINA RESULT:      -5.9      2.079      4.226
REMARK  0 active torsions:
REMARK  status: ('A' for Active; 'I' for Inactive)
ROOT
HETATM    1  C   UNK N   1      35.299  13.751  18.427  0.00  0.00     0.001 A 
HETATM    2  C   UNK N   1      35.770  14.340  17.258  0.00  0.00     0.011 A 
HETATM    3  C   UNK N   1      36.074  13.566  16.134  0.00  0.00    -0.014 A 
HETATM    4  C   UNK N   1      35.899  12.149  16.183  0.00  0.00     0.045 A 
HETATM    5  C   UNK N   1      35.423  11.569  17.390  0.00  0.00    -0.026 A 
HETATM    6  C   UNK N   1      35.131  12.373  18.494  0.00  0.00     0.010 A 
HETATM    7  C   UNK N   1      35.190  10.079  17.499  0.00  0.00     0.026 C 
HETATM    8  C   UNK N   1      36.134   9.422  18.481  0.00  0.00     0.010 C 
HETATM    9  C   UNK N   1      36.191   7.966  18.056  0.00  0.00     0.001 C 
HETATM   10  C   UNK N   1      35.667   7.895  16.624  0.00  0.00     0.007 C 
HETATM   11  C   UNK N   1      35.350   9.314  16.194  0.00  0.00     0.012 C 
HETATM   12  C   UNK N   1      36.487   9.887  15.363  0.00  0.00     0.128 C 
HETATM   13  N   UNK N   1      36.206  11.277  15.081  0.00  0.00    -0.378 N 
HETATM   14  C   UNK N   1      35.938  11.619  13.697  0.00  0.00     0.142 C 
HETATM   15  C   UNK N   1      36.680  12.838  13.211  0.00  0.00     0.134 C 
HETATM   16  N   UNK N   1      36.012  14.010  13.735  0.00  0.00    -0.416 N 
HETATM   17  C   UNK N   1      36.691  14.289  14.978  0.00  0.00     0.155 C 
HETATM   18  H   UNK N   1      35.234  14.522  13.319  0.00  0.00     0.153 HD
ENDROOT
TORSDOF 0
ENDMDL
MODEL 7
REMARK VINA RESULT:      -5.9     24.306     27.306
REMARK  0 active torsions:
REMARK  status: ('A' for Active; 'I' for Inactive)
ROOT
HETATM    1  C   UNK N   1      28.358  20.983  -7.951  0.00  0.00     0.001 A 
HETATM    2  C   UNK N   1      27.160  21.692  -7.945  0.00  0.00     0.011 A 
HETATM    3  C   UNK N   1      26.918  22.687  -6.994  0.00  0.00    -0.014 A 
HETATM    4  C   UNK N   1      27.912  22.983  -6.012  0.00  0.00     0.045 A 
HETATM    5  C   UNK N   1      29.125  22.242  -6.033  0.00  0.00    -0.026 A 
HETATM    6  C   UNK N   1      29.332  21.253  -6.997  0.00  0.00     0.010 A 
HETATM    7  C   UNK N   1      30.228  22.525  -5.039  0.00  0.00     0.026 C 
HETATM    8  C   UNK N   1      30.457  21.367  -4.093  0.00  0.00     0.010 C 
HETATM    9  C   UNK N   1      31.107  21.984  -2.868  0.00  0.00     0.001 C 
HETATM   10  C   UNK N   1      30.840  23.485  -2.925  0.00  0.00     0.007 C 
HETATM   11  C   UNK N   1      29.992  23.740  -4.156  0.00  0.00     0.012 C 
HETATM   12  C   UNK N   1      28.524  23.862  -3.778  0.00  0.00     0.128 C 
HETATM   13  N   UNK N   1      27.737  23.976  -4.986  0.00  0.00    -0.378 N 
HETATM   14  C   UNK N   1      27.074  25.247  -5.211  0.00  0.00     0.142 C 
HETATM   15  C   UNK N   1      25.630  25.120  -5.628  0.00  0.00     0.134 C 
HETATM   16  N   UNK N   1      25.597  24.739  -7.023  0.00  0.00    -0.416 N 
HETATM   17  C   UNK N   1      25.552  23.296  -7.004  0.00  0.00     0.155 C 
HETATM   18  H   UNK N   1      25.604  25.353  -7.837  0.00  0.00     0.153 HD
ENDROOT
TORSDOF 0
ENDMDL
MODEL 8
REMARK VINA RESULT:      -5.7     12.240     14.636
REMARK  0 active torsions:
REMARK  status: ('A' for Active; 'I' for Inactive)
ROOT
HETATM    1  C   UNK N   1      27.193  20.126   6.204  0.00  0.00     0.001 A 
HETATM    2  C   UNK N   1      27.705  19.826   7.463  0.00  0.00     0.011 A 
HETATM    3  C   UNK N   1      28.573  18.747   7.648  0.00  0.00    -0.014 A 
HETATM    4  C   UNK N   1      28.943  17.936   6.531  0.00  0.00     0.045 A 
HETATM    5  C   UNK N   1      28.403  18.257   5.256  0.00  0.00    -0.026 A 
HETATM    6  C   UNK N   1      27.536  19.342   5.108  0.00  0.00     0.010 A 
HETATM    7  C   UNK N   1      28.775  17.456   4.029  0.00  0.00     0.026 C 
HETATM    8  C   UNK N   1      27.596  16.697   3.462  0.00  0.00     0.010 C 
HETATM    9  C   UNK N   1      28.209  15.552   2.675  0.00  0.00     0.001 C 
HETATM   10  C   UNK N   1      29.651  15.400   3.153  0.00  0.00     0.007 C 
HETATM   11  C   UNK N   1      29.867  16.421   4.253  0.00  0.00     0.012 C 
HETATM   12  C   UNK N   1      29.729  15.771   5.621  0.00  0.00     0.128 C 
HETATM   13  N   UNK N   1      29.814  16.796   6.636  0.00  0.00    -0.378 N 
HETATM   14  C   UNK N   1      30.979  16.761   7.499  0.00  0.00     0.142 C 
HETATM   15  C   UNK N   1      30.663  16.919   8.965  0.00  0.00     0.134 C 
HETATM   16  N   UNK N   1      30.391  18.317   9.219  0.00  0.00    -0.416 N 
HETATM   17  C   UNK N   1      28.962  18.443   9.061  0.00  0.00     0.155 C 
HETATM   18  H   UNK N   1      31.060  19.049   9.456  0.00  0.00     0.153 HD
ENDROOT
TORSDOF 0
ENDMDL
MODEL 9
REMARK VINA RESULT:      -5.7     27.683     29.435
REMARK  0 active torsions:
REMARK  status: ('A' for Active; 'I' for Inactive)
ROOT
HETATM    1  C   UNK N   1      28.324  28.109  -8.039  0.00  0.00     0.001 A 
HETATM    2  C   UNK N   1      27.944  28.803  -6.894  0.00  0.00     0.011 A 
HETATM    3  C   UNK N   1      27.254  28.162  -5.861  0.00  0.00    -0.014 A 
HETATM    4  C   UNK N   1      26.932  26.775  -5.978  0.00  0.00     0.045 A 
HETATM    5  C   UNK N   1      27.324  26.089  -7.159  0.00  0.00    -0.026 A 
HETATM    6  C   UNK N   1      28.011  26.761  -8.173  0.00  0.00     0.010 A 
HETATM    7  C   UNK N   1      27.039  24.615  -7.334  0.00  0.00     0.026 C 
HETATM    8  C   UNK N   1      26.055  24.351  -8.452  0.00  0.00     0.010 C 
HETATM    9  C   UNK N   1      25.445  23.000  -8.127  0.00  0.00     0.001 C 
HETATM   10  C   UNK N   1      25.730  22.720  -6.654  0.00  0.00     0.007 C 
HETATM   11  C   UNK N   1      26.463  23.929  -6.105  0.00  0.00     0.012 C 
HETATM   12  C   UNK N   1      25.501  24.848  -5.369  0.00  0.00     0.128 C 
HETATM   13  N   UNK N   1      26.208  26.045  -4.972  0.00  0.00    -0.378 N 
HETATM   14  C   UNK N   1      26.404  26.243  -3.549  0.00  0.00     0.142 C 
HETATM   15  C   UNK N   1      26.076  27.636  -3.072  0.00  0.00     0.134 C 
HETATM   16  N   UNK N   1      27.168  28.508  -3.446  0.00  0.00    -0.416 N 
HETATM   17  C   UNK N   1      26.788  29.032  -4.736  0.00  0.00     0.155 C 
HETATM   18  H   UNK N   1      28.017  28.706  -2.917  0.00  0.00     0.153 HD
ENDROOT
TORSDOF 0
ENDMDL
