MODEL 1
REMARK VINA RESULT:      -6.0      0.000      0.000
REMARK  2 active torsions:
REMARK  status: ('A' for Active; 'I' for Inactive)
REMARK    1  A    between atoms: C_11  and  C_10 
REMARK    2  A    between atoms: N_13  and  C_12 
ROOT
HETATM    1  C   UNK N   1      32.738  17.287   5.656  0.00  0.00     0.014 A 
HETATM    2  C   UNK N   1      31.297  17.348   7.601  0.00  0.00     0.014 A 
HETATM    3  C   UNK N   1      33.822  17.657   6.450  0.00  0.00     0.037 A 
HETATM    4  C   UNK N   1      32.379  17.717   8.394  0.00  0.00     0.037 A 
HETATM    5  C   UNK N   1      31.465  17.129   6.227  0.00  0.00    -0.026 A 
HETATM    6  C   UNK N   1      33.650  17.875   7.826  0.00  0.00     0.102 A 
ENDROOT
BRANCH   5   7
HETATM    7  C   UNK N   1      30.313  16.738   5.397  0.00  0.00    -0.026 A 
HETATM    8  C   UNK N   1      30.380  16.824   3.998  0.00  0.00     0.012 A 
HETATM    9  C   UNK N   1      29.284  16.451   3.218  0.00  0.00     0.001 A 
HETATM   10  C   UNK N   1      28.115  15.992   3.830  0.00  0.00     0.000 A 
HETATM   11  C   UNK N   1      28.040  15.904   5.222  0.00  0.00     0.001 A 
HETATM   12  C   UNK N   1      29.134  16.275   6.002  0.00  0.00     0.012 A 
ENDBRANCH   5   7
BRANCH   6  13
HETATM   13  N   UNK N   1      34.752  18.252   8.639  0.00  0.00    -0.116 N 
HETATM   14  O   UNK N   1      35.322  19.283   8.437  0.00  0.00    -0.532 OA
HETATM   15  O   UNK N   1      35.116  17.543   9.527  0.00  0.00    -0.532 OA
ENDBRANCH   6  13
TORSDOF 2
ENDMDL
MODEL 2
REMARK VINA RESULT:      -5.9      6.205      7.567
REMARK  2 active torsions:
REMARK  status: ('A' for Active; 'I' for Inactive)
REMARK    1  A    between atoms: C_11  and  C_10 
REMARK    2  A    between atoms: N_13  and  C_12 
ROOT
HETATM    1  C   UNK N   1      27.089  18.185   4.823  0.00  0.00     0.014 A 
HETATM    2  C   UNK N   1      26.972  20.279   6.034  0.00  0.00     0.014 A 
HETATM    3  C   UNK N   1      26.197  18.685   3.876  0.00  0.00     0.037 A 
HETATM    4  C   UNK N   1      26.081  20.778   5.089  0.00  0.00     0.037 A 
HETATM    5  C   UNK N   1      27.484  18.980   5.910  0.00  0.00    -0.026 A 
HETATM    6  C   UNK N   1      25.686  19.986   4.003  0.00  0.00     0.102 A 
ENDROOT
BRANCH   5   7
HETATM    7  C   UNK N   1      28.427  18.462   6.916  0.00  0.00    -0.026 A 
HETATM    8  C   UNK N   1      29.443  17.567   6.547  0.00  0.00     0.012 A 
HETATM    9  C   UNK N   1      30.333  17.080   7.506  0.00  0.00     0.001 A 
HETATM   10  C   UNK N   1      30.213  17.483   8.839  0.00  0.00     0.000 A 
HETATM   11  C   UNK N   1      29.205  18.373   9.214  0.00  0.00     0.001 A 
HETATM   12  C   UNK N   1      28.315  18.860   8.258  0.00  0.00     0.012 A 
ENDBRANCH   5   7
BRANCH   6  13
HETATM   13  N   UNK N   1      24.776  20.499   3.040  0.00  0.00    -0.116 N 
HETATM   14  O   UNK N   1      25.164  20.817   1.956  0.00  0.00    -0.532 OA
HETATM   15  O   UNK N   1      23.619  20.616   3.308  0.00  0.00    -0.532 OA
ENDBRANCH   6  13
TORSDOF 2
ENDMDL
MODEL 3
REMARK VINA RESULT:      -5.8      9.594     12.001
REMARK  2 active torsions:
REMARK  status: ('A' for Active; 'I' for Inactive)
REMARK    1  A    between atoms: C_11  and  C_10 
REMARK    2  A    between atoms: N_13  and  C_12 
ROOT
HETATM    1  C   UNK N   1      36.354  13.810  15.563  0.00  0.00     0.014 A 
HETATM    2  C   UNK N   1      34.722  12.154  14.889  0.00  0.00     0.014 A 
HETATM    3  C   UNK N   1      36.439  14.260  14.246  0.00  0.00     0.037 A 
HETATM    4  C   UNK N   1      34.806  12.602  13.575  0.00  0.00     0.037 A 
HETATM    5  C   UNK N   1      35.494  12.752  15.894  0.00  0.00    -0.026 A 
HETATM    6  C   UNK N   1      35.664  13.659  13.242  0.00  0.00     0.102 A 
ENDROOT
BRANCH   5   7
HETATM    7  C   UNK N   1      35.397  12.269  17.283  0.00  0.00    -0.026 A 
HETATM    8  C   UNK N   1      35.470  10.897  17.567  0.00  0.00     0.012 A 
HETATM    9  C   UNK N   1      35.378  10.447  18.886  0.00  0.00     0.001 A 
HETATM   10  C   UNK N   1      35.213  11.364  19.927  0.00  0.00     0.000 A 
HETATM   11  C   UNK N   1      35.140  12.731  19.652  0.00  0.00     0.001 A 
HETATM   12  C   UNK N   1      35.232  13.182  18.336  0.00  0.00     0.012 A 
ENDBRANCH   5   7
BRANCH   6  13
HETATM   13  N   UNK N   1      35.747  14.114  11.899  0.00  0.00    -0.116 N 
HETATM   14  O   UNK N   1      34.801  14.623  11.378  0.00  0.00    -0.532 OA
HETATM   15  O   UNK N   1      36.762  13.991  11.284  0.00  0.00    -0.532 OA
ENDBRANCH   6  13
TORSDOF 2
ENDMDL
MODEL 4
REMARK VINA RESULT:      -5.8     12.048     13.540
REMARK  2 active torsions:
REMARK  status: ('A' for Active; 'I' for Inactive)
REMARK    1  A    between atoms: C_11  and  C_10 
REMARK    2  A    between atoms: N_13  and  C_12 
ROOT
HETATM    1  C   UNK N   1      29.049  24.812  -4.622  0.00  0.00     0.014 A 
HETATM    2  C   UNK N   1      27.614  23.984  -2.856  0.00  0.00     0.014 A 
HETATM    3  C   UNK N   1      30.017  23.870  -4.275  0.00  0.00     0.037 A 
HETATM    4  C   UNK N   1      28.580  23.044  -2.509  0.00  0.00     0.037 A 
HETATM    5  C   UNK N   1      27.839  24.875  -3.913  0.00  0.00    -0.026 A 
HETATM    6  C   UNK N   1      29.788  22.979  -3.215  0.00  0.00     0.102 A 
ENDROOT
BRANCH   5   7
HETATM    7  C   UNK N   1      26.810  25.866  -4.272  0.00  0.00    -0.026 A 
HETATM    8  C   UNK N   1      25.998  25.676  -5.401  0.00  0.00     0.012 A 
HETATM    9  C   UNK N   1      25.025  26.619  -5.734  0.00  0.00     0.001 A 
HETATM   10  C   UNK N   1      24.857  27.758  -4.943  0.00  0.00     0.000 A 
HETATM   11  C   UNK N   1      25.660  27.956  -3.818  0.00  0.00     0.001 A 
HETATM   12  C   UNK N   1      26.632  27.014  -3.483  0.00  0.00     0.012 A 
ENDBRANCH   5   7
BRANCH   6  13
HETATM   13  N   UNK N   1      30.772  22.018  -2.858  0.00  0.00    -0.116 N 
HETATM   14  O   UNK N   1      31.557  22.256  -1.990  0.00  0.00    -0.532 OA
HETATM   15  O   UNK N   1      30.819  20.967  -3.423  0.00  0.00    -0.532 OA
ENDBRANCH   6  13
TORSDOF 2
ENDMDL
MODEL 5
REMARK VINA RESULT:      -5.8     15.887     17.466
REMARK  2 active torsions:
REMARK  status: ('A' for Active; 'I' for Inactive)
REMARK    1  A    between atoms: C_11  and  C_10 
REMARK    2  A    between atoms: N_13  and  C_12 
ROOT
HETATM    1  C   UNK N   1      26.253  26.522  -7.463  0.00  0.00     0.014 A 
HETATM    2  C   UNK N   1      26.060  25.578  -5.242  0.00  0.00     0.014 A 
HETATM    3  C   UNK N   1      25.952  25.278  -8.016  0.00  0.00     0.037 A 
HETATM    4  C   UNK N   1      25.761  24.336  -5.793  0.00  0.00     0.037 A 
HETATM    5  C   UNK N   1      26.309  26.681  -6.070  0.00  0.00    -0.026 A 
HETATM    6  C   UNK N   1      25.704  24.175  -7.184  0.00  0.00     0.102 A 
ENDROOT
BRANCH   5   7
HETATM    7  C   UNK N   1      26.625  27.991  -5.476  0.00  0.00    -0.026 A 
HETATM    8  C   UNK N   1      25.980  28.418  -4.305  0.00  0.00     0.012 A 
HETATM    9  C   UNK N   1      26.285  29.661  -3.748  0.00  0.00     0.001 A 
HETATM   10  C   UNK N   1      27.236  30.485  -4.357  0.00  0.00     0.000 A 
HETATM   11  C   UNK N   1      27.882  30.067  -5.521  0.00  0.00     0.001 A 
HETATM   12  C   UNK N   1      27.579  28.826  -6.079  0.00  0.00     0.012 A 
ENDBRANCH   5   7
BRANCH   6  13
HETATM   13  N   UNK N   1      25.398  22.906  -7.743  0.00  0.00    -0.116 N 
HETATM   14  O   UNK N   1      26.150  21.989  -7.600  0.00  0.00    -0.532 OA
HETATM   15  O   UNK N   1      24.387  22.747  -8.358  0.00  0.00    -0.532 OA
ENDBRANCH   6  13
TORSDOF 2
ENDMDL
MODEL 6
REMARK VINA RESULT:      -5.8     14.707     15.774
REMARK  2 active torsions:
REMARK  status: ('A' for Active; 'I' for Inactive)
REMARK    1  A    between atoms: C_11  and  C_10 
REMARK    2  A    between atoms: N_13  and  C_12 
ROOT
HETATM    1  C   UNK N   1      26.600  24.256  -4.728  0.00  0.00     0.014 A 
HETATM    2  C   UNK N   1      25.679  25.358  -6.678  0.00  0.00     0.014 A 
HETATM    3  C   UNK N   1      26.460  25.435  -3.998  0.00  0.00     0.037 A 
HETATM    4  C   UNK N   1      25.539  26.535  -5.950  0.00  0.00     0.037 A 
HETATM    5  C   UNK N   1      26.210  24.209  -6.076  0.00  0.00    -0.026 A 
HETATM    6  C   UNK N   1      25.928  26.584  -4.604  0.00  0.00     0.102 A 
ENDROOT
BRANCH   5   7
HETATM    7  C   UNK N   1      26.354  22.968  -6.856  0.00  0.00    -0.026 A 
HETATM    8  C   UNK N   1      25.223  22.230  -7.237  0.00  0.00     0.012 A 
HETATM    9  C   UNK N   1      25.367  21.055  -7.977  0.00  0.00     0.001 A 
HETATM   10  C   UNK N   1      26.641  20.610  -8.341  0.00  0.00     0.000 A 
HETATM   11  C   UNK N   1      27.771  21.340  -7.966  0.00  0.00     0.001 A 
HETATM   12  C   UNK N   1      27.629  22.513  -7.227  0.00  0.00     0.012 A 
ENDBRANCH   5   7
BRANCH   6  13
HETATM   13  N   UNK N   1      25.783  27.787  -3.864  0.00  0.00    -0.116 N 
HETATM   14  O   UNK N   1      25.478  27.750  -2.709  0.00  0.00    -0.532 OA
HETATM   15  O   UNK N   1      25.965  28.843  -4.389  0.00  0.00    -0.532 OA
ENDBRANCH   6  13
TORSDOF 2
ENDMDL
MODEL 7
REMARK VINA RESULT:      -5.8     10.370     11.826
REMARK  2 active torsions:
REMARK  status: ('A' for Active; 'I' for Inactive)
REMARK    1  A    between atoms: C_11  and  C_10 
REMARK    2  A    between atoms: N_13  and  C_12 
ROOT
HETATM    1  C   UNK N   1      35.360  10.475  16.610  0.00  0.00     0.014 A 
HETATM    2  C   UNK N   1      34.555  12.351  15.309  0.00  0.00     0.014 A 
HETATM    3  C   UNK N   1      35.457  11.296  17.732  0.00  0.00     0.037 A 
HETATM    4  C   UNK N   1      34.651  13.172  16.428  0.00  0.00     0.037 A 
HETATM    5  C   UNK N   1      34.907  10.997  15.388  0.00  0.00    -0.026 A 
HETATM    6  C   UNK N   1      35.103  12.652  17.649  0.00  0.00     0.102 A 
ENDROOT
BRANCH   5   7
HETATM    7  C   UNK N   1      34.801  10.137  14.197  0.00  0.00    -0.026 A 
HETATM    8  C   UNK N   1      33.974  10.504  13.124  0.00  0.00     0.012 A 
HETATM    9  C   UNK N   1      33.879   9.684  11.998  0.00  0.00     0.001 A 
HETATM   10  C   UNK N   1      34.608   8.493  11.938  0.00  0.00     0.000 A 
HETATM   11  C   UNK N   1      35.432   8.121  13.001  0.00  0.00     0.001 A 
HETATM   12  C   UNK N   1      35.529   8.939  14.126  0.00  0.00     0.012 A 
ENDBRANCH   5   7
BRANCH   6  13
HETATM   13  N   UNK N   1      35.201  13.493  18.789  0.00  0.00    -0.116 N 
HETATM   14  O   UNK N   1      35.187  13.021  19.886  0.00  0.00    -0.532 OA
HETATM   15  O   UNK N   1      35.296  14.676  18.659  0.00  0.00    -0.532 OA
ENDBRANCH   6  13
TORSDOF 2
ENDMDL
MODEL 8
REMARK VINA RESULT:      -5.7     10.421     11.792
REMARK  2 active torsions:
REMARK  status: ('A' for Active; 'I' for Inactive)
REMARK    1  A    between atoms: C_11  and  C_10 
REMARK    2  A    between atoms: N_13  and  C_12 
ROOT
HETATM    1  C   UNK N   1      20.533  15.883   8.756  0.00  0.00     0.014 A 
HETATM    2  C   UNK N   1      22.280  14.813   7.465  0.00  0.00     0.014 A 
HETATM    3  C   UNK N   1      20.416  16.869   7.778  0.00  0.00     0.037 A 
HETATM    4  C   UNK N   1      22.163  15.797   6.488  0.00  0.00     0.037 A 
HETATM    5  C   UNK N   1      21.467  14.847   8.607  0.00  0.00    -0.026 A 
HETATM    6  C   UNK N   1      21.231  16.833   6.636  0.00  0.00     0.102 A 
ENDROOT
BRANCH   5   7
HETATM    7  C   UNK N   1      21.599  13.800   9.635  0.00  0.00    -0.026 A 
HETATM    8  C   UNK N   1      22.859  13.275   9.961  0.00  0.00     0.012 A 
HETATM    9  C   UNK N   1      22.976  12.283  10.937  0.00  0.00     0.001 A 
HETATM   10  C   UNK N   1      21.836  11.810  11.592  0.00  0.00     0.000 A 
HETATM   11  C   UNK N   1      20.579  12.328  11.273  0.00  0.00     0.001 A 
HETATM   12  C   UNK N   1      20.460  13.318  10.299  0.00  0.00     0.012 A 
ENDBRANCH   5   7
BRANCH   6  13
HETATM   13  N   UNK N   1      21.115  17.835   5.636  0.00  0.00    -0.116 N 
HETATM   14  O   UNK N   1      21.066  18.988   5.944  0.00  0.00    -0.532 OA
HETATM   15  O   UNK N   1      21.066  17.532   4.483  0.00  0.00    -0.532 OA
ENDBRANCH   6  13
TORSDOF 2
ENDMDL
MODEL 9
REMARK VINA RESULT:      -5.5     12.381     14.026
REMARK  2 active torsions:
REMARK  status: ('A' for Active; 'I' for Inactive)
REMARK    1  A    between atoms: C_11  and  C_10 
REMARK    2  A    between atoms: N_13  and  C_12 
ROOT
HETATM    1  C   UNK N   1      29.054  25.600  -4.065  0.00  0.00     0.014 A 
HETATM    2  C   UNK N   1      27.247  24.011  -3.794  0.00  0.00     0.014 A 
HETATM    3  C   UNK N   1      28.131  26.645  -4.074  0.00  0.00     0.037 A 
HETATM    4  C   UNK N   1      26.326  25.053  -3.802  0.00  0.00     0.037 A 
HETATM    5  C   UNK N   1      28.618  24.274  -3.925  0.00  0.00    -0.026 A 
HETATM    6  C   UNK N   1      26.759  26.379  -3.942  0.00  0.00     0.102 A 
ENDROOT
BRANCH   5   7
HETATM    7  C   UNK N   1      29.584  23.162  -3.915  0.00  0.00    -0.026 A 
HETATM    8  C   UNK N   1      29.638  22.254  -4.983  0.00  0.00     0.012 A 
HETATM    9  C   UNK N   1      30.557  21.203  -4.967  0.00  0.00     0.001 A 
HETATM   10  C   UNK N   1      31.427  21.053  -3.883  0.00  0.00     0.000 A 
HETATM   11  C   UNK N   1      31.380  21.953  -2.817  0.00  0.00     0.001 A 
HETATM   12  C   UNK N   1      30.463  23.003  -2.832  0.00  0.00     0.012 A 
ENDBRANCH   5   7
BRANCH   6  13
HETATM   13  N   UNK N   1      25.816  27.440  -3.950  0.00  0.00    -0.116 N 
HETATM   14  O   UNK N   1      25.448  27.926  -2.922  0.00  0.00    -0.532 OA
HETATM   15  O   UNK N   1      25.385  27.855  -4.983  0.00  0.00    -0.532 OA
ENDBRANCH   6  13
TORSDOF 2
ENDMDL
