REMARK  7 active torsions:
REMARK  status: ('A' for Active; 'I' for Inactive)
REMARK    1  A    between atoms: C_3  and  C_2 
REMARK    2  A    between atoms: C_3  and  C_20 
REMARK    3  A    between atoms: N_7  and  C_9 
REMARK    4  A    between atoms: C_9  and  C_10 
REMARK    5  A    between atoms: C_10  and  O_19 
REMARK    6  A    between atoms: C_24  and  N_26 
REMARK    7  A    between atoms: N_26  and  S_27 
ROOT
HETATM    1  C   UNK N   1      -0.910  -4.358  -0.732  0.00  0.00    -0.002 A 
HETATM    2  C   UNK N   1      -1.574  -3.748   0.513  0.00  0.00     0.034 A 
HETATM    3  C   UNK N   1      -1.721  -3.088  -0.864  0.00  0.00     0.034 A 
HETATM    4  C   UNK N   1      -0.942  -1.810  -0.768  0.00  0.00     0.278 C 
HETATM    5  N   UNK N   1      -1.010  -1.421   0.623  0.00  0.00     0.092 N 
HETATM    6  C   UNK N   1      -0.789  -2.687   1.299  0.00  0.00     0.278 C 
ENDROOT
BRANCH   1   7
HETATM    7  C   UNK N   1      -1.695  -5.535  -1.307  0.00  0.00     0.011 C 
HETATM    8  C   UNK N   1      -1.748  -6.724  -0.362  0.00  0.00     0.006 C 
ENDBRANCH   1   7
BRANCH   1   9
HETATM    9  C   UNK N   1       0.587  -4.553  -0.598  0.00  0.00    -0.046 A 
HETATM   10  C   UNK N   1       1.499  -3.830  -1.381  0.00  0.00     0.008 A 
HETATM   11  C   UNK N   1       2.861  -4.164  -1.359  0.00  0.00     0.003 A 
HETATM   12  C   UNK N   1       3.305  -5.260  -0.608  0.00  0.00     0.030 A 
HETATM   13  C   UNK N   1       2.396  -5.994   0.169  0.00  0.00     0.042 A 
HETATM   14  C   UNK N   1       1.052  -5.622   0.176  0.00  0.00     0.038 A 
BRANCH  13  15
HETATM   15  N   UNK N   1       2.781  -7.156   0.878  0.00  0.00    -0.285 N 
HETATM   16  H   UNK N   1       2.219  -7.447   1.633  0.00  0.00     0.178 HD
BRANCH  15  17
HETATM   17  S   UNK N   1       4.204  -8.112   0.486  0.00  0.00     0.227 S 
HETATM   18  O   UNK N   1       4.470  -8.935   1.755  0.00  0.00    -0.206 OA
HETATM   19  O   UNK N   1       3.676  -9.194  -0.468  0.00  0.00    -0.206 OA
HETATM   20  C   UNK N   1       5.697  -7.297  -0.144  0.00  0.00     0.186 C 
ENDBRANCH  15  17
ENDBRANCH  13  15
ENDBRANCH   1   9
BRANCH   5  21
HETATM   21  C   UNK N   1       0.005  -0.444   1.048  0.00  0.00     0.310 C 
BRANCH  21  22
HETATM   22  C   UNK N   1       0.604   0.450  -0.060  0.00  0.00     0.092 C 
HETATM   23  C   UNK N   1       1.386   1.595   0.613  0.00  0.00     0.079 C 
HETATM   24  C   UNK N   1       2.762   1.066   0.605  0.00  0.00    -0.049 A 
HETATM   25  C   UNK N   1       3.851   1.591   1.298  0.00  0.00     0.007 A 
HETATM   26  C   UNK N   1       2.891  -0.033  -0.193  0.00  0.00    -0.049 A 
HETATM   27  C   UNK N   1       5.094   0.950   1.177  0.00  0.00     0.001 A 
HETATM   28  C   UNK N   1       5.224  -0.192   0.365  0.00  0.00     0.001 A 
HETATM   29  C   UNK N   1       4.113  -0.687  -0.337  0.00  0.00     0.007 A 
HETATM   30  C   UNK N   1       1.627  -0.386  -0.862  0.00  0.00     0.079 C 
BRANCH  22  31
HETATM   31  O   UNK N   1      -0.393   0.977  -0.885  0.00  0.00    -0.387 OA
HETATM   32  H   UNK N   1      -0.423   1.759  -1.458  0.00  0.00     0.210 HD
ENDBRANCH  22  31
ENDBRANCH  21  22
ENDBRANCH   5  21
TORSDOF 7
