MODEL 1
REMARK VINA RESULT:      -8.2      0.000      0.000
REMARK  9 active torsions:
REMARK  status: ('A' for Active; 'I' for Inactive)
REMARK    1  A    between atoms: C_4  and  N_2 
REMARK    2  A    between atoms: C_12  and  N_31 
REMARK    3  A    between atoms: C_13  and  O_30 
REMARK    4  A    between atoms: C_18  and  O_29 
REMARK    5  A    between atoms: C_19  and  O_28 
REMARK    6  A    between atoms: C_22  and  C_25 
REMARK    7  A    between atoms: C_23  and  O_24 
REMARK       I    between atoms: C_25  and  N_27 
REMARK       I    between atoms: N_31  and  C_32 
REMARK    8  A    between atoms: C_32  and  C_34 
REMARK    9  A    between atoms: C_34  and  N_35 
ROOT
HETATM    1  C   UNK N   1      27.308  18.069   5.905  0.00  0.00     0.286 C 
HETATM    2  C   UNK N   1      28.343  16.957   6.221  0.00  0.00     0.075 C 
HETATM    3  C   UNK N   1      29.656  17.469   6.878  0.00  0.00     0.021 C 
HETATM    4  C   UNK N   1      30.869  17.047   6.058  0.00  0.00     0.030 C 
HETATM    5  C   UNK N   1      32.185  17.627   6.589  0.00  0.00     0.052 C 
HETATM    6  C   UNK N   1      32.980  16.719   7.482  0.00  0.00    -0.002 A 
HETATM    7  C   UNK N   1      33.946  17.264   8.351  0.00  0.00     0.126 A 
HETATM    8  C   UNK N   1      34.729  16.423   9.156  0.00  0.00     0.075 A 
HETATM    9  C   UNK N   1      34.529  15.040   9.101  0.00  0.00     0.072 A 
HETATM   10  C   UNK N   1      33.551  14.511   8.263  0.00  0.00     0.107 A 
HETATM   11  C   UNK N   1      32.801  15.321   7.428  0.00  0.00     0.059 A 
HETATM   12  C   UNK N   1      31.827  14.709   6.504  0.00  0.00     0.194 C 
HETATM   13  O   UNK N   1      31.813  13.496   6.326  0.00  0.00    -0.287 OA
HETATM   14  C   UNK N   1      30.792  15.549   5.914  0.00  0.00     0.030 C 
HETATM   15  C   UNK N   1      29.661  15.026   5.399  0.00  0.00     0.096 C 
HETATM   16  C   UNK N   1      28.551  15.991   5.028  0.00  0.00     0.177 C 
HETATM   17  C   UNK N   1      27.215  15.355   4.753  0.00  0.00     0.208 C 
HETATM   18  O   UNK N   1      27.116  14.146   4.596  0.00  0.00    -0.288 OA
HETATM   19  C   UNK N   1      26.003  16.218   4.699  0.00  0.00     0.112 C 
HETATM   20  C   UNK N   1      26.053  17.487   5.216  0.00  0.00     0.096 C 
HETATM   21  F   UNK N   1      34.149  18.606   8.390  0.00  0.00    -0.205 F 
ENDROOT
BRANCH   9  22
HETATM   22  N   UNK N   1      35.355  14.121   9.785  0.00  0.00    -0.323 N 
HETATM   23  C   UNK N   1      35.253  14.069  11.146  0.00  0.00     0.250 C 
HETATM   24  O   UNK N   1      34.246  14.490  11.701  0.00  0.00    -0.271 OA
HETATM   25  H   UNK N   1      35.982  13.538   9.300  0.00  0.00     0.169 HD
BRANCH  23  26
HETATM   26  C   UNK N   1      36.457  13.790  11.984  0.00  0.00     0.374 C 
BRANCH  26  27
HETATM   27  N   UNK N   1      36.023  13.502  13.358  0.00  0.00     0.097 N 
HETATM   28  C   UNK N   1      36.552  14.508  14.261  0.00  0.00     0.273 C 
HETATM   29  C   UNK N   1      36.700  13.842  15.622  0.00  0.00     0.032 C 
HETATM   30  C   UNK N   1      36.567  12.359  15.360  0.00  0.00     0.032 C 
HETATM   31  C   UNK N   1      36.618  12.266  13.856  0.00  0.00     0.273 C 
ENDBRANCH  26  27
ENDBRANCH  23  26
ENDBRANCH   9  22
BRANCH  10  32
HETATM   32  O   UNK N   1      33.333  13.183   8.280  0.00  0.00    -0.357 OA
HETATM   33  H   UNK N   1      33.740  12.623   7.648  0.00  0.00     0.217 HD
ENDBRANCH  10  32
BRANCH  15  34
HETATM   34  O   UNK N   1      29.483  13.687   5.328  0.00  0.00    -0.361 OA
HETATM   35  H   UNK N   1      28.727  13.333   4.906  0.00  0.00     0.217 HD
ENDBRANCH  15  34
BRANCH  16  36
HETATM   36  O   UNK N   1      28.944  16.722   3.900  0.00  0.00    -0.374 OA
HETATM   37  H   UNK N   1      29.086  16.805   2.944  0.00  0.00     0.211 HD
ENDBRANCH  16  36
BRANCH   1  38
HETATM   38  N   UNK N   1      27.894  19.218   5.167  0.00  0.00     0.091 N 
HETATM   39  C   UNK N   1      27.227  19.433   3.890  0.00  0.00     0.310 C 
HETATM   40  C   UNK N   1      27.627  20.457   5.885  0.00  0.00     0.310 C 
ENDBRANCH   1  38
BRANCH  19  41
HETATM   41  C   UNK N   1      24.738  15.669   4.092  0.00  0.00     0.255 C 
HETATM   42  O   UNK N   1      23.691  15.676   4.719  0.00  0.00    -0.268 OA
HETATM   43  N   UNK N   1      24.736  15.179   2.835  0.00  0.00    -0.366 N 
HETATM   44  H   UNK N   1      23.910  15.106   2.304  0.00  0.00     0.159 HD
HETATM   45  H   UNK N   1      25.587  14.885   2.437  0.00  0.00     0.159 HD
ENDBRANCH  19  41
BRANCH  20  46
HETATM   46  O   UNK N   1      24.956  18.268   5.169  0.00  0.00    -0.362 OA
HETATM   47  H   UNK N   1      24.171  18.028   4.717  0.00  0.00     0.217 HD
ENDBRANCH  20  46
TORSDOF 9
ENDMDL
MODEL 2
REMARK VINA RESULT:      -8.1      2.461     10.658
REMARK  9 active torsions:
REMARK  status: ('A' for Active; 'I' for Inactive)
REMARK    1  A    between atoms: C_4  and  N_2 
REMARK    2  A    between atoms: C_12  and  N_31 
REMARK    3  A    between atoms: C_13  and  O_30 
REMARK    4  A    between atoms: C_18  and  O_29 
REMARK    5  A    between atoms: C_19  and  O_28 
REMARK    6  A    between atoms: C_22  and  C_25 
REMARK    7  A    between atoms: C_23  and  O_24 
REMARK       I    between atoms: C_25  and  N_27 
REMARK       I    between atoms: N_31  and  C_32 
REMARK    8  A    between atoms: C_32  and  C_34 
REMARK    9  A    between atoms: C_34  and  N_35 
ROOT
HETATM    1  C   UNK N   1      36.746  13.063   8.610  0.00  0.00     0.286 C 
HETATM    2  C   UNK N   1      35.354  13.749   8.662  0.00  0.00     0.075 C 
HETATM    3  C   UNK N   1      34.935  14.454   7.340  0.00  0.00     0.021 C 
HETATM    4  C   UNK N   1      34.614  15.921   7.592  0.00  0.00     0.030 C 
HETATM    5  C   UNK N   1      34.313  16.700   6.305  0.00  0.00     0.052 C 
HETATM    6  C   UNK N   1      32.859  16.858   5.969  0.00  0.00    -0.002 A 
HETATM    7  C   UNK N   1      32.476  17.156   4.646  0.00  0.00     0.126 A 
HETATM    8  C   UNK N   1      31.125  17.354   4.327  0.00  0.00     0.075 A 
HETATM    9  C   UNK N   1      30.158  17.234   5.332  0.00  0.00     0.072 A 
HETATM   10  C   UNK N   1      30.541  16.907   6.629  0.00  0.00     0.107 A 
HETATM   11  C   UNK N   1      31.873  16.755   6.972  0.00  0.00     0.059 A 
HETATM   12  C   UNK N   1      32.236  16.481   8.376  0.00  0.00     0.194 C 
HETATM   13  O   UNK N   1      31.400  16.582   9.268  0.00  0.00    -0.287 OA
HETATM   14  C   UNK N   1      33.563  15.954   8.671  0.00  0.00     0.030 C 
HETATM   15  C   UNK N   1      33.834  15.318   9.829  0.00  0.00     0.096 C 
HETATM   16  C   UNK N   1      35.167  14.605   9.939  0.00  0.00     0.177 C 
HETATM   17  C   UNK N   1      35.296  13.665  11.107  0.00  0.00     0.208 C 
HETATM   18  O   UNK N   1      34.482  13.684  12.020  0.00  0.00    -0.288 OA
HETATM   19  C   UNK N   1      36.420  12.689  11.128  0.00  0.00     0.112 C 
HETATM   20  C   UNK N   1      37.106  12.425   9.970  0.00  0.00     0.096 C 
HETATM   21  F   UNK N   1      33.418  17.290   3.677  0.00  0.00    -0.205 F 
ENDROOT
BRANCH   9  22
HETATM   22  N   UNK N   1      28.795  17.536   5.119  0.00  0.00    -0.323 N 
HETATM   23  C   UNK N   1      28.031  16.602   4.481  0.00  0.00     0.250 C 
HETATM   24  O   UNK N   1      28.391  15.431   4.453  0.00  0.00    -0.271 OA
HETATM   25  H   UNK N   1      28.409  18.389   5.421  0.00  0.00     0.169 HD
BRANCH  23  26
HETATM   26  C   UNK N   1      26.928  17.023   3.567  0.00  0.00     0.374 C 
BRANCH  26  27
HETATM   27  N   UNK N   1      26.141  18.075   4.224  0.00  0.00     0.097 N 
HETATM   28  C   UNK N   1      24.732  17.727   4.193  0.00  0.00     0.273 C 
HETATM   29  C   UNK N   1      23.956  19.037   4.206  0.00  0.00     0.032 C 
HETATM   30  C   UNK N   1      24.975  20.110   3.897  0.00  0.00     0.032 C 
HETATM   31  C   UNK N   1      26.190  19.325   3.473  0.00  0.00     0.273 C 
ENDBRANCH  26  27
ENDBRANCH  23  26
ENDBRANCH   9  22
BRANCH  10  32
HETATM   32  O   UNK N   1      29.586  16.731   7.561  0.00  0.00    -0.357 OA
HETATM   33  H   UNK N   1      29.345  17.430   8.138  0.00  0.00     0.217 HD
ENDBRANCH  10  32
BRANCH  15  34
HETATM   34  O   UNK N   1      32.901  15.225  10.805  0.00  0.00    -0.361 OA
HETATM   35  H   UNK N   1      32.631  15.990  11.273  0.00  0.00     0.217 HD
ENDBRANCH  15  34
BRANCH  16  36
HETATM   36  O   UNK N   1      36.188  15.560  10.013  0.00  0.00    -0.374 OA
HETATM   37  H   UNK N   1      36.881  16.101   9.604  0.00  0.00     0.211 HD
ENDBRANCH  16  36
BRANCH   1  38
HETATM   38  N   UNK N   1      37.814  13.953   8.086  0.00  0.00     0.091 N 
HETATM   39  C   UNK N   1      38.919  14.076   9.026  0.00  0.00     0.310 C 
HETATM   40  C   UNK N   1      38.443  13.341   6.923  0.00  0.00     0.310 C 
ENDBRANCH   1  38
BRANCH  19  41
HETATM   41  C   UNK N   1      36.766  11.995  12.419  0.00  0.00     0.255 C 
HETATM   42  O   UNK N   1      36.691  10.782  12.515  0.00  0.00    -0.268 OA
HETATM   43  N   UNK N   1      37.187  12.704  13.487  0.00  0.00    -0.366 N 
HETATM   44  H   UNK N   1      37.705  12.292  14.217  0.00  0.00     0.159 HD
HETATM   45  H   UNK N   1      36.970  13.662  13.539  0.00  0.00     0.159 HD
ENDBRANCH  19  41
BRANCH  20  46
HETATM   46  O   UNK N   1      38.122  11.540   9.987  0.00  0.00    -0.362 OA
HETATM   47  H   UNK N   1      38.092  10.710   9.552  0.00  0.00     0.217 HD
ENDBRANCH  20  46
TORSDOF 9
ENDMDL
MODEL 3
REMARK VINA RESULT:      -7.9      2.659     10.800
REMARK  9 active torsions:
REMARK  status: ('A' for Active; 'I' for Inactive)
REMARK    1  A    between atoms: C_4  and  N_2 
REMARK    2  A    between atoms: C_12  and  N_31 
REMARK    3  A    between atoms: C_13  and  O_30 
REMARK    4  A    between atoms: C_18  and  O_29 
REMARK    5  A    between atoms: C_19  and  O_28 
REMARK    6  A    between atoms: C_22  and  C_25 
REMARK    7  A    between atoms: C_23  and  O_24 
REMARK       I    between atoms: C_25  and  N_27 
REMARK       I    between atoms: N_31  and  C_32 
REMARK    8  A    between atoms: C_32  and  C_34 
REMARK    9  A    between atoms: C_34  and  N_35 
ROOT
HETATM    1  C   UNK N   1      36.438  11.874   9.414  0.00  0.00     0.286 C 
HETATM    2  C   UNK N   1      35.417  13.026   9.208  0.00  0.00     0.075 C 
HETATM    3  C   UNK N   1      35.128  13.370   7.719  0.00  0.00     0.021 C 
HETATM    4  C   UNK N   1      35.407  14.842   7.443  0.00  0.00     0.030 C 
HETATM    5  C   UNK N   1      35.258  15.214   5.963  0.00  0.00     0.052 C 
HETATM    6  C   UNK N   1      33.936  15.810   5.575  0.00  0.00    -0.002 A 
HETATM    7  C   UNK N   1      33.529  15.789   4.226  0.00  0.00     0.126 A 
HETATM    8  C   UNK N   1      32.318  16.384   3.842  0.00  0.00     0.075 A 
HETATM    9  C   UNK N   1      31.509  16.983   4.815  0.00  0.00     0.072 A 
HETATM   10  C   UNK N   1      31.903  16.971   6.150  0.00  0.00     0.107 A 
HETATM   11  C   UNK N   1      33.115  16.430   6.540  0.00  0.00     0.059 A 
HETATM   12  C   UNK N   1      33.524  16.507   7.956  0.00  0.00     0.194 C 
HETATM   13  O   UNK N   1      32.903  17.208   8.748  0.00  0.00    -0.287 OA
HETATM   14  C   UNK N   1      34.587  15.630   8.432  0.00  0.00     0.030 C 
HETATM   15  C   UNK N   1      34.745  15.350   9.741  0.00  0.00     0.096 C 
HETATM   16  C   UNK N   1      35.722  14.249  10.107  0.00  0.00     0.177 C 
HETATM   17  C   UNK N   1      35.639  13.767  11.530  0.00  0.00     0.208 C 
HETATM   18  O   UNK N   1      35.011  14.396  12.370  0.00  0.00    -0.288 OA
HETATM   19  C   UNK N   1      36.314  12.493  11.901  0.00  0.00     0.112 C 
HETATM   20  C   UNK N   1      36.704  11.623  10.915  0.00  0.00     0.096 C 
HETATM   21  F   UNK N   1      34.324  15.223   3.283  0.00  0.00    -0.205 F 
ENDROOT
BRANCH   9  22
HETATM   22  N   UNK N   1      30.340  17.707   4.495  0.00  0.00    -0.323 N 
HETATM   23  C   UNK N   1      29.151  17.036   4.523  0.00  0.00     0.250 C 
HETATM   24  O   UNK N   1      29.050  15.997   5.164  0.00  0.00    -0.271 OA
HETATM   25  H   UNK N   1      30.379  18.662   4.260  0.00  0.00     0.169 HD
BRANCH  23  26
HETATM   26  C   UNK N   1      28.067  17.377   3.555  0.00  0.00     0.374 C 
BRANCH  26  27
HETATM   27  N   UNK N   1      27.083  18.236   4.226  0.00  0.00     0.097 N 
HETATM   28  C   UNK N   1      25.760  17.985   3.683  0.00  0.00     0.273 C 
HETATM   29  C   UNK N   1      24.967  19.274   3.845  0.00  0.00     0.032 C 
HETATM   30  C   UNK N   1      25.992  20.337   4.172  0.00  0.00     0.032 C 
HETATM   31  C   UNK N   1      27.305  19.644   3.916  0.00  0.00     0.273 C 
ENDBRANCH  26  27
ENDBRANCH  23  26
ENDBRANCH   9  22
BRANCH  10  32
HETATM   32  O   UNK N   1      31.075  17.494   7.073  0.00  0.00    -0.357 OA
HETATM   33  H   UNK N   1      30.753  18.370   6.986  0.00  0.00     0.217 HD
ENDBRANCH  10  32
BRANCH  15  34
HETATM   34  O   UNK N   1      33.974  15.949  10.678  0.00  0.00    -0.361 OA
HETATM   35  H   UNK N   1      33.740  16.851  10.588  0.00  0.00     0.217 HD
ENDBRANCH  15  34
BRANCH  16  36
HETATM   36  O   UNK N   1      37.024  14.698   9.858  0.00  0.00    -0.374 OA
HETATM   37  H   UNK N   1      37.977  14.699  10.042  0.00  0.00     0.211 HD
ENDBRANCH  16  36
BRANCH   1  38
HETATM   38  N   UNK N   1      37.686  12.055   8.626  0.00  0.00     0.091 N 
HETATM   39  C   UNK N   1      38.864  12.066   9.482  0.00  0.00     0.310 C 
HETATM   40  C   UNK N   1      37.910  10.891   7.779  0.00  0.00     0.310 C 
ENDBRANCH   1  38
BRANCH  19  41
HETATM   41  C   UNK N   1      36.537  12.178  13.357  0.00  0.00     0.255 C 
HETATM   42  O   UNK N   1      36.138  11.130  13.837  0.00  0.00    -0.268 OA
HETATM   43  N   UNK N   1      37.204  13.040  14.152  0.00  0.00    -0.366 N 
HETATM   44  H   UNK N   1      37.633  12.753  14.990  0.00  0.00     0.159 HD
HETATM   45  H   UNK N   1      37.262  13.986  13.886  0.00  0.00     0.159 HD
ENDBRANCH  19  41
BRANCH  20  46
HETATM   46  O   UNK N   1      37.313  10.469  11.250  0.00  0.00    -0.362 OA
HETATM   47  H   UNK N   1      38.084  10.427  11.781  0.00  0.00     0.217 HD
ENDBRANCH  20  46
TORSDOF 9
ENDMDL
MODEL 4
REMARK VINA RESULT:      -7.7      3.426     11.100
REMARK  9 active torsions:
REMARK  status: ('A' for Active; 'I' for Inactive)
REMARK    1  A    between atoms: C_4  and  N_2 
REMARK    2  A    between atoms: C_12  and  N_31 
REMARK    3  A    between atoms: C_13  and  O_30 
REMARK    4  A    between atoms: C_18  and  O_29 
REMARK    5  A    between atoms: C_19  and  O_28 
REMARK    6  A    between atoms: C_22  and  C_25 
REMARK    7  A    between atoms: C_23  and  O_24 
REMARK       I    between atoms: C_25  and  N_27 
REMARK       I    between atoms: N_31  and  C_32 
REMARK    8  A    between atoms: C_32  and  C_34 
REMARK    9  A    between atoms: C_34  and  N_35 
ROOT
HETATM    1  C   UNK N   1      32.935  14.593   6.513  0.00  0.00     0.286 C 
HETATM    2  C   UNK N   1      31.562  15.318   6.504  0.00  0.00     0.075 C 
HETATM    3  C   UNK N   1      30.652  14.953   5.297  0.00  0.00     0.021 C 
HETATM    4  C   UNK N   1      30.250  16.206   4.528  0.00  0.00     0.030 C 
HETATM    5  C   UNK N   1      29.453  15.899   3.254  0.00  0.00     0.052 C 
HETATM    6  C   UNK N   1      27.961  15.993   3.387  0.00  0.00    -0.002 A 
HETATM    7  C   UNK N   1      27.133  15.337   2.453  0.00  0.00     0.126 A 
HETATM    8  C   UNK N   1      25.738  15.456   2.537  0.00  0.00     0.075 A 
HETATM    9  C   UNK N   1      25.175  16.217   3.567  0.00  0.00     0.072 A 
HETATM   10  C   UNK N   1      25.997  16.836   4.505  0.00  0.00     0.107 A 
HETATM   11  C   UNK N   1      27.376  16.768   4.411  0.00  0.00     0.059 A 
HETATM   12  C   UNK N   1      28.209  17.501   5.384  0.00  0.00     0.194 C 
HETATM   13  O   UNK N   1      27.703  18.319   6.147  0.00  0.00    -0.287 OA
HETATM   14  C   UNK N   1      29.613  17.139   5.525  0.00  0.00     0.030 C 
HETATM   15  C   UNK N   1      30.324  17.460   6.625  0.00  0.00     0.096 C 
HETATM   16  C   UNK N   1      31.698  16.837   6.776  0.00  0.00     0.177 C 
HETATM   17  C   UNK N   1      32.316  16.974   8.142  0.00  0.00     0.208 C 
HETATM   18  O   UNK N   1      31.849  17.745   8.967  0.00  0.00    -0.288 OA
HETATM   19  C   UNK N   1      33.497  16.135   8.486  0.00  0.00     0.112 C 
HETATM   20  C   UNK N   1      33.795  15.040   7.716  0.00  0.00     0.096 C 
HETATM   21  F   UNK N   1      27.684  14.614   1.445  0.00  0.00    -0.205 F 
ENDROOT
BRANCH   9  22
HETATM   22  N   UNK N   1      23.791  16.484   3.649  0.00  0.00    -0.323 N 
HETATM   23  C   UNK N   1      22.980  15.491   4.119  0.00  0.00     0.250 C 
HETATM   24  O   UNK N   1      23.450  14.585   4.796  0.00  0.00    -0.271 OA
HETATM   25  H   UNK N   1      23.423  17.356   3.378  0.00  0.00     0.169 HD
BRANCH  23  26
HETATM   26  C   UNK N   1      21.598  15.325   3.580  0.00  0.00     0.374 C 
BRANCH  26  27
HETATM   27  N   UNK N   1      21.366  16.340   2.544  0.00  0.00     0.097 N 
HETATM   28  C   UNK N   1      20.376  17.296   3.005  0.00  0.00     0.273 C 
HETATM   29  C   UNK N   1      19.678  17.838   1.764  0.00  0.00     0.032 C 
HETATM   30  C   UNK N   1      20.071  16.904   0.643  0.00  0.00     0.032 C 
HETATM   31  C   UNK N   1      20.739  15.759   1.361  0.00  0.00     0.273 C 
ENDBRANCH  26  27
ENDBRANCH  23  26
ENDBRANCH   9  22
BRANCH  10  32
HETATM   32  O   UNK N   1      25.428  17.505   5.524  0.00  0.00    -0.357 OA
HETATM   33  H   UNK N   1      24.888  17.058   6.147  0.00  0.00     0.217 HD
ENDBRANCH  10  32
BRANCH  15  34
HETATM   34  O   UNK N   1      29.779  18.215   7.607  0.00  0.00    -0.361 OA
HETATM   35  H   UNK N   1      30.328  18.730   8.164  0.00  0.00     0.217 HD
ENDBRANCH  15  34
BRANCH  16  36
HETATM   36  O   UNK N   1      32.560  17.405   5.831  0.00  0.00    -0.374 OA
HETATM   37  H   UNK N   1      33.445  17.655   5.525  0.00  0.00     0.211 HD
ENDBRANCH  16  36
BRANCH   1  38
HETATM   38  N   UNK N   1      33.655  14.692   5.217  0.00  0.00     0.091 N 
HETATM   39  C   UNK N   1      34.989  15.251   5.385  0.00  0.00     0.310 C 
HETATM   40  C   UNK N   1      33.926  13.357   4.697  0.00  0.00     0.310 C 
ENDBRANCH   1  38
BRANCH  19  41
HETATM   41  C   UNK N   1      34.329  16.498   9.688  0.00  0.00     0.255 C 
HETATM   42  O   UNK N   1      35.069  17.467   9.666  0.00  0.00    -0.268 OA
HETATM   43  N   UNK N   1      34.253  15.768  10.821  0.00  0.00    -0.366 N 
HETATM   44  H   UNK N   1      34.522  16.131  11.696  0.00  0.00     0.159 HD
HETATM   45  H   UNK N   1      33.920  14.843  10.771  0.00  0.00     0.159 HD
ENDBRANCH  19  41
BRANCH  20  46
HETATM   46  O   UNK N   1      34.863  14.280   8.029  0.00  0.00    -0.362 OA
HETATM   47  H   UNK N   1      34.871  13.665   8.736  0.00  0.00     0.217 HD
ENDBRANCH  20  46
TORSDOF 9
ENDMDL
MODEL 5
REMARK VINA RESULT:      -7.7      5.909     13.689
REMARK  9 active torsions:
REMARK  status: ('A' for Active; 'I' for Inactive)
REMARK    1  A    between atoms: C_4  and  N_2 
REMARK    2  A    between atoms: C_12  and  N_31 
REMARK    3  A    between atoms: C_13  and  O_30 
REMARK    4  A    between atoms: C_18  and  O_29 
REMARK    5  A    between atoms: C_19  and  O_28 
REMARK    6  A    between atoms: C_22  and  C_25 
REMARK    7  A    between atoms: C_23  and  O_24 
REMARK       I    between atoms: C_25  and  N_27 
REMARK       I    between atoms: N_31  and  C_32 
REMARK    8  A    between atoms: C_32  and  C_34 
REMARK    9  A    between atoms: C_34  and  N_35 
ROOT
HETATM    1  C   UNK N   1      34.401   8.471  18.416  0.00  0.00     0.286 C 
HETATM    2  C   UNK N   1      34.707   9.799  17.671  0.00  0.00     0.075 C 
HETATM    3  C   UNK N   1      35.192   9.616  16.205  0.00  0.00     0.021 C 
HETATM    4  C   UNK N   1      36.541  10.293  15.996  0.00  0.00     0.030 C 
HETATM    5  C   UNK N   1      37.130  10.043  14.603  0.00  0.00     0.052 C 
HETATM    6  C   UNK N   1      36.885  11.126  13.593  0.00  0.00    -0.002 A 
HETATM    7  C   UNK N   1      36.988  10.834  12.217  0.00  0.00     0.126 A 
HETATM    8  C   UNK N   1      36.809  11.847  11.263  0.00  0.00     0.075 A 
HETATM    9  C   UNK N   1      36.510  13.146  11.690  0.00  0.00     0.072 A 
HETATM   10  C   UNK N   1      36.379  13.419  13.049  0.00  0.00     0.107 A 
HETATM   11  C   UNK N   1      36.597  12.443  14.005  0.00  0.00     0.059 A 
HETATM   12  C   UNK N   1      36.519  12.797  15.436  0.00  0.00     0.194 C 
HETATM   13  O   UNK N   1      36.459  13.971  15.786  0.00  0.00    -0.287 OA
HETATM   14  C   UNK N   1      36.372  11.730  16.418  0.00  0.00     0.030 C 
HETATM   15  C   UNK N   1      35.904  11.967  17.661  0.00  0.00     0.096 C 
HETATM   16  C   UNK N   1      35.567  10.765  18.522  0.00  0.00     0.177 C 
HETATM   17  C   UNK N   1      34.771  11.070  19.762  0.00  0.00     0.208 C 
HETATM   18  O   UNK N   1      34.639  12.220  20.156  0.00  0.00    -0.288 OA
HETATM   19  C   UNK N   1      34.121   9.949  20.495  0.00  0.00     0.112 C 
HETATM   20  C   UNK N   1      33.968   8.735  19.875  0.00  0.00     0.096 C 
HETATM   21  F   UNK N   1      37.296   9.577  11.808  0.00  0.00    -0.205 F 
ENDROOT
BRANCH   9  22
HETATM   22  N   UNK N   1      36.436  14.242  10.803  0.00  0.00    -0.323 N 
HETATM   23  C   UNK N   1      35.355  14.313   9.972  0.00  0.00     0.250 C 
HETATM   24  O   UNK N   1      34.330  13.702  10.247  0.00  0.00    -0.271 OA
HETATM   25  H   UNK N   1      37.138  14.932  10.784  0.00  0.00     0.169 HD
BRANCH  23  26
HETATM   26  C   UNK N   1      35.495  14.873   8.595  0.00  0.00     0.374 C 
BRANCH  26  27
HETATM   27  N   UNK N   1      34.394  15.813   8.349  0.00  0.00     0.097 N 
HETATM   28  C   UNK N   1      34.353  16.166   6.942  0.00  0.00     0.273 C 
HETATM   29  C   UNK N   1      33.751  17.562   6.857  0.00  0.00     0.032 C 
HETATM   30  C   UNK N   1      33.783  18.100   8.269  0.00  0.00     0.032 C 
HETATM   31  C   UNK N   1      34.632  17.096   9.005  0.00  0.00     0.273 C 
ENDBRANCH  26  27
ENDBRANCH  23  26
ENDBRANCH   9  22
BRANCH  10  32
HETATM   32  O   UNK N   1      36.024  14.660  13.428  0.00  0.00    -0.357 OA
HETATM   33  H   UNK N   1      35.122  14.882  13.556  0.00  0.00     0.217 HD
ENDBRANCH  10  32
BRANCH  15  34
HETATM   34  O   UNK N   1      35.638  13.228  18.073  0.00  0.00    -0.361 OA
HETATM   35  H   UNK N   1      36.294  13.727  18.517  0.00  0.00     0.217 HD
ENDBRANCH  15  34
BRANCH  16  36
HETATM   36  O   UNK N   1      36.756  10.127  18.894  0.00  0.00    -0.374 OA
HETATM   37  H   UNK N   1      37.702  10.141  19.106  0.00  0.00     0.211 HD
ENDBRANCH  16  36
BRANCH   1  38
HETATM   38  N   UNK N   1      35.501   7.477  18.308  0.00  0.00     0.091 N 
HETATM   39  C   UNK N   1      35.990   7.074  19.619  0.00  0.00     0.310 C 
HETATM   40  C   UNK N   1      34.989   6.230  17.756  0.00  0.00     0.310 C 
ENDBRANCH   1  38
BRANCH  19  41
HETATM   41  C   UNK N   1      33.626  10.180  21.899  0.00  0.00     0.255 C 
HETATM   42  O   UNK N   1      33.841   9.363  22.779  0.00  0.00    -0.268 OA
HETATM   43  N   UNK N   1      32.953  11.306  22.213  0.00  0.00    -0.366 N 
HETATM   44  H   UNK N   1      32.890  11.636  23.139  0.00  0.00     0.159 HD
HETATM   45  H   UNK N   1      32.512  11.815  21.495  0.00  0.00     0.159 HD
ENDBRANCH  19  41
BRANCH  20  46
HETATM   46  O   UNK N   1      33.377   7.721  20.538  0.00  0.00    -0.362 OA
HETATM   47  H   UNK N   1      33.019   6.966  20.114  0.00  0.00     0.217 HD
ENDBRANCH  20  46
TORSDOF 9
ENDMDL
MODEL 6
REMARK VINA RESULT:      -7.6      2.720     10.843
REMARK  9 active torsions:
REMARK  status: ('A' for Active; 'I' for Inactive)
REMARK    1  A    between atoms: C_4  and  N_2 
REMARK    2  A    between atoms: C_12  and  N_31 
REMARK    3  A    between atoms: C_13  and  O_30 
REMARK    4  A    between atoms: C_18  and  O_29 
REMARK    5  A    between atoms: C_19  and  O_28 
REMARK    6  A    between atoms: C_22  and  C_25 
REMARK    7  A    between atoms: C_23  and  O_24 
REMARK       I    between atoms: C_25  and  N_27 
REMARK       I    between atoms: N_31  and  C_32 
REMARK    8  A    between atoms: C_32  and  C_34 
REMARK    9  A    between atoms: C_34  and  N_35 
ROOT
HETATM    1  C   UNK N   1      36.513  12.309  10.146  0.00  0.00     0.286 C 
HETATM    2  C   UNK N   1      35.594  13.505   9.777  0.00  0.00     0.075 C 
HETATM    3  C   UNK N   1      35.248  13.606   8.264  0.00  0.00     0.021 C 
HETATM    4  C   UNK N   1      35.645  14.968   7.711  0.00  0.00     0.030 C 
HETATM    5  C   UNK N   1      35.442  15.084   6.196  0.00  0.00     0.052 C 
HETATM    6  C   UNK N   1      34.160  15.734   5.763  0.00  0.00    -0.002 A 
HETATM    7  C   UNK N   1      33.671  15.515   4.459  0.00  0.00     0.126 A 
HETATM    8  C   UNK N   1      32.500  16.154   4.025  0.00  0.00     0.075 A 
HETATM    9  C   UNK N   1      31.812  16.996   4.906  0.00  0.00     0.072 A 
HETATM   10  C   UNK N   1      32.283  17.183   6.202  0.00  0.00     0.107 A 
HETATM   11  C   UNK N   1      33.461  16.598   6.632  0.00  0.00     0.059 A 
HETATM   12  C   UNK N   1      33.961  16.883   7.991  0.00  0.00     0.194 C 
HETATM   13  O   UNK N   1      33.458  17.774   8.667  0.00  0.00    -0.287 OA
HETATM   14  C   UNK N   1      34.964  16.000   8.573  0.00  0.00     0.030 C 
HETATM   15  C   UNK N   1      35.175  15.943   9.904  0.00  0.00     0.096 C 
HETATM   16  C   UNK N   1      36.066  14.831  10.423  0.00  0.00     0.177 C 
HETATM   17  C   UNK N   1      36.025  14.621  11.912  0.00  0.00     0.208 C 
HETATM   18  O   UNK N   1      35.511  15.451  12.649  0.00  0.00    -0.288 OA
HETATM   19  C   UNK N   1      36.599  13.370  12.481  0.00  0.00     0.112 C 
HETATM   20  C   UNK N   1      36.845  12.304  11.655  0.00  0.00     0.096 C 
HETATM   21  F   UNK N   1      34.351  14.711   3.602  0.00  0.00    -0.205 F 
ENDROOT
BRANCH   9  22
HETATM   22  N   UNK N   1      30.698  17.769   4.509  0.00  0.00    -0.323 N 
HETATM   23  C   UNK N   1      29.455  17.283   4.798  0.00  0.00     0.250 C 
HETATM   24  O   UNK N   1      29.314  16.449   5.685  0.00  0.00    -0.271 OA
HETATM   25  H   UNK N   1      30.812  18.627   4.041  0.00  0.00     0.169 HD
BRANCH  23  26
HETATM   26  C   UNK N   1      28.314  17.521   3.865  0.00  0.00     0.374 C 
BRANCH  26  27
HETATM   27  N   UNK N   1      27.672  16.235   3.561  0.00  0.00     0.097 N 
HETATM   28  C   UNK N   1      28.414  15.550   2.518  0.00  0.00     0.273 C 
HETATM   29  C   UNK N   1      27.417  14.670   1.777  0.00  0.00     0.032 C 
HETATM   30  C   UNK N   1      26.053  15.150   2.216  0.00  0.00     0.032 C 
HETATM   31  C   UNK N   1      26.356  16.425   2.960  0.00  0.00     0.273 C 
ENDBRANCH  26  27
ENDBRANCH  23  26
ENDBRANCH   9  22
BRANCH  10  32
HETATM   32  O   UNK N   1      31.566  17.944   7.049  0.00  0.00    -0.357 OA
HETATM   33  H   UNK N   1      31.790  17.991   7.957  0.00  0.00     0.217 HD
ENDBRANCH  10  32
BRANCH  15  34
HETATM   34  O   UNK N   1      34.523  16.776  10.747  0.00  0.00    -0.361 OA
HETATM   35  H   UNK N   1      34.658  16.712  11.671  0.00  0.00     0.217 HD
ENDBRANCH  15  34
BRANCH  16  36
HETATM   36  O   UNK N   1      37.387  15.091  10.040  0.00  0.00    -0.374 OA
HETATM   37  H   UNK N   1      38.342  14.937  10.109  0.00  0.00     0.211 HD
ENDBRANCH  16  36
BRANCH   1  38
HETATM   38  N   UNK N   1      37.722  12.217   9.286  0.00  0.00     0.091 N 
HETATM   39  C   UNK N   1      38.945  12.374  10.061  0.00  0.00     0.310 C 
HETATM   40  C   UNK N   1      37.847  10.868   8.750  0.00  0.00     0.310 C 
ENDBRANCH   1  38
BRANCH  19  41
HETATM   41  C   UNK N   1      36.881  13.298  13.959  0.00  0.00     0.255 C 
HETATM   42  O   UNK N   1      36.780  12.243  14.562  0.00  0.00    -0.268 OA
HETATM   43  N   UNK N   1      37.271  14.397  14.638  0.00  0.00    -0.366 N 
HETATM   44  H   UNK N   1      37.752  14.338  15.496  0.00  0.00     0.159 HD
HETATM   45  H   UNK N   1      37.070  15.285  14.265  0.00  0.00     0.159 HD
ENDBRANCH  19  41
BRANCH  20  46
HETATM   46  O   UNK N   1      37.363  11.171  12.169  0.00  0.00    -0.362 OA
HETATM   47  H   UNK N   1      38.271  11.066  12.378  0.00  0.00     0.217 HD
ENDBRANCH  20  46
TORSDOF 9
ENDMDL
MODEL 7
REMARK VINA RESULT:      -7.6      4.447     12.092
REMARK  9 active torsions:
REMARK  status: ('A' for Active; 'I' for Inactive)
REMARK    1  A    between atoms: C_4  and  N_2 
REMARK    2  A    between atoms: C_12  and  N_31 
REMARK    3  A    between atoms: C_13  and  O_30 
REMARK    4  A    between atoms: C_18  and  O_29 
REMARK    5  A    between atoms: C_19  and  O_28 
REMARK    6  A    between atoms: C_22  and  C_25 
REMARK    7  A    between atoms: C_23  and  O_24 
REMARK       I    between atoms: C_25  and  N_27 
REMARK       I    between atoms: N_31  and  C_32 
REMARK    8  A    between atoms: C_32  and  C_34 
REMARK    9  A    between atoms: C_34  and  N_35 
ROOT
HETATM    1  C   UNK N   1      36.766   9.398  13.821  0.00  0.00     0.286 C 
HETATM    2  C   UNK N   1      36.308  10.827  13.423  0.00  0.00     0.075 C 
HETATM    3  C   UNK N   1      36.405  11.132  11.901  0.00  0.00     0.021 C 
HETATM    4  C   UNK N   1      37.265  12.365  11.652  0.00  0.00     0.030 C 
HETATM    5  C   UNK N   1      37.499  12.644  10.163  0.00  0.00     0.052 C 
HETATM    6  C   UNK N   1      36.582  13.658   9.542  0.00  0.00    -0.002 A 
HETATM    7  C   UNK N   1      36.410  13.681   8.143  0.00  0.00     0.126 A 
HETATM    8  C   UNK N   1      35.594  14.653   7.546  0.00  0.00     0.075 A 
HETATM    9  C   UNK N   1      34.937  15.588   8.354  0.00  0.00     0.072 A 
HETATM   10  C   UNK N   1      35.087  15.539   9.737  0.00  0.00     0.107 A 
HETATM   11  C   UNK N   1      35.924  14.617  10.340  0.00  0.00     0.059 A 
HETATM   12  C   UNK N   1      36.108  14.649  11.804  0.00  0.00     0.194 C 
HETATM   13  O   UNK N   1      35.689  15.595  12.465  0.00  0.00    -0.287 OA
HETATM   14  C   UNK N   1      36.667  13.480  12.471  0.00  0.00     0.030 C 
HETATM   15  C   UNK N   1      36.504  13.269  13.792  0.00  0.00     0.096 C 
HETATM   16  C   UNK N   1      36.916  11.916  14.340  0.00  0.00     0.177 C 
HETATM   17  C   UNK N   1      36.437  11.618  15.735  0.00  0.00     0.208 C 
HETATM   18  O   UNK N   1      35.977  12.503  16.443  0.00  0.00    -0.288 OA
HETATM   19  C   UNK N   1      36.507  10.218  16.239  0.00  0.00     0.112 C 
HETATM   20  C   UNK N   1      36.681   9.189  15.349  0.00  0.00     0.096 C 
HETATM   21  F   UNK N   1      37.063  12.783   7.361  0.00  0.00    -0.205 F 
ENDROOT
BRANCH   9  22
HETATM   22  N   UNK N   1      34.198  16.668   7.825  0.00  0.00    -0.323 N 
HETATM   23  C   UNK N   1      32.856  16.491   7.646  0.00  0.00     0.250 C 
HETATM   24  O   UNK N   1      32.266  15.616   8.267  0.00  0.00    -0.271 OA
HETATM   25  H   UNK N   1      34.635  17.520   7.593  0.00  0.00     0.169 HD
BRANCH  23  26
HETATM   26  C   UNK N   1      32.155  17.137   6.497  0.00  0.00     0.374 C 
BRANCH  26  27
HETATM   27  N   UNK N   1      32.933  16.904   5.273  0.00  0.00     0.097 N 
HETATM   28  C   UNK N   1      32.312  17.596   4.158  0.00  0.00     0.273 C 
HETATM   29  C   UNK N   1      32.669  16.812   2.902  0.00  0.00     0.032 C 
HETATM   30  C   UNK N   1      33.208  15.489   3.394  0.00  0.00     0.032 C 
HETATM   31  C   UNK N   1      32.878  15.504   4.865  0.00  0.00     0.273 C 
ENDBRANCH  26  27
ENDBRANCH  23  26
ENDBRANCH   9  22
BRANCH  10  32
HETATM   32  O   UNK N   1      34.391  16.406  10.494  0.00  0.00    -0.357 OA
HETATM   33  H   UNK N   1      34.596  17.321  10.485  0.00  0.00     0.217 HD
ENDBRANCH  10  32
BRANCH  15  34
HETATM   34  O   UNK N   1      35.887  14.187  14.571  0.00  0.00    -0.361 OA
HETATM   35  H   UNK N   1      36.392  14.806  15.060  0.00  0.00     0.217 HD
ENDBRANCH  15  34
BRANCH  16  36
HETATM   36  O   UNK N   1      38.313  11.823  14.312  0.00  0.00    -0.374 OA
HETATM   37  H   UNK N   1      39.172  11.751  14.756  0.00  0.00     0.211 HD
ENDBRANCH  16  36
BRANCH   1  38
HETATM   38  N   UNK N   1      38.092   9.034  13.258  0.00  0.00     0.091 N 
HETATM   39  C   UNK N   1      39.038   8.671  14.305  0.00  0.00     0.310 C 
HETATM   40  C   UNK N   1      37.981   7.806  12.482  0.00  0.00     0.310 C 
ENDBRANCH   1  38
BRANCH  19  41
HETATM   41  C   UNK N   1      36.367   9.962  17.716  0.00  0.00     0.255 C 
HETATM   42  O   UNK N   1      37.187   9.284  18.313  0.00  0.00    -0.268 OA
HETATM   43  N   UNK N   1      35.341  10.496  18.411  0.00  0.00    -0.366 N 
HETATM   44  H   UNK N   1      35.378  10.617  19.388  0.00  0.00     0.159 HD
HETATM   45  H   UNK N   1      34.531  10.774  17.927  0.00  0.00     0.159 HD
ENDBRANCH  19  41
BRANCH  20  46
HETATM   46  O   UNK N   1      36.743   7.922  15.804  0.00  0.00    -0.362 OA
HETATM   47  H   UNK N   1      36.093   7.540  16.361  0.00  0.00     0.217 HD
ENDBRANCH  20  46
TORSDOF 9
ENDMDL
MODEL 8
REMARK VINA RESULT:      -7.3      4.793     12.417
REMARK  9 active torsions:
REMARK  status: ('A' for Active; 'I' for Inactive)
REMARK    1  A    between atoms: C_4  and  N_2 
REMARK    2  A    between atoms: C_12  and  N_31 
REMARK    3  A    between atoms: C_13  and  O_30 
REMARK    4  A    between atoms: C_18  and  O_29 
REMARK    5  A    between atoms: C_19  and  O_28 
REMARK    6  A    between atoms: C_22  and  C_25 
REMARK    7  A    between atoms: C_23  and  O_24 
REMARK       I    between atoms: C_25  and  N_27 
REMARK       I    between atoms: N_31  and  C_32 
REMARK    8  A    between atoms: C_32  and  C_34 
REMARK    9  A    between atoms: C_34  and  N_35 
ROOT
HETATM    1  C   UNK N   1      35.300   8.819  16.204  0.00  0.00     0.286 C 
HETATM    2  C   UNK N   1      35.004  10.061  15.320  0.00  0.00     0.075 C 
HETATM    3  C   UNK N   1      35.094   9.796  13.790  0.00  0.00     0.021 C 
HETATM    4  C   UNK N   1      36.087  10.748  13.136  0.00  0.00     0.030 C 
HETATM    5  C   UNK N   1      36.311  10.455  11.647  0.00  0.00     0.052 C 
HETATM    6  C   UNK N   1      35.504  11.288  10.695  0.00  0.00    -0.002 A 
HETATM    7  C   UNK N   1      35.296  10.838   9.375  0.00  0.00     0.126 A 
HETATM    8  C   UNK N   1      34.585  11.629   8.461  0.00  0.00     0.075 A 
HETATM    9  C   UNK N   1      34.067  12.860   8.877  0.00  0.00     0.072 A 
HETATM   10  C   UNK N   1      34.248  13.284  10.190  0.00  0.00     0.107 A 
HETATM   11  C   UNK N   1      34.987  12.539  11.093  0.00  0.00     0.059 A 
HETATM   12  C   UNK N   1      35.214  13.062  12.454  0.00  0.00     0.194 C 
HETATM   13  O   UNK N   1      34.929  14.223  12.732  0.00  0.00    -0.287 OA
HETATM   14  C   UNK N   1      35.649  12.144  13.499  0.00  0.00     0.030 C 
HETATM   15  C   UNK N   1      35.499  12.433  14.807  0.00  0.00     0.096 C 
HETATM   16  C   UNK N   1      35.763  11.321  15.803  0.00  0.00     0.177 C 
HETATM   17  C   UNK N   1      35.291  11.593  17.206  0.00  0.00     0.208 C 
HETATM   18  O   UNK N   1      34.960  12.719  17.549  0.00  0.00    -0.288 OA
HETATM   19  C   UNK N   1      35.209  10.463  18.172  0.00  0.00     0.112 C 
HETATM   20  C   UNK N   1      35.234   9.173  17.706  0.00  0.00     0.096 C 
HETATM   21  F   UNK N   1      35.815   9.651   8.971  0.00  0.00    -0.205 F 
ENDROOT
BRANCH   9  22
HETATM   22  N   UNK N   1      33.447  13.767   7.988  0.00  0.00    -0.323 N 
HETATM   23  C   UNK N   1      34.241  14.682   7.360  0.00  0.00     0.250 C 
HETATM   24  O   UNK N   1      35.445  14.481   7.258  0.00  0.00    -0.271 OA
HETATM   25  H   UNK N   1      32.476  13.739   7.827  0.00  0.00     0.169 HD
BRANCH  23  26
HETATM   26  C   UNK N   1      33.727  16.052   7.062  0.00  0.00     0.374 C 
BRANCH  26  27
HETATM   27  N   UNK N   1      32.376  16.185   7.623  0.00  0.00     0.097 N 
HETATM   28  C   UNK N   1      31.412  16.349   6.551  0.00  0.00     0.273 C 
HETATM   29  C   UNK N   1      30.251  17.150   7.123  0.00  0.00     0.032 C 
HETATM   30  C   UNK N   1      30.758  17.715   8.430  0.00  0.00     0.032 C 
HETATM   31  C   UNK N   1      32.236  17.422   8.385  0.00  0.00     0.273 C 
ENDBRANCH  26  27
ENDBRANCH  23  26
ENDBRANCH   9  22
BRANCH  10  32
HETATM   32  O   UNK N   1      33.682  14.440  10.582  0.00  0.00    -0.357 OA
HETATM   33  H   UNK N   1      34.027  15.263  10.296  0.00  0.00     0.217 HD
ENDBRANCH  10  32
BRANCH  15  34
HETATM   34  O   UNK N   1      35.018  13.635  15.202  0.00  0.00    -0.361 OA
HETATM   35  H   UNK N   1      34.098  13.807  15.171  0.00  0.00     0.217 HD
ENDBRANCH  15  34
BRANCH  16  36
HETATM   36  O   UNK N   1      37.137  11.055  15.832  0.00  0.00    -0.374 OA
HETATM   37  H   UNK N   1      38.038  11.184  15.499  0.00  0.00     0.211 HD
ENDBRANCH  16  36
BRANCH   1  38
HETATM   38  N   UNK N   1      36.558   8.122  15.827  0.00  0.00     0.091 N 
HETATM   39  C   UNK N   1      37.473   8.019  16.955  0.00  0.00     0.310 C 
HETATM   40  C   UNK N   1      36.276   6.728  15.509  0.00  0.00     0.310 C 
ENDBRANCH   1  38
BRANCH  19  41
HETATM   41  C   UNK N   1      35.080  10.762  19.642  0.00  0.00     0.255 C 
HETATM   42  O   UNK N   1      34.236  10.202  20.322  0.00  0.00    -0.268 OA
HETATM   43  N   UNK N   1      35.912  11.640  20.240  0.00  0.00    -0.366 N 
HETATM   44  H   UNK N   1      36.070  11.633  21.212  0.00  0.00     0.159 HD
HETATM   45  H   UNK N   1      36.376  12.309  19.687  0.00  0.00     0.159 HD
ENDBRANCH  19  41
BRANCH  20  46
HETATM   46  O   UNK N   1      35.158   8.150  18.579  0.00  0.00    -0.362 OA
HETATM   47  H   UNK N   1      35.794   7.463  18.628  0.00  0.00     0.217 HD
ENDBRANCH  20  46
TORSDOF 9
ENDMDL
MODEL 9
REMARK VINA RESULT:      -7.3      3.463     10.792
REMARK  9 active torsions:
REMARK  status: ('A' for Active; 'I' for Inactive)
REMARK    1  A    between atoms: C_4  and  N_2 
REMARK    2  A    between atoms: C_12  and  N_31 
REMARK    3  A    between atoms: C_13  and  O_30 
REMARK    4  A    between atoms: C_18  and  O_29 
REMARK    5  A    between atoms: C_19  and  O_28 
REMARK    6  A    between atoms: C_22  and  C_25 
REMARK    7  A    between atoms: C_23  and  O_24 
REMARK       I    between atoms: C_25  and  N_27 
REMARK       I    between atoms: N_31  and  C_32 
REMARK    8  A    between atoms: C_32  and  C_34 
REMARK    9  A    between atoms: C_34  and  N_35 
ROOT
HETATM    1  C   UNK N   1      33.700  16.393   6.095  0.00  0.00     0.286 C 
HETATM    2  C   UNK N   1      32.265  16.245   5.520  0.00  0.00     0.075 C 
HETATM    3  C   UNK N   1      31.301  17.407   5.894  0.00  0.00     0.021 C 
HETATM    4  C   UNK N   1      30.056  16.870   6.588  0.00  0.00     0.030 C 
HETATM    5  C   UNK N   1      29.123  17.978   7.092  0.00  0.00     0.052 C 
HETATM    6  C   UNK N   1      27.976  18.320   6.185  0.00  0.00    -0.002 A 
HETATM    7  C   UNK N   1      27.329  19.565   6.317  0.00  0.00     0.126 A 
HETATM    8  C   UNK N   1      26.226  19.879   5.509  0.00  0.00     0.075 A 
HETATM    9  C   UNK N   1      25.786  18.952   4.559  0.00  0.00     0.072 A 
HETATM   10  C   UNK N   1      26.450  17.737   4.412  0.00  0.00     0.107 A 
HETATM   11  C   UNK N   1      27.510  17.391   5.232  0.00  0.00     0.059 A 
HETATM   12  C   UNK N   1      28.137  16.062   5.089  0.00  0.00     0.194 C 
HETATM   13  O   UNK N   1      27.611  15.196   4.398  0.00  0.00    -0.287 OA
HETATM   14  C   UNK N   1      29.457  15.840   5.665  0.00  0.00     0.030 C 
HETATM   15  C   UNK N   1      30.250  14.830   5.255  0.00  0.00     0.096 C 
HETATM   16  C   UNK N   1      31.686  14.827   5.742  0.00  0.00     0.177 C 
HETATM   17  C   UNK N   1      32.604  13.872   5.026  0.00  0.00     0.208 C 
HETATM   18  O   UNK N   1      32.155  13.001   4.294  0.00  0.00    -0.288 OA
HETATM   19  C   UNK N   1      34.075  14.017   5.200  0.00  0.00     0.112 C 
HETATM   20  C   UNK N   1      34.582  15.182   5.717  0.00  0.00     0.096 C 
HETATM   21  F   UNK N   1      27.748  20.456   7.252  0.00  0.00    -0.205 F 
ENDROOT
BRANCH   9  22
HETATM   22  N   UNK N   1      24.614  19.140   3.794  0.00  0.00    -0.323 N 
HETATM   23  C   UNK N   1      24.581  20.202   2.936  0.00  0.00     0.250 C 
HETATM   24  O   UNK N   1      25.626  20.715   2.556  0.00  0.00    -0.271 OA
HETATM   25  H   UNK N   1      23.847  18.529   3.876  0.00  0.00     0.169 HD
BRANCH  23  26
HETATM   26  C   UNK N   1      23.304  20.935   2.688  0.00  0.00     0.374 C 
BRANCH  26  27
HETATM   27  N   UNK N   1      22.233  19.958   2.451  0.00  0.00     0.097 N 
HETATM   28  C   UNK N   1      21.281  20.494   1.496  0.00  0.00     0.273 C 
HETATM   29  C   UNK N   1      19.938  19.848   1.805  0.00  0.00     0.032 C 
HETATM   30  C   UNK N   1      20.103  19.211   3.166  0.00  0.00     0.032 C 
HETATM   31  C   UNK N   1      21.422  19.756   3.648  0.00  0.00     0.273 C 
ENDBRANCH  26  27
ENDBRANCH  23  26
ENDBRANCH   9  22
BRANCH  10  32
HETATM   32  O   UNK N   1      26.049  16.892   3.445  0.00  0.00    -0.357 OA
HETATM   33  H   UNK N   1      25.447  17.174   2.783  0.00  0.00     0.217 HD
ENDBRANCH  10  32
BRANCH  15  34
HETATM   34  O   UNK N   1      29.810  13.924   4.351  0.00  0.00    -0.361 OA
HETATM   35  H   UNK N   1      29.748  13.019   4.583  0.00  0.00     0.217 HD
ENDBRANCH  15  34
BRANCH  16  36
HETATM   36  O   UNK N   1      31.700  14.526   7.109  0.00  0.00    -0.374 OA
HETATM   37  H   UNK N   1      31.404  14.005   7.871  0.00  0.00     0.211 HD
ENDBRANCH  16  36
BRANCH   1  38
HETATM   38  N   UNK N   1      33.716  16.689   7.552  0.00  0.00     0.091 N 
HETATM   39  C   UNK N   1      34.558  15.752   8.281  0.00  0.00     0.310 C 
HETATM   40  C   UNK N   1      34.372  17.968   7.790  0.00  0.00     0.310 C 
ENDBRANCH   1  38
BRANCH  19  41
HETATM   41  C   UNK N   1      34.978  12.886   4.786  0.00  0.00     0.255 C 
HETATM   42  O   UNK N   1      36.019  13.104   4.189  0.00  0.00    -0.268 OA
HETATM   43  N   UNK N   1      34.661  11.609   5.087  0.00  0.00    -0.366 N 
HETATM   44  H   UNK N   1      35.340  10.896   5.119  0.00  0.00     0.159 HD
HETATM   45  H   UNK N   1      33.724  11.384   5.282  0.00  0.00     0.159 HD
ENDBRANCH  19  41
BRANCH  20  46
HETATM   46  O   UNK N   1      35.914  15.315   5.873  0.00  0.00    -0.362 OA
HETATM   47  H   UNK N   1      36.323  15.491   6.698  0.00  0.00     0.217 HD
ENDBRANCH  20  46
TORSDOF 9
ENDMDL
