REMARK  10 active torsions:
REMARK  status: ('A' for Active; 'I' for Inactive)
REMARK    1  A    between atoms: O_21  and  C_13 
REMARK    2  A    between atoms: O_22  and  C_14 
REMARK    3  A    between atoms: S_27  and  C_15 
REMARK    4  A    between atoms: S_27  and  C_16 
REMARK    5  A    between atoms: P_23  and  O_17 
REMARK    6  A    between atoms: P_23  and  O_18 
REMARK    7  A    between atoms: P_24  and  O_19 
REMARK    8  A    between atoms: P_24  and  O_20 
REMARK    9  A    between atoms: P_23  and  O_21 
REMARK   10  A    between atoms: P_24  and  O_22 
ROOT
HETATM    1  S   UNK N   1       2.140   2.663   1.127  0.00  0.00    -0.091 SA
ENDROOT
BRANCH   1   2
HETATM    2  C   UNK N   1       2.714   1.057   0.599  0.00  0.00     0.005 A 
HETATM    3  C   UNK N   1       3.196   0.876  -0.701  0.00  0.00     0.021 A 
HETATM    4  C   UNK N   1       3.631  -0.381  -1.116  0.00  0.00     0.038 A 
HETATM    5  C   UNK N   1       3.559  -1.469  -0.243  0.00  0.00     0.079 A 
HETATM    6  C   UNK N   1       3.086  -1.284   1.065  0.00  0.00     0.038 A 
HETATM    7  C   UNK N   1       2.673  -0.020   1.488  0.00  0.00     0.021 A 
BRANCH   5   8
HETATM    8  O   UNK N   1       3.898  -2.691  -0.695  0.00  0.00    -0.272 OA
BRANCH   8   9
HETATM    9  P   UNK N   1       2.780  -4.007  -0.692  0.00  0.00     0.333 P 
HETATM   10  S   UNK N   1       2.211  -4.371   0.951  0.00  0.00    -0.007 SA
BRANCH   9  11
HETATM   11  O   UNK N   1       1.403  -3.645  -1.706  0.00  0.00    -0.319 OA
HETATM   12  C   UNK N   1       0.839  -2.460  -1.225  0.00  0.00     0.212 C 
ENDBRANCH   9  11
BRANCH   9  13
HETATM   13  O   UNK N   1       3.543  -5.442  -1.317  0.00  0.00    -0.319 OA
HETATM   14  C   UNK N   1       4.794  -5.507  -0.701  0.00  0.00     0.212 C 
ENDBRANCH   9  13
ENDBRANCH   8   9
ENDBRANCH   5   8
ENDBRANCH   1   2
BRANCH   1  15
HETATM   15  C   UNK N   1       3.753   3.396   0.914  0.00  0.00     0.005 A 
HETATM   16  C   UNK N   1       4.029   4.135  -0.238  0.00  0.00     0.021 A 
HETATM   17  C   UNK N   1       5.280   4.730  -0.400  0.00  0.00     0.038 A 
HETATM   18  C   UNK N   1       6.265   4.588   0.594  0.00  0.00     0.079 A 
HETATM   19  C   UNK N   1       5.988   3.823   1.732  0.00  0.00     0.038 A 
HETATM   20  C   UNK N   1       4.736   3.227   1.893  0.00  0.00     0.021 A 
BRANCH  18  21
HETATM   21  O   UNK N   1       7.450   5.236   0.514  0.00  0.00    -0.272 OA
BRANCH  21  22
HETATM   22  P   UNK N   1       7.910   6.251  -0.816  0.00  0.00     0.333 P 
HETATM   23  S   UNK N   1       9.140   7.533  -0.641  0.00  0.00    -0.007 SA
BRANCH  22  24
HETATM   24  O   UNK N   1       9.378   5.224  -0.696  0.00  0.00    -0.319 OA
HETATM   25  C   UNK N   1       9.955   5.096   0.600  0.00  0.00     0.212 C 
ENDBRANCH  22  24
BRANCH  22  26
HETATM   26  O   UNK N   1       7.485   7.212   0.583  0.00  0.00    -0.319 OA
HETATM   27  C   UNK N   1       6.223   7.768   0.301  0.00  0.00     0.212 C 
ENDBRANCH  22  26
ENDBRANCH  21  22
ENDBRANCH  18  21
ENDBRANCH   1  15
TORSDOF 10
