REMARK  9 active torsions:
REMARK  status: ('A' for Active; 'I' for Inactive)
REMARK    1  A    between atoms: C_2  and  N_4 
REMARK    2  A    between atoms: N_4  and  C_5 
REMARK       I    between atoms: N_4  and  C_11 
REMARK    3  A    between atoms: C_11  and  C_13 
REMARK    4  A    between atoms: C_13  and  N_14 
REMARK    5  A    between atoms: N_21  and  C_40 
REMARK    6  A    between atoms: C_24  and  N_27 
REMARK       I    between atoms: N_27  and  C_28 
REMARK       I    between atoms: C_28  and  N_30 
REMARK    7  A    between atoms: N_30  and  C_31 
REMARK    8  A    between atoms: C_35  and  C_37 
REMARK    9  A    between atoms: C_37  and  O_39 
ROOT
HETATM    1  N   UNK N   1       0.766  -1.010   0.375  0.00  0.00    -0.305 N 
HETATM    2  C   UNK N   1      -0.420  -0.234   0.590  0.00  0.00     0.065 A 
HETATM    3  C   UNK N   1      -1.488  -0.920   1.215  0.00  0.00     0.032 A 
HETATM    4  C   UNK N   1      -2.681  -0.305   1.549  0.00  0.00     0.002 A 
HETATM    5  C   UNK N   1      -2.842   1.038   1.293  0.00  0.00     0.002 A 
HETATM    6  C   UNK N   1      -1.805   1.755   0.715  0.00  0.00     0.032 A 
HETATM    7  C   UNK N   1      -0.560   1.202   0.333  0.00  0.00     0.069 A 
HETATM    8  N   UNK N   1       0.437   2.126  -0.279  0.00  0.00    -0.278 N 
HETATM    9  C   UNK N   1       1.621   1.722  -0.900  0.00  0.00     0.261 C 
HETATM   10  O   UNK N   1       2.291   2.539  -1.515  0.00  0.00    -0.270 OA
HETATM   11  C   UNK N   1       2.116   0.321  -0.935  0.00  0.00     0.272 C 
HETATM   12  C   UNK N   1       1.929  -0.385   0.324  0.00  0.00     0.257 C 
HETATM   13  O   UNK N   1       2.905  -0.908   0.846  0.00  0.00    -0.270 OA
ENDROOT
BRANCH  11  14
HETATM   14  N   UNK N   1       3.466   0.125  -1.460  0.00  0.00    -0.321 N 
HETATM   15  C   UNK N   1       4.545   0.806  -1.008  0.00  0.00     0.321 C 
HETATM   16  O   UNK N   1       5.645   0.566  -1.497  0.00  0.00    -0.247 OA
HETATM   17  N   UNK N   1       4.387   1.824  -0.122  0.00  0.00    -0.309 N 
HETATM   18  H   UNK N   1       3.511   1.896   0.323  0.00  0.00     0.170 HD
HETATM   19  H   UNK N   1       3.597  -0.536  -2.179  0.00  0.00     0.165 HD
BRANCH  17  20
HETATM   20  C   UNK N   1       5.361   2.788   0.222  0.00  0.00     0.037 A 
HETATM   21  C   UNK N   1       4.927   4.052   0.628  0.00  0.00     0.029 A 
HETATM   22  C   UNK N   1       5.843   5.088   0.810  0.00  0.00     0.003 A 
HETATM   23  C   UNK N   1       7.203   4.861   0.584  0.00  0.00     0.018 A 
HETATM   24  C   UNK N   1       7.651   3.589   0.199  0.00  0.00     0.039 A 
HETATM   25  C   UNK N   1       6.726   2.561   0.011  0.00  0.00     0.048 A 
BRANCH  24  26
HETATM   26  C   UNK N   1       9.081   3.329  -0.035  0.00  0.00     0.176 C 
HETATM   27  O   UNK N   1       9.891   4.240   0.021  0.00  0.00    -0.646 OA
BRANCH  26  28
HETATM   28  O   UNK N   1       9.504   2.079  -0.311  0.00  0.00    -0.773 OA
HETATM   29  H   UNK N   1       8.898   1.390  -0.504  0.00  0.00     0.167 HD
ENDBRANCH  26  28
ENDBRANCH  24  26
ENDBRANCH  17  20
ENDBRANCH  11  14
BRANCH   8  30
HETATM   30  C   UNK N   1       0.201   3.580  -0.238  0.00  0.00     0.042 A 
HETATM   31  C   UNK N   1      -1.089   4.149  -0.204  0.00  0.00     0.030 A 
HETATM   32  C   UNK N   1      -1.280   5.531  -0.130  0.00  0.00     0.002 A 
HETATM   33  C   UNK N   1      -0.181   6.387  -0.084  0.00  0.00     0.000 A 
HETATM   34  C   UNK N   1       1.107   5.862  -0.116  0.00  0.00     0.002 A 
HETATM   35  C   UNK N   1       1.292   4.482  -0.188  0.00  0.00     0.030 A 
ENDBRANCH   8  30
BRANCH   1  36
HETATM   36  C   UNK N   1       0.738  -2.251  -0.418  0.00  0.00     0.235 C 
BRANCH  36  37
HETATM   37  C   UNK N   1      -0.607  -2.823  -0.759  0.00  0.00     0.243 C 
HETATM   38  N   UNK N   1      -0.888  -4.132  -0.465  0.00  0.00    -0.313 N 
HETATM   39  O   UNK N   1      -1.468  -2.085  -1.222  0.00  0.00    -0.271 OA
BRANCH  38  40
HETATM   40  C   UNK N   1       0.169  -5.078  -0.098  0.00  0.00     0.085 C 
HETATM   41  C   UNK N   1       1.408  -5.018  -0.995  0.00  0.00     0.032 C 
HETATM   42  C   UNK N   1       0.479  -5.150   1.380  0.00  0.00     0.032 C 
ENDBRANCH  38  40
BRANCH  38  43
HETATM   43  C   UNK N   1      -2.250  -4.537  -0.317  0.00  0.00     0.037 A 
HETATM   44  C   UNK N   1      -2.619  -5.228   0.848  0.00  0.00     0.030 A 
HETATM   45  C   UNK N   1      -3.962  -5.451   1.147  0.00  0.00     0.002 A 
HETATM   46  C   UNK N   1      -4.953  -5.006   0.272  0.00  0.00     0.000 A 
HETATM   47  C   UNK N   1      -4.601  -4.338  -0.903  0.00  0.00     0.002 A 
HETATM   48  C   UNK N   1      -3.258  -4.079  -1.183  0.00  0.00     0.030 A 
ENDBRANCH  38  43
ENDBRANCH  36  37
ENDBRANCH   1  36
TORSDOF 9
