MODEL 1
REMARK VINA RESULT:      -7.4      0.000      0.000
REMARK  2 active torsions:
REMARK  status: ('A' for Active; 'I' for Inactive)
REMARK    1  A    between atoms: C_9  and  N_4 
REMARK    2  A    between atoms: C_11  and  C_19 
ROOT
HETATM    1  C   UNK N   1      30.227  16.842   5.306  0.00  0.00     0.257 C 
HETATM    2  C   UNK N   1      29.269  17.431   4.245  0.00  0.00     0.055 C 
HETATM    3  C   UNK N   1      28.610  18.669   4.874  0.00  0.00     0.054 C 
HETATM    4  C   UNK N   1      28.659  18.320   6.316  0.00  0.00    -0.041 A 
HETATM    5  C   UNK N   1      29.562  17.317   6.555  0.00  0.00    -0.016 A 
HETATM    6  C   UNK N   1      29.827  16.881   7.857  0.00  0.00     0.033 A 
HETATM    7  C   UNK N   1      29.146  17.484   8.925  0.00  0.00     0.034 A 
HETATM    8  C   UNK N   1      28.234  18.526   8.681  0.00  0.00     0.024 A 
HETATM    9  C   UNK N   1      27.997  18.962   7.369  0.00  0.00     0.010 A 
HETATM   10 Cl   UNK N   1      29.449  16.957  10.567  0.00  0.00    -0.084 Cl
ENDROOT
BRANCH   1  11
HETATM   11  N   UNK N   1      31.544  17.488   5.147  0.00  0.00     0.101 N 
HETATM   12  C   UNK N   1      32.560  17.084   6.137  0.00  0.00     0.314 C 
HETATM   13  C   UNK N   1      33.256  15.750   5.818  0.00  0.00     0.178 C 
HETATM   14  C   UNK N   1      34.439  15.640   6.767  0.00  0.00     0.051 C 
HETATM   15  N   UNK N   1      33.737  15.760   4.418  0.00  0.00     0.096 N 
HETATM   16  C   UNK N   1      32.304  14.588   6.103  0.00  0.00     0.051 C 
HETATM   17  C   UNK N   1      32.632  15.998   3.497  0.00  0.00     0.303 C 
HETATM   18  C   UNK N   1      34.366  14.499   4.041  0.00  0.00     0.310 C 
HETATM   19  C   UNK N   1      32.052  17.379   3.771  0.00  0.00     0.303 C 
ENDBRANCH   1  11
BRANCH   3  20
HETATM   20  C   UNK N   1      27.290  18.990   4.227  0.00  0.00    -0.050 A 
HETATM   21  C   UNK N   1      26.198  18.110   4.275  0.00  0.00     0.008 A 
HETATM   22  C   UNK N   1      24.972  18.479   3.712  0.00  0.00     0.001 A 
HETATM   23  C   UNK N   1      24.828  19.729   3.102  0.00  0.00     0.000 A 
HETATM   24  C   UNK N   1      25.911  20.610   3.052  0.00  0.00     0.001 A 
HETATM   25  C   UNK N   1      27.134  20.244   3.617  0.00  0.00     0.008 A 
ENDBRANCH   3  20
TORSDOF 2
ENDMDL
MODEL 2
REMARK VINA RESULT:      -7.3      8.534     12.643
REMARK  2 active torsions:
REMARK  status: ('A' for Active; 'I' for Inactive)
REMARK    1  A    between atoms: C_9  and  N_4 
REMARK    2  A    between atoms: C_11  and  C_19 
ROOT
HETATM    1  C   UNK N   1      35.744  12.818  12.562  0.00  0.00     0.257 C 
HETATM    2  C   UNK N   1      35.329  13.252  13.987  0.00  0.00     0.055 C 
HETATM    3  C   UNK N   1      36.438  12.778  14.940  0.00  0.00     0.054 C 
HETATM    4  C   UNK N   1      36.973  11.607  14.202  0.00  0.00    -0.041 A 
HETATM    5  C   UNK N   1      36.597  11.635  12.884  0.00  0.00    -0.016 A 
HETATM    6  C   UNK N   1      37.052  10.668  11.983  0.00  0.00     0.033 A 
HETATM    7  C   UNK N   1      37.901   9.653  12.451  0.00  0.00     0.034 A 
HETATM    8  C   UNK N   1      38.302   9.635  13.799  0.00  0.00     0.024 A 
HETATM    9  C   UNK N   1      37.849  10.626  14.682  0.00  0.00     0.010 A 
HETATM   10 Cl   UNK N   1      38.483   8.422  11.352  0.00  0.00    -0.084 Cl
ENDROOT
BRANCH   1  11
HETATM   11  N   UNK N   1      36.561  13.895  11.971  0.00  0.00     0.101 N 
HETATM   12  C   UNK N   1      37.014  13.648  10.590  0.00  0.00     0.314 C 
HETATM   13  C   UNK N   1      35.958  13.958   9.515  0.00  0.00     0.178 C 
HETATM   14  C   UNK N   1      36.678  13.918   8.177  0.00  0.00     0.051 C 
HETATM   15  N   UNK N   1      35.396  15.308   9.741  0.00  0.00     0.096 N 
HETATM   16  C   UNK N   1      34.886  12.868   9.515  0.00  0.00     0.051 C 
HETATM   17  C   UNK N   1      34.816  15.406  11.076  0.00  0.00     0.303 C 
HETATM   18  C   UNK N   1      34.351  15.639   8.778  0.00  0.00     0.310 C 
HETATM   19  C   UNK N   1      35.920  15.213  12.106  0.00  0.00     0.303 C 
ENDBRANCH   1  11
BRANCH   3  20
HETATM   20  C   UNK N   1      35.932  12.607  16.348  0.00  0.00    -0.050 A 
HETATM   21  C   UNK N   1      35.820  11.348  16.955  0.00  0.00     0.008 A 
HETATM   22  C   UNK N   1      35.403  11.243  18.286  0.00  0.00     0.001 A 
HETATM   23  C   UNK N   1      35.098  12.396  19.018  0.00  0.00     0.000 A 
HETATM   24  C   UNK N   1      35.206  13.652  18.418  0.00  0.00     0.001 A 
HETATM   25  C   UNK N   1      35.627  13.757  17.091  0.00  0.00     0.008 A 
ENDBRANCH   3  20
TORSDOF 2
ENDMDL
MODEL 3
REMARK VINA RESULT:      -7.0     11.772     13.159
REMARK  2 active torsions:
REMARK  status: ('A' for Active; 'I' for Inactive)
REMARK    1  A    between atoms: C_9  and  N_4 
REMARK    2  A    between atoms: C_11  and  C_19 
ROOT
HETATM    1  C   UNK N   1      29.532  23.644  -5.631  0.00  0.00     0.257 C 
HETATM    2  C   UNK N   1      29.185  24.987  -4.950  0.00  0.00     0.055 C 
HETATM    3  C   UNK N   1      27.703  24.915  -4.545  0.00  0.00     0.054 C 
HETATM    4  C   UNK N   1      27.175  23.964  -5.555  0.00  0.00    -0.041 A 
HETATM    5  C   UNK N   1      28.186  23.253  -6.147  0.00  0.00    -0.016 A 
HETATM    6  C   UNK N   1      27.912  22.245  -7.075  0.00  0.00     0.033 A 
HETATM    7  C   UNK N   1      26.574  21.971  -7.402  0.00  0.00     0.034 A 
HETATM    8  C   UNK N   1      25.536  22.687  -6.780  0.00  0.00     0.024 A 
HETATM    9  C   UNK N   1      25.833  23.681  -5.837  0.00  0.00     0.010 A 
HETATM   10 Cl   UNK N   1      26.196  20.720  -8.567  0.00  0.00    -0.084 Cl
ENDROOT
BRANCH   1  11
HETATM   11  N   UNK N   1      29.977  22.699  -4.588  0.00  0.00     0.101 N 
HETATM   12  C   UNK N   1      30.411  21.381  -5.085  0.00  0.00     0.314 C 
HETATM   13  C   UNK N   1      31.852  21.353  -5.623  0.00  0.00     0.178 C 
HETATM   14  C   UNK N   1      32.213  19.890  -5.820  0.00  0.00     0.051 C 
HETATM   15  N   UNK N   1      32.766  21.964  -4.633  0.00  0.00     0.096 N 
HETATM   16  C   UNK N   1      31.910  22.049  -6.983  0.00  0.00     0.051 C 
HETATM   17  C   UNK N   1      32.355  23.331  -4.329  0.00  0.00     0.303 C 
HETATM   18  C   UNK N   1      34.145  22.010  -5.108  0.00  0.00     0.310 C 
HETATM   19  C   UNK N   1      30.975  23.298  -3.689  0.00  0.00     0.303 C 
ENDBRANCH   1  11
BRANCH   3  20
HETATM   20  C   UNK N   1      27.090  26.284  -4.415  0.00  0.00    -0.050 A 
HETATM   21  C   UNK N   1      26.320  26.657  -3.304  0.00  0.00     0.008 A 
HETATM   22  C   UNK N   1      25.822  27.960  -3.199  0.00  0.00     0.001 A 
HETATM   23  C   UNK N   1      26.093  28.897  -4.201  0.00  0.00     0.000 A 
HETATM   24  C   UNK N   1      26.859  28.531  -5.310  0.00  0.00     0.001 A 
HETATM   25  C   UNK N   1      27.360  27.232  -5.413  0.00  0.00     0.008 A 
ENDBRANCH   3  20
TORSDOF 2
ENDMDL
MODEL 4
REMARK VINA RESULT:      -7.0      3.908      7.344
REMARK  2 active torsions:
REMARK  status: ('A' for Active; 'I' for Inactive)
REMARK    1  A    between atoms: C_9  and  N_4 
REMARK    2  A    between atoms: C_11  and  C_19 
ROOT
HETATM    1  C   UNK N   1      26.341  16.308   5.132  0.00  0.00     0.257 C 
HETATM    2  C   UNK N   1      27.499  16.082   6.131  0.00  0.00     0.055 C 
HETATM    3  C   UNK N   1      27.788  17.438   6.796  0.00  0.00     0.054 C 
HETATM    4  C   UNK N   1      27.347  18.378   5.736  0.00  0.00    -0.041 A 
HETATM    5  C   UNK N   1      26.538  17.755   4.822  0.00  0.00    -0.016 A 
HETATM    6  C   UNK N   1      25.945  18.470   3.777  0.00  0.00     0.033 A 
HETATM    7  C   UNK N   1      26.197  19.847   3.671  0.00  0.00     0.034 A 
HETATM    8  C   UNK N   1      27.011  20.490   4.619  0.00  0.00     0.024 A 
HETATM    9  C   UNK N   1      27.581  19.757   5.671  0.00  0.00     0.010 A 
HETATM   10 Cl   UNK N   1      25.476  20.771   2.370  0.00  0.00    -0.084 Cl
ENDROOT
BRANCH   1  11
HETATM   11  N   UNK N   1      25.068  16.104   5.848  0.00  0.00     0.101 N 
HETATM   12  C   UNK N   1      23.855  16.331   5.041  0.00  0.00     0.314 C 
HETATM   13  C   UNK N   1      23.460  15.143   4.148  0.00  0.00     0.178 C 
HETATM   14  C   UNK N   1      22.066  15.442   3.620  0.00  0.00     0.051 C 
HETATM   15  N   UNK N   1      23.434  13.901   4.952  0.00  0.00     0.096 N 
HETATM   16  C   UNK N   1      24.414  15.051   2.957  0.00  0.00     0.051 C 
HETATM   17  C   UNK N   1      24.730  13.667   5.578  0.00  0.00     0.303 C 
HETATM   18  C   UNK N   1      23.111  12.728   4.147  0.00  0.00     0.310 C 
HETATM   19  C   UNK N   1      25.024  14.808   6.542  0.00  0.00     0.303 C 
ENDBRANCH   1  11
BRANCH   3  20
HETATM   20  C   UNK N   1      29.195  17.514   7.324  0.00  0.00    -0.050 A 
HETATM   21  C   UNK N   1      30.288  16.974   6.628  0.00  0.00     0.008 A 
HETATM   22  C   UNK N   1      31.585  17.124   7.130  0.00  0.00     0.001 A 
HETATM   23  C   UNK N   1      31.799  17.815   8.327  0.00  0.00     0.000 A 
HETATM   24  C   UNK N   1      30.715  18.354   9.024  0.00  0.00     0.001 A 
HETATM   25  C   UNK N   1      29.421  18.209   8.522  0.00  0.00     0.008 A 
ENDBRANCH   3  20
TORSDOF 2
ENDMDL
MODEL 5
REMARK VINA RESULT:      -7.0     10.428     14.026
REMARK  2 active torsions:
REMARK  status: ('A' for Active; 'I' for Inactive)
REMARK    1  A    between atoms: C_9  and  N_4 
REMARK    2  A    between atoms: C_11  and  C_19 
ROOT
HETATM    1  C   UNK N   1      36.011  11.504  14.702  0.00  0.00     0.257 C 
HETATM    2  C   UNK N   1      35.622  10.354  15.659  0.00  0.00     0.055 C 
HETATM    3  C   UNK N   1      34.922  10.995  16.868  0.00  0.00     0.054 C 
HETATM    4  C   UNK N   1      35.541  12.344  16.878  0.00  0.00    -0.041 A 
HETATM    5  C   UNK N   1      36.134  12.629  15.676  0.00  0.00    -0.016 A 
HETATM    6  C   UNK N   1      36.714  13.877  15.435  0.00  0.00     0.033 A 
HETATM    7  C   UNK N   1      36.688  14.844  16.453  0.00  0.00     0.034 A 
HETATM    8  C   UNK N   1      36.063  14.558  17.679  0.00  0.00     0.024 A 
HETATM    9  C   UNK N   1      35.470  13.305  17.893  0.00  0.00     0.010 A 
HETATM   10 Cl   UNK N   1      37.412  16.415  16.187  0.00  0.00    -0.084 Cl
ENDROOT
BRANCH   1  11
HETATM   11  N   UNK N   1      34.882  11.740  13.782  0.00  0.00     0.101 N 
HETATM   12  C   UNK N   1      35.082  12.837  12.817  0.00  0.00     0.314 C 
HETATM   13  C   UNK N   1      35.912  12.447  11.582  0.00  0.00     0.178 C 
HETATM   14  C   UNK N   1      35.776  13.590  10.590  0.00  0.00     0.051 C 
HETATM   15  N   UNK N   1      35.370  11.204  10.989  0.00  0.00     0.096 N 
HETATM   16  C   UNK N   1      37.386  12.319  11.968  0.00  0.00     0.051 C 
HETATM   17  C   UNK N   1      35.369  10.125  11.971  0.00  0.00     0.303 C 
HETATM   18  C   UNK N   1      36.148  10.756   9.839  0.00  0.00     0.310 C 
HETATM   19  C   UNK N   1      34.441  10.504  13.117  0.00  0.00     0.303 C 
ENDBRANCH   1  11
BRANCH   3  20
HETATM   20  C   UNK N   1      35.008  10.124  18.092  0.00  0.00    -0.050 A 
HETATM   21  C   UNK N   1      33.943   9.312  18.511  0.00  0.00     0.008 A 
HETATM   22  C   UNK N   1      34.092   8.473  19.620  0.00  0.00     0.001 A 
HETATM   23  C   UNK N   1      35.305   8.438  20.316  0.00  0.00     0.000 A 
HETATM   24  C   UNK N   1      36.368   9.245  19.904  0.00  0.00     0.001 A 
HETATM   25  C   UNK N   1      36.222  10.079  18.794  0.00  0.00     0.008 A 
ENDBRANCH   3  20
TORSDOF 2
ENDMDL
MODEL 6
REMARK VINA RESULT:      -6.9      2.858      4.484
REMARK  2 active torsions:
REMARK  status: ('A' for Active; 'I' for Inactive)
REMARK    1  A    between atoms: C_9  and  N_4 
REMARK    2  A    between atoms: C_11  and  C_19 
ROOT
HETATM    1  C   UNK N   1      28.682  17.159   4.768  0.00  0.00     0.257 C 
HETATM    2  C   UNK N   1      27.542  18.199   4.858  0.00  0.00     0.055 C 
HETATM    3  C   UNK N   1      26.273  17.519   4.319  0.00  0.00     0.054 C 
HETATM    4  C   UNK N   1      26.854  16.523   3.385  0.00  0.00    -0.041 A 
HETATM    5  C   UNK N   1      28.184  16.316   3.641  0.00  0.00    -0.016 A 
HETATM    6  C   UNK N   1      28.916  15.361   2.931  0.00  0.00     0.033 A 
HETATM    7  C   UNK N   1      28.267  14.612   1.937  0.00  0.00     0.034 A 
HETATM    8  C   UNK N   1      26.898  14.810   1.687  0.00  0.00     0.024 A 
HETATM    9  C   UNK N   1      26.178  15.761   2.425  0.00  0.00     0.010 A 
HETATM   10 Cl   UNK N   1      29.156  13.413   1.023  0.00  0.00    -0.084 Cl
ENDROOT
BRANCH   1  11
HETATM   11  N   UNK N   1      28.698  16.384   6.023  0.00  0.00     0.101 N 
HETATM   12  C   UNK N   1      29.871  15.507   6.200  0.00  0.00     0.314 C 
HETATM   13  C   UNK N   1      31.127  16.229   6.715  0.00  0.00     0.178 C 
HETATM   14  C   UNK N   1      32.123  15.147   7.098  0.00  0.00     0.051 C 
HETATM   15  N   UNK N   1      30.784  17.038   7.907  0.00  0.00     0.096 N 
HETATM   16  C   UNK N   1      31.738  17.069   5.593  0.00  0.00     0.051 C 
HETATM   17  C   UNK N   1      29.731  17.996   7.591  0.00  0.00     0.303 C 
HETATM   18  C   UNK N   1      31.929  17.787   8.414  0.00  0.00     0.310 C 
HETATM   19  C   UNK N   1      28.472  17.233   7.203  0.00  0.00     0.303 C 
ENDBRANCH   1  11
BRANCH   3  20
HETATM   20  C   UNK N   1      25.271  18.522   3.813  0.00  0.00    -0.050 A 
HETATM   21  C   UNK N   1      23.895  18.395   4.056  0.00  0.00     0.008 A 
HETATM   22  C   UNK N   1      23.009  19.385   3.618  0.00  0.00     0.001 A 
HETATM   23  C   UNK N   1      23.492  20.508   2.938  0.00  0.00     0.000 A 
HETATM   24  C   UNK N   1      24.861  20.639   2.692  0.00  0.00     0.001 A 
HETATM   25  C   UNK N   1      25.746  19.653   3.133  0.00  0.00     0.008 A 
ENDBRANCH   3  20
TORSDOF 2
ENDMDL
MODEL 7
REMARK VINA RESULT:      -6.8     10.975     14.443
REMARK  2 active torsions:
REMARK  status: ('A' for Active; 'I' for Inactive)
REMARK    1  A    between atoms: C_9  and  N_4 
REMARK    2  A    between atoms: C_11  and  C_19 
ROOT
HETATM    1  C   UNK N   1      28.596  24.120  -4.874  0.00  0.00     0.257 C 
HETATM    2  C   UNK N   1      29.944  23.897  -4.149  0.00  0.00     0.055 C 
HETATM    3  C   UNK N   1      30.892  23.235  -5.163  0.00  0.00     0.054 C 
HETATM    4  C   UNK N   1      29.927  22.532  -6.045  0.00  0.00    -0.041 A 
HETATM    5  C   UNK N   1      28.659  23.030  -5.892  0.00  0.00    -0.016 A 
HETATM    6  C   UNK N   1      27.602  22.567  -6.681  0.00  0.00     0.033 A 
HETATM    7  C   UNK N   1      27.857  21.571  -7.637  0.00  0.00     0.034 A 
HETATM    8  C   UNK N   1      29.161  21.074  -7.807  0.00  0.00     0.024 A 
HETATM    9  C   UNK N   1      30.210  21.567  -7.018  0.00  0.00     0.010 A 
HETATM   10 Cl   UNK N   1      26.554  20.963  -8.636  0.00  0.00    -0.084 Cl
ENDROOT
BRANCH   1  11
HETATM   11  N   UNK N   1      28.638  25.441  -5.530  0.00  0.00     0.101 N 
HETATM   12  C   UNK N   1      27.439  25.786  -6.315  0.00  0.00     0.314 C 
HETATM   13  C   UNK N   1      26.268  26.322  -5.474  0.00  0.00     0.178 C 
HETATM   14  C   UNK N   1      25.249  26.878  -6.455  0.00  0.00     0.051 C 
HETATM   15  N   UNK N   1      26.746  27.402  -4.583  0.00  0.00     0.096 N 
HETATM   16  C   UNK N   1      25.615  25.173  -4.705  0.00  0.00     0.051 C 
HETATM   17  C   UNK N   1      27.821  26.920  -3.723  0.00  0.00     0.303 C 
HETATM   18  C   UNK N   1      25.686  27.920  -3.724  0.00  0.00     0.310 C 
HETATM   19  C   UNK N   1      29.002  26.514  -4.592  0.00  0.00     0.303 C 
ENDBRANCH   1  11
BRANCH   3  20
HETATM   20  C   UNK N   1      31.985  22.456  -4.481  0.00  0.00    -0.050 A 
HETATM   21  C   UNK N   1      31.807  21.857  -3.225  0.00  0.00     0.008 A 
HETATM   22  C   UNK N   1      32.832  21.091  -2.660  0.00  0.00     0.001 A 
HETATM   23  C   UNK N   1      34.038  20.917  -3.346  0.00  0.00     0.000 A 
HETATM   24  C   UNK N   1      34.221  21.512  -4.596  0.00  0.00     0.001 A 
HETATM   25  C   UNK N   1      33.197  22.272  -5.163  0.00  0.00     0.008 A 
ENDBRANCH   3  20
TORSDOF 2
ENDMDL
MODEL 8
REMARK VINA RESULT:      -6.7      2.641      4.016
REMARK  2 active torsions:
REMARK  status: ('A' for Active; 'I' for Inactive)
REMARK    1  A    between atoms: C_9  and  N_4 
REMARK    2  A    between atoms: C_11  and  C_19 
ROOT
HETATM    1  C   UNK N   1      30.293  17.013   5.442  0.00  0.00     0.257 C 
HETATM    2  C   UNK N   1      29.184  18.089   5.494  0.00  0.00     0.055 C 
HETATM    3  C   UNK N   1      27.891  17.422   4.997  0.00  0.00     0.054 C 
HETATM    4  C   UNK N   1      28.434  16.368   4.105  0.00  0.00    -0.041 A 
HETATM    5  C   UNK N   1      29.760  16.135   4.359  0.00  0.00    -0.016 A 
HETATM    6  C   UNK N   1      30.457  15.127   3.686  0.00  0.00     0.033 A 
HETATM    7  C   UNK N   1      29.777  14.353   2.733  0.00  0.00     0.034 A 
HETATM    8  C   UNK N   1      28.412  14.580   2.486  0.00  0.00     0.024 A 
HETATM    9  C   UNK N   1      27.727  15.584   3.186  0.00  0.00     0.010 A 
HETATM   10 Cl   UNK N   1      30.622  13.089   1.867  0.00  0.00    -0.084 Cl
ENDROOT
BRANCH   1  11
HETATM   11  N   UNK N   1      30.300  16.295   6.731  0.00  0.00     0.101 N 
HETATM   12  C   UNK N   1      31.355  15.274   6.871  0.00  0.00     0.314 C 
HETATM   13  C   UNK N   1      32.731  15.840   7.262  0.00  0.00     0.178 C 
HETATM   14  C   UNK N   1      33.600  14.648   7.630  0.00  0.00     0.051 C 
HETATM   15  N   UNK N   1      32.589  16.736   8.431  0.00  0.00     0.096 N 
HETATM   16  C   UNK N   1      33.363  16.540   6.059  0.00  0.00     0.051 C 
HETATM   17  C   UNK N   1      31.652  17.815   8.140  0.00  0.00     0.303 C 
HETATM   18  C   UNK N   1      33.858  17.342   8.820  0.00  0.00     0.310 C 
HETATM   19  C   UNK N   1      30.278  17.216   7.878  0.00  0.00     0.303 C 
ENDBRANCH   1  11
BRANCH   3  20
HETATM   20  C   UNK N   1      26.913  18.430   4.455  0.00  0.00    -0.050 A 
HETATM   21  C   UNK N   1      27.329  19.625   3.847  0.00  0.00     0.008 A 
HETATM   22  C   UNK N   1      26.385  20.502   3.302  0.00  0.00     0.001 A 
HETATM   23  C   UNK N   1      25.023  20.190   3.359  0.00  0.00     0.000 A 
HETATM   24  C   UNK N   1      24.603  19.002   3.963  0.00  0.00     0.001 A 
HETATM   25  C   UNK N   1      25.545  18.125   4.503  0.00  0.00     0.008 A 
ENDBRANCH   3  20
TORSDOF 2
ENDMDL
MODEL 9
REMARK VINA RESULT:      -6.6      2.589      3.621
REMARK  2 active torsions:
REMARK  status: ('A' for Active; 'I' for Inactive)
REMARK    1  A    between atoms: C_9  and  N_4 
REMARK    2  A    between atoms: C_11  and  C_19 
ROOT
HETATM    1  C   UNK N   1      28.957  16.610   4.847  0.00  0.00     0.257 C 
HETATM    2  C   UNK N   1      28.031  15.640   4.079  0.00  0.00     0.055 C 
HETATM    3  C   UNK N   1      27.159  16.496   3.146  0.00  0.00     0.054 C 
HETATM    4  C   UNK N   1      27.122  17.782   3.886  0.00  0.00    -0.041 A 
HETATM    5  C   UNK N   1      28.124  17.849   4.819  0.00  0.00    -0.016 A 
HETATM    6  C   UNK N   1      28.325  19.004   5.580  0.00  0.00     0.033 A 
HETATM    7  C   UNK N   1      27.476  20.104   5.380  0.00  0.00     0.034 A 
HETATM    8  C   UNK N   1      26.461  20.042   4.409  0.00  0.00     0.024 A 
HETATM    9  C   UNK N   1      26.289  18.880   3.643  0.00  0.00     0.010 A 
HETATM   10 Cl   UNK N   1      27.695  21.563   6.321  0.00  0.00    -0.084 Cl
ENDROOT
BRANCH   1  11
HETATM   11  N   UNK N   1      30.186  16.799   4.053  0.00  0.00     0.101 N 
HETATM   12  C   UNK N   1      31.266  17.530   4.741  0.00  0.00     0.314 C 
HETATM   13  C   UNK N   1      32.104  16.665   5.698  0.00  0.00     0.178 C 
HETATM   14  C   UNK N   1      33.314  17.497   6.089  0.00  0.00     0.051 C 
HETATM   15  N   UNK N   1      32.545  15.435   5.003  0.00  0.00     0.096 N 
HETATM   16  C   UNK N   1      31.299  16.366   6.964  0.00  0.00     0.051 C 
HETATM   17  C   UNK N   1      31.397  14.688   4.503  0.00  0.00     0.303 C 
HETATM   18  C   UNK N   1      33.306  14.549   5.877  0.00  0.00     0.310 C 
HETATM   19  C   UNK N   1      30.669  15.538   3.471  0.00  0.00     0.303 C 
ENDBRANCH   1  11
BRANCH   3  20
HETATM   20  C   UNK N   1      25.872  15.803   2.788  0.00  0.00    -0.050 A 
HETATM   21  C   UNK N   1      25.686  15.160   1.555  0.00  0.00     0.008 A 
HETATM   22  C   UNK N   1      24.494  14.476   1.292  0.00  0.00     0.001 A 
HETATM   23  C   UNK N   1      23.484  14.428   2.258  0.00  0.00     0.000 A 
HETATM   24  C   UNK N   1      23.665  15.067   3.487  0.00  0.00     0.001 A 
HETATM   25  C   UNK N   1      24.855  15.746   3.752  0.00  0.00     0.008 A 
ENDBRANCH   3  20
TORSDOF 2
ENDMDL
