MODEL 1
REMARK VINA RESULT:      -6.3      0.000      0.000
REMARK  1 active torsions:
REMARK  status: ('A' for Active; 'I' for Inactive)
REMARK    1  A    between atoms: C_6  and  C_7 
ROOT
HETATM    1  C   UNK N   1      32.251  17.154   6.503  0.00  0.00     0.017 A 
HETATM    2  C   UNK N   1      30.932  17.158   6.019  0.00  0.00     0.009 A 
HETATM    3  C   UNK N   1      29.918  17.620   6.857  0.00  0.00    -0.046 A 
HETATM    4  C   UNK N   1      30.184  18.063   8.118  0.00  0.00    -0.045 A 
HETATM    5  C   UNK N   1      31.486  18.092   8.620  0.00  0.00     0.024 A 
HETATM    6  C   UNK N   1      32.537  17.628   7.802  0.00  0.00     0.048 A 
HETATM    7  C   UNK N   1      28.956  18.589   8.755  0.00  0.00     0.037 C 
HETATM    8  C   UNK N   1      28.203  19.004   7.474  0.00  0.00     0.022 C 
HETATM    9  C   UNK N   1      28.490  17.822   6.523  0.00  0.00     0.037 C 
HETATM   10  C   UNK N   1      27.706  16.605   7.060  0.00  0.00     0.123 C 
HETATM   11  N   UNK N   1      27.206  16.779   8.440  0.00  0.00    -0.420 N 
HETATM   12  C   UNK N   1      28.193  17.386   9.359  0.00  0.00     0.123 C 
HETATM   13  H   UNK N   1      26.269  16.506   8.732  0.00  0.00     0.153 HD
ENDROOT
BRANCH   6  14
HETATM   14  C   UNK N   1      33.960  17.679   8.278  0.00  0.00     0.417 C 
HETATM   15  F   UNK N   1      34.040  17.213   9.577  0.00  0.00    -0.166 F 
HETATM   16  F   UNK N   1      34.457  18.970   8.234  0.00  0.00    -0.166 F 
HETATM   17  F   UNK N   1      34.740  16.877   7.463  0.00  0.00    -0.166 F 
ENDBRANCH   6  14
TORSDOF 1
ENDMDL
MODEL 2
REMARK VINA RESULT:      -6.2      3.111      4.747
REMARK  1 active torsions:
REMARK  status: ('A' for Active; 'I' for Inactive)
REMARK    1  A    between atoms: C_6  and  C_7 
ROOT
HETATM    1  C   UNK N   1      31.863  17.973   8.630  0.00  0.00     0.017 A 
HETATM    2  C   UNK N   1      32.845  17.800   7.640  0.00  0.00     0.009 A 
HETATM    3  C   UNK N   1      32.442  17.397   6.368  0.00  0.00    -0.046 A 
HETATM    4  C   UNK N   1      31.130  17.174   6.074  0.00  0.00    -0.045 A 
HETATM    5  C   UNK N   1      30.129  17.357   7.030  0.00  0.00     0.024 A 
HETATM    6  C   UNK N   1      30.500  17.760   8.329  0.00  0.00     0.048 A 
HETATM    7  C   UNK N   1      30.963  16.856   4.639  0.00  0.00     0.037 C 
HETATM    8  C   UNK N   1      32.199  17.608   4.102  0.00  0.00     0.022 C 
HETATM    9  C   UNK N   1      33.278  17.267   5.153  0.00  0.00     0.037 C 
HETATM   10  C   UNK N   1      33.625  15.771   4.980  0.00  0.00     0.123 C 
HETATM   11  N   UNK N   1      32.653  15.025   4.154  0.00  0.00    -0.420 N 
HETATM   12  C   UNK N   1      31.242  15.344   4.461  0.00  0.00     0.123 C 
HETATM   13  H   UNK N   1      32.928  14.353   3.440  0.00  0.00     0.153 HD
ENDROOT
BRANCH   6  14
HETATM   14  C   UNK N   1      29.459  18.014   9.381  0.00  0.00     0.417 C 
HETATM   15  F   UNK N   1      29.268  16.874  10.139  0.00  0.00    -0.166 F 
HETATM   16  F   UNK N   1      28.252  18.382   8.812  0.00  0.00    -0.166 F 
HETATM   17  F   UNK N   1      29.889  19.038  10.207  0.00  0.00    -0.166 F 
ENDBRANCH   6  14
TORSDOF 1
ENDMDL
MODEL 3
REMARK VINA RESULT:      -6.1     11.262     12.913
REMARK  1 active torsions:
REMARK  status: ('A' for Active; 'I' for Inactive)
REMARK    1  A    between atoms: C_6  and  C_7 
ROOT
HETATM    1  C   UNK N   1      35.124  12.872  19.030  0.00  0.00     0.017 A 
HETATM    2  C   UNK N   1      35.154  13.597  17.827  0.00  0.00     0.009 A 
HETATM    3  C   UNK N   1      35.396  12.906  16.641  0.00  0.00    -0.046 A 
HETATM    4  C   UNK N   1      35.597  11.557  16.631  0.00  0.00    -0.045 A 
HETATM    5  C   UNK N   1      35.551  10.806  17.807  0.00  0.00     0.024 A 
HETATM    6  C   UNK N   1      35.314  11.472  19.026  0.00  0.00     0.048 A 
HETATM    7  C   UNK N   1      35.729  11.060  15.243  0.00  0.00     0.037 C 
HETATM    8  C   UNK N   1      34.898  12.152  14.538  0.00  0.00     0.022 C 
HETATM    9  C   UNK N   1      35.356  13.437  15.260  0.00  0.00     0.037 C 
HETATM   10  C   UNK N   1      36.813  13.710  14.821  0.00  0.00     0.123 C 
HETATM   11  N   UNK N   1      37.459  12.562  14.152  0.00  0.00    -0.420 N 
HETATM   12  C   UNK N   1      37.201  11.265  14.813  0.00  0.00     0.123 C 
HETATM   13  H   UNK N   1      38.030  12.655  13.313  0.00  0.00     0.153 HD
ENDROOT
BRANCH   6  14
HETATM   14  C   UNK N   1      35.212  10.706  20.313  0.00  0.00     0.417 C 
HETATM   15  F   UNK N   1      34.156  11.186  21.065  0.00  0.00    -0.166 F 
HETATM   16  F   UNK N   1      36.376  10.814  21.054  0.00  0.00    -0.166 F 
HETATM   17  F   UNK N   1      34.991   9.369  20.029  0.00  0.00    -0.166 F 
ENDBRANCH   6  14
TORSDOF 1
ENDMDL
MODEL 4
REMARK VINA RESULT:      -6.1     16.882     18.063
REMARK  1 active torsions:
REMARK  status: ('A' for Active; 'I' for Inactive)
REMARK    1  A    between atoms: C_6  and  C_7 
ROOT
HETATM    1  C   UNK N   1      25.147  26.694  -5.943  0.00  0.00     0.017 A 
HETATM    2  C   UNK N   1      25.199  27.568  -4.845  0.00  0.00     0.009 A 
HETATM    3  C   UNK N   1      26.256  28.474  -4.767  0.00  0.00    -0.046 A 
HETATM    4  C   UNK N   1      27.222  28.525  -5.726  0.00  0.00    -0.045 A 
HETATM    5  C   UNK N   1      27.187  27.684  -6.840  0.00  0.00     0.024 A 
HETATM    6  C   UNK N   1      26.135  26.752  -6.951  0.00  0.00     0.048 A 
HETATM    7  C   UNK N   1      28.165  29.634  -5.459  0.00  0.00     0.037 C 
HETATM    8  C   UNK N   1      27.205  30.554  -4.676  0.00  0.00     0.022 C 
HETATM    9  C   UNK N   1      26.448  29.555  -3.774  0.00  0.00     0.037 C 
HETATM   10  C   UNK N   1      27.453  29.047  -2.716  0.00  0.00     0.123 C 
HETATM   11  N   UNK N   1      28.862  29.354  -3.035  0.00  0.00    -0.420 N 
HETATM   12  C   UNK N   1      29.218  29.117  -4.451  0.00  0.00     0.123 C 
HETATM   13  H   UNK N   1      29.528  29.698  -2.344  0.00  0.00     0.153 HD
ENDROOT
BRANCH   6  14
HETATM   14  C   UNK N   1      26.026  25.855  -8.150  0.00  0.00     0.417 C 
HETATM   15  F   UNK N   1      25.461  24.647  -7.786  0.00  0.00    -0.166 F 
HETATM   16  F   UNK N   1      27.269  25.617  -8.712  0.00  0.00    -0.166 F 
HETATM   17  F   UNK N   1      25.222  26.462  -9.099  0.00  0.00    -0.166 F 
ENDBRANCH   6  14
TORSDOF 1
ENDMDL
MODEL 5
REMARK VINA RESULT:      -5.9     11.114     12.711
REMARK  1 active torsions:
REMARK  status: ('A' for Active; 'I' for Inactive)
REMARK    1  A    between atoms: C_6  and  C_7 
ROOT
HETATM    1  C   UNK N   1      35.367  13.400  16.941  0.00  0.00     0.017 A 
HETATM    2  C   UNK N   1      35.128  12.691  18.130  0.00  0.00     0.009 A 
HETATM    3  C   UNK N   1      35.539  11.361  18.204  0.00  0.00    -0.046 A 
HETATM    4  C   UNK N   1      36.163  10.750  17.157  0.00  0.00    -0.045 A 
HETATM    5  C   UNK N   1      36.434  11.434  15.971  0.00  0.00     0.024 A 
HETATM    6  C   UNK N   1      36.027  12.780  15.859  0.00  0.00     0.048 A 
HETATM    7  C   UNK N   1      36.584   9.380  17.528  0.00  0.00     0.037 C 
HETATM    8  C   UNK N   1      36.733   9.600  19.048  0.00  0.00     0.022 C 
HETATM    9  C   UNK N   1      35.499  10.465  19.382  0.00  0.00     0.037 C 
HETATM   10  C   UNK N   1      34.256   9.558  19.238  0.00  0.00     0.123 C 
HETATM   11  N   UNK N   1      34.522   8.290  18.527  0.00  0.00    -0.420 N 
HETATM   12  C   UNK N   1      35.366   8.447  17.324  0.00  0.00     0.123 C 
HETATM   13  H   UNK N   1      34.156   7.391  18.837  0.00  0.00     0.153 HD
ENDROOT
BRANCH   6  14
HETATM   14  C   UNK N   1      36.334  13.574  14.622  0.00  0.00     0.417 C 
HETATM   15  F   UNK N   1      36.947  14.764  14.966  0.00  0.00    -0.166 F 
HETATM   16  F   UNK N   1      35.181  13.854  13.908  0.00  0.00    -0.166 F 
HETATM   17  F   UNK N   1      37.187  12.844  13.813  0.00  0.00    -0.166 F 
ENDBRANCH   6  14
TORSDOF 1
ENDMDL
MODEL 6
REMARK VINA RESULT:      -5.8      4.329      5.515
REMARK  1 active torsions:
REMARK  status: ('A' for Active; 'I' for Inactive)
REMARK    1  A    between atoms: C_6  and  C_7 
ROOT
HETATM    1  C   UNK N   1      28.214  18.906   4.782  0.00  0.00     0.017 A 
HETATM    2  C   UNK N   1      29.014  17.887   5.324  0.00  0.00     0.009 A 
HETATM    3  C   UNK N   1      29.159  17.822   6.709  0.00  0.00    -0.046 A 
HETATM    4  C   UNK N   1      28.543  18.718   7.532  0.00  0.00    -0.045 A 
HETATM    5  C   UNK N   1      27.724  19.728   7.024  0.00  0.00     0.024 A 
HETATM    6  C   UNK N   1      27.559  19.827   5.628  0.00  0.00     0.048 A 
HETATM    7  C   UNK N   1      28.776  18.368   8.951  0.00  0.00     0.037 C 
HETATM    8  C   UNK N   1      28.979  16.849   8.773  0.00  0.00     0.022 C 
HETATM    9  C   UNK N   1      29.849  16.777   7.499  0.00  0.00     0.037 C 
HETATM   10  C   UNK N   1      31.247  17.318   7.872  0.00  0.00     0.123 C 
HETATM   11  N   UNK N   1      31.283  18.040   9.161  0.00  0.00    -0.420 N 
HETATM   12  C   UNK N   1      30.144  18.963   9.359  0.00  0.00     0.123 C 
HETATM   13  H   UNK N   1      32.024  17.915   9.849  0.00  0.00     0.153 HD
ENDROOT
BRANCH   6  14
HETATM   14  C   UNK N   1      26.654  20.868   5.033  0.00  0.00     0.417 C 
HETATM   15  F   UNK N   1      26.918  22.101   5.601  0.00  0.00    -0.166 F 
HETATM   16  F   UNK N   1      25.323  20.554   5.244  0.00  0.00    -0.166 F 
HETATM   17  F   UNK N   1      26.881  20.942   3.671  0.00  0.00    -0.166 F 
ENDBRANCH   6  14
TORSDOF 1
ENDMDL
MODEL 7
REMARK VINA RESULT:      -5.7      3.223      4.786
REMARK  1 active torsions:
REMARK  status: ('A' for Active; 'I' for Inactive)
REMARK    1  A    between atoms: C_6  and  C_7 
ROOT
HETATM    1  C   UNK N   1      28.744  17.796   7.152  0.00  0.00     0.017 A 
HETATM    2  C   UNK N   1      29.235  17.469   5.877  0.00  0.00     0.009 A 
HETATM    3  C   UNK N   1      30.546  17.009   5.768  0.00  0.00    -0.046 A 
HETATM    4  C   UNK N   1      31.346  16.871   6.863  0.00  0.00    -0.045 A 
HETATM    5  C   UNK N   1      30.881  17.167   8.145  0.00  0.00     0.024 A 
HETATM    6  C   UNK N   1      29.561  17.640   8.294  0.00  0.00     0.048 A 
HETATM    7  C   UNK N   1      32.646  16.273   6.487  0.00  0.00     0.037 C 
HETATM    8  C   UNK N   1      32.178  15.494   5.240  0.00  0.00     0.022 C 
HETATM    9  C   UNK N   1      31.228  16.501   4.556  0.00  0.00     0.037 C 
HETATM   10  C   UNK N   1      32.104  17.644   3.996  0.00  0.00     0.123 C 
HETATM   11  N   UNK N   1      33.482  17.655   4.530  0.00  0.00    -0.420 N 
HETATM   12  C   UNK N   1      33.559  17.419   5.987  0.00  0.00     0.123 C 
HETATM   13  H   UNK N   1      34.304  17.813   3.948  0.00  0.00     0.153 HD
ENDROOT
BRANCH   6  14
HETATM   14  C   UNK N   1      28.997  17.930   9.655  0.00  0.00     0.417 C 
HETATM   15  F   UNK N   1      29.150  16.826  10.473  0.00  0.00    -0.166 F 
HETATM   16  F   UNK N   1      27.653  18.251   9.582  0.00  0.00    -0.166 F 
HETATM   17  F   UNK N   1      29.678  19.000  10.209  0.00  0.00    -0.166 F 
ENDBRANCH   6  14
TORSDOF 1
ENDMDL
MODEL 8
REMARK VINA RESULT:      -5.7      3.042      3.999
REMARK  1 active torsions:
REMARK  status: ('A' for Active; 'I' for Inactive)
REMARK    1  A    between atoms: C_6  and  C_7 
ROOT
HETATM    1  C   UNK N   1      29.539  17.168   6.999  0.00  0.00     0.017 A 
HETATM    2  C   UNK N   1      29.184  17.394   5.659  0.00  0.00     0.009 A 
HETATM    3  C   UNK N   1      28.314  18.445   5.371  0.00  0.00    -0.046 A 
HETATM    4  C   UNK N   1      27.814  19.246   6.354  0.00  0.00    -0.045 A 
HETATM    5  C   UNK N   1      28.165  19.060   7.692  0.00  0.00     0.024 A 
HETATM    6  C   UNK N   1      29.039  18.003   8.022  0.00  0.00     0.048 A 
HETATM    7  C   UNK N   1      27.002  20.339   5.774  0.00  0.00     0.037 C 
HETATM    8  C   UNK N   1      27.697  20.424   4.399  0.00  0.00     0.022 C 
HETATM    9  C   UNK N   1      27.900  18.937   4.037  0.00  0.00     0.037 C 
HETATM   10  C   UNK N   1      26.503  18.349   3.734  0.00  0.00     0.123 C 
HETATM   11  N   UNK N   1      25.385  19.205   4.181  0.00  0.00    -0.420 N 
HETATM   12  C   UNK N   1      25.580  19.783   5.528  0.00  0.00     0.123 C 
HETATM   13  H   UNK N   1      24.557  19.381   3.614  0.00  0.00     0.153 HD
ENDROOT
BRANCH   6  14
HETATM   14  C   UNK N   1      29.483  17.788   9.440  0.00  0.00     0.417 C 
HETATM   15  F   UNK N   1      28.467  17.194  10.167  0.00  0.00    -0.166 F 
HETATM   16  F   UNK N   1      29.825  18.986  10.045  0.00  0.00    -0.166 F 
HETATM   17  F   UNK N   1      30.589  16.957   9.449  0.00  0.00    -0.166 F 
ENDBRANCH   6  14
TORSDOF 1
ENDMDL
MODEL 9
REMARK VINA RESULT:      -5.6     13.925     14.937
REMARK  1 active torsions:
REMARK  status: ('A' for Active; 'I' for Inactive)
REMARK    1  A    between atoms: C_6  and  C_7 
ROOT
HETATM    1  C   UNK N   1      27.303  23.977  -3.319  0.00  0.00     0.017 A 
HETATM    2  C   UNK N   1      26.300  24.805  -3.851  0.00  0.00     0.009 A 
HETATM    3  C   UNK N   1      26.680  25.993  -4.474  0.00  0.00    -0.046 A 
HETATM    4  C   UNK N   1      27.990  26.356  -4.576  0.00  0.00    -0.045 A 
HETATM    5  C   UNK N   1      29.011  25.544  -4.077  0.00  0.00     0.024 A 
HETATM    6  C   UNK N   1      28.664  24.337  -3.436  0.00  0.00     0.048 A 
HETATM    7  C   UNK N   1      28.126  27.600  -5.365  0.00  0.00     0.037 C 
HETATM    8  C   UNK N   1      26.853  27.457  -6.224  0.00  0.00     0.022 C 
HETATM    9  C   UNK N   1      25.815  26.950  -5.199  0.00  0.00     0.037 C 
HETATM   10  C   UNK N   1      25.511  28.125  -4.243  0.00  0.00     0.123 C 
HETATM   11  N   UNK N   1      26.482  29.234  -4.333  0.00  0.00    -0.420 N 
HETATM   12  C   UNK N   1      27.891  28.789  -4.403  0.00  0.00     0.123 C 
HETATM   13  H   UNK N   1      26.208  30.216  -4.345  0.00  0.00     0.153 HD
ENDROOT
BRANCH   6  14
HETATM   14  C   UNK N   1      29.725  23.408  -2.922  0.00  0.00     0.417 C 
HETATM   15  F   UNK N   1      29.395  22.973  -1.651  0.00  0.00    -0.166 F 
HETATM   16  F   UNK N   1      30.959  24.034  -2.875  0.00  0.00    -0.166 F 
HETATM   17  F   UNK N   1      29.817  22.313  -3.763  0.00  0.00    -0.166 F 
ENDBRANCH   6  14
TORSDOF 1
ENDMDL
