MODEL 1
REMARK VINA RESULT:      -8.8      0.000      0.000
REMARK  6 active torsions:
REMARK  status: ('A' for Active; 'I' for Inactive)
REMARK    1  A    between atoms: C_2  and  C_3 
REMARK       I    between atoms: C_7  and  N_11 
REMARK    2  A    between atoms: C_14  and  C_17 
REMARK    3  A    between atoms: C_20  and  C_23 
REMARK    4  A    between atoms: C_23  and  O_24 
REMARK    5  A    between atoms: O_24  and  C_25 
REMARK    6  A    between atoms: C_28  and  N_31 
ROOT
HETATM    1  C   UNK N   1      30.772  16.677   6.508  0.00  0.00     0.055 A 
HETATM    2  N   UNK N   1      29.755  17.486   6.855  0.00  0.00    -0.355 N 
ATOM      3  HN  UNK N   1      29.523  17.724   7.819  1.00  0.00     0.166 HD
HETATM    4  C   UNK N   1      29.067  17.956   5.768  0.00  0.00     0.041 A 
HETATM    5  C   UNK N   1      29.523  17.518   4.511  0.00  0.00     0.078 A 
HETATM    6  S   UNK N   1      30.810  16.528   4.862  0.00  0.00    -0.086 SA
ENDROOT
BRANCH   1   7
HETATM    7  C   UNK N   1      31.693  16.111   7.526  0.00  0.00     0.046 C 
HETATM    8  C   UNK N   1      32.079  17.224   8.531  0.00  0.00     0.032 C 
HETATM    9  C   UNK N   1      33.295  18.021   8.061  0.00  0.00     0.142 C 
HETATM   10  N   UNK N   1      34.322  17.046   7.820  0.00  0.00    -0.218 N 
HETATM   11  C   UNK N   1      34.933  16.464   8.970  0.00  0.00     0.679 A 
HETATM   12  C   UNK N   1      34.103  16.218   6.660  0.00  0.00     0.142 C 
HETATM   13  N   UNK N   1      34.935  17.140  10.155  0.00  0.00    -0.201 N 
HETATM   14  N   UNK N   1      35.363  15.172   8.930  0.00  0.00    -0.201 N 
HETATM   15  C   UNK N   1      35.348  16.542  11.300  0.00  0.00     0.114 A 
ATOM     16  HN  UNK N   1      34.621  18.110  10.179  1.00  0.00     0.183 HD
HETATM   17  C   UNK N   1      35.758  15.212  11.277  0.00  0.00    -0.027 A 
HETATM   18  C   UNK N   1      35.766  14.536  10.059  0.00  0.00     0.114 A 
ATOM     19  HN  UNK N   1      35.382  14.675   8.040  1.00  0.00     0.183 HD
HETATM   20  C   UNK N   1      32.890  15.326   6.945  0.00  0.00     0.032 C 
BRANCH  17  21
HETATM   21  C   UNK N   1      36.117  14.513  12.544  0.00  0.00     0.037 C 
HETATM   22  C   UNK N   1      35.343  13.218  12.695  0.00  0.00     0.010 C 
ENDBRANCH  17  21
ENDBRANCH   1   7
BRANCH   4  23
HETATM   23  C   UNK N   1      28.020  18.976   5.946  0.00  0.00     0.233 C 
BRANCH  23  24
HETATM   24  O   UNK N   1      27.699  19.434   4.686  0.00  0.00    -0.345 OA
BRANCH  24  25
HETATM   25  C   UNK N   1      26.435  19.495   4.222  0.00  0.00     0.069 A 
HETATM   26  C   UNK N   1      26.131  20.380   3.184  0.00  0.00     0.039 A 
HETATM   27  C   UNK N   1      24.810  20.530   2.755  0.00  0.00     0.034 A 
HETATM   28  C   UNK N   1      23.788  19.786   3.361  0.00  0.00     0.055 A 
HETATM   29  C   UNK N   1      24.102  18.857   4.359  0.00  0.00     0.034 A 
HETATM   30  C   UNK N   1      25.419  18.708   4.785  0.00  0.00     0.039 A 
BRANCH  28  31
HETATM   31  N   UNK N   1      22.417  20.055   3.053  0.00  0.00    -0.236 N 
HETATM   32  C   UNK N   1      21.325  19.540   3.643  0.00  0.00     0.218 A 
HETATM   33  N   UNK N   1      20.236  19.971   2.976  0.00  0.00    -0.280 N 
HETATM   34  N   UNK N   1      20.683  20.735   1.988  0.00  0.00    -0.007 NA
ATOM     35  HN  UNK N   1      19.263  19.752   3.188  1.00  0.00     0.184 HD
HETATM   36  N   UNK N   1      22.003  20.784   2.033  0.00  0.00    -0.000 NA
ENDBRANCH  28  31
ENDBRANCH  24  25
ENDBRANCH  23  24
ENDBRANCH   4  23
TORSDOF 6
ENDMDL
MODEL 2
REMARK VINA RESULT:      -8.6      4.333     12.837
REMARK  6 active torsions:
REMARK  status: ('A' for Active; 'I' for Inactive)
REMARK    1  A    between atoms: C_2  and  C_3 
REMARK       I    between atoms: C_7  and  N_11 
REMARK    2  A    between atoms: C_14  and  C_17 
REMARK    3  A    between atoms: C_20  and  C_23 
REMARK    4  A    between atoms: C_23  and  O_24 
REMARK    5  A    between atoms: O_24  and  C_25 
REMARK    6  A    between atoms: C_28  and  N_31 
ROOT
HETATM    1  C   UNK N   1      33.778  16.765   8.143  0.00  0.00     0.055 A 
HETATM    2  N   UNK N   1      34.019  16.887   9.460  0.00  0.00    -0.355 N 
ATOM      3  HN  UNK N   1      33.521  17.535  10.071  1.00  0.00     0.166 HD
HETATM    4  C   UNK N   1      35.007  16.043   9.892  0.00  0.00     0.041 A 
HETATM    5  C   UNK N   1      35.591  15.222   8.910  0.00  0.00     0.078 A 
HETATM    6  S   UNK N   1      34.797  15.628   7.508  0.00  0.00    -0.086 SA
ENDROOT
BRANCH   1   7
HETATM    7  C   UNK N   1      32.697  17.536   7.479  0.00  0.00     0.046 C 
HETATM    8  C   UNK N   1      31.613  17.891   8.526  0.00  0.00     0.032 C 
HETATM    9  C   UNK N   1      30.566  16.785   8.660  0.00  0.00     0.142 C 
HETATM   10  N   UNK N   1      30.069  16.566   7.330  0.00  0.00    -0.218 N 
HETATM   11  C   UNK N   1      29.197  17.563   6.802  0.00  0.00     0.679 A 
HETATM   12  C   UNK N   1      31.001  15.919   6.440  0.00  0.00     0.142 C 
HETATM   13  N   UNK N   1      28.481  18.359   7.648  0.00  0.00    -0.201 N 
HETATM   14  N   UNK N   1      29.206  17.835   5.467  0.00  0.00    -0.201 N 
HETATM   15  C   UNK N   1      27.784  19.426   7.182  0.00  0.00     0.114 A 
ATOM     16  HN  UNK N   1      28.469  18.147   8.645  1.00  0.00     0.183 HD
HETATM   17  C   UNK N   1      27.814  19.733   5.825  0.00  0.00    -0.027 A 
HETATM   18  C   UNK N   1      28.537  18.905   4.968  0.00  0.00     0.114 A 
ATOM     19  HN  UNK N   1      29.724  17.227   4.833  1.00  0.00     0.183 HD
HETATM   20  C   UNK N   1      32.154  16.895   6.182  0.00  0.00     0.032 C 
BRANCH  17  21
HETATM   21  C   UNK N   1      27.137  20.959   5.315  0.00  0.00     0.037 C 
HETATM   22  C   UNK N   1      26.732  21.875   6.454  0.00  0.00     0.010 C 
ENDBRANCH  17  21
ENDBRANCH   1   7
BRANCH   4  23
HETATM   23  C   UNK N   1      35.299  15.927  11.331  0.00  0.00     0.233 C 
BRANCH  23  24
HETATM   24  O   UNK N   1      35.665  14.617  11.553  0.00  0.00    -0.345 OA
BRANCH  24  25
HETATM   25  C   UNK N   1      35.710  14.062  12.781  0.00  0.00     0.069 A 
HETATM   26  C   UNK N   1      34.945  12.922  13.043  0.00  0.00     0.039 A 
HETATM   27  C   UNK N   1      34.901  12.389  14.334  0.00  0.00     0.034 A 
HETATM   28  C   UNK N   1      35.631  12.992  15.367  0.00  0.00     0.055 A 
HETATM   29  C   UNK N   1      36.444  14.097  15.089  0.00  0.00     0.034 A 
HETATM   30  C   UNK N   1      36.487  14.628  13.803  0.00  0.00     0.039 A 
BRANCH  28  31
HETATM   31  N   UNK N   1      35.460  12.565  16.721  0.00  0.00    -0.236 N 
HETATM   32  C   UNK N   1      35.129  13.315  17.785  0.00  0.00     0.218 A 
HETATM   33  N   UNK N   1      35.186  12.540  18.887  0.00  0.00    -0.280 N 
HETATM   34  N   UNK N   1      35.556  11.334  18.477  0.00  0.00    -0.007 NA
ATOM     35  HN  UNK N   1      34.984  12.825  19.846  1.00  0.00     0.184 HD
HETATM   36  N   UNK N   1      35.725  11.349  17.166  0.00  0.00    -0.000 NA
ENDBRANCH  28  31
ENDBRANCH  24  25
ENDBRANCH  23  24
ENDBRANCH   4  23
TORSDOF 6
ENDMDL
MODEL 3
REMARK VINA RESULT:      -8.3      4.046     11.873
REMARK  6 active torsions:
REMARK  status: ('A' for Active; 'I' for Inactive)
REMARK    1  A    between atoms: C_2  and  C_3 
REMARK       I    between atoms: C_7  and  N_11 
REMARK    2  A    between atoms: C_14  and  C_17 
REMARK    3  A    between atoms: C_20  and  C_23 
REMARK    4  A    between atoms: C_23  and  O_24 
REMARK    5  A    between atoms: O_24  and  C_25 
REMARK    6  A    between atoms: C_28  and  N_31 
ROOT
HETATM    1  C   UNK N   1      33.486  16.262   5.480  0.00  0.00     0.055 A 
HETATM    2  N   UNK N   1      34.256  16.069   6.565  0.00  0.00    -0.355 N 
ATOM      3  HN  UNK N   1      34.202  16.640   7.408  1.00  0.00     0.166 HD
HETATM    4  C   UNK N   1      35.121  15.018   6.412  0.00  0.00     0.041 A 
HETATM    5  C   UNK N   1      35.064  14.344   5.178  0.00  0.00     0.078 A 
HETATM    6  S   UNK N   1      33.884  15.147   4.326  0.00  0.00    -0.086 SA
ENDROOT
BRANCH   1   7
HETATM    7  C   UNK N   1      32.429  17.304   5.456  0.00  0.00     0.046 C 
HETATM    8  C   UNK N   1      31.546  17.157   6.719  0.00  0.00     0.032 C 
HETATM    9  C   UNK N   1      30.398  16.171   6.500  0.00  0.00     0.142 C 
HETATM   10  N   UNK N   1      29.705  16.643   5.334  0.00  0.00    -0.218 N 
HETATM   11  C   UNK N   1      28.900  17.808   5.497  0.00  0.00     0.679 A 
HETATM   12  C   UNK N   1      30.424  16.466   4.096  0.00  0.00     0.142 C 
HETATM   13  N   UNK N   1      28.406  18.128   6.728  0.00  0.00    -0.201 N 
HETATM   14  N   UNK N   1      28.765  18.690   4.467  0.00  0.00    -0.201 N 
HETATM   15  C   UNK N   1      27.790  19.317   6.947  0.00  0.00     0.114 A 
ATOM     16  HN  UNK N   1      28.501  17.462   7.494  1.00  0.00     0.183 HD
HETATM   17  C   UNK N   1      27.676  20.239   5.910  0.00  0.00    -0.027 A 
HETATM   18  C   UNK N   1      28.171  19.896   4.653  0.00  0.00     0.114 A 
ATOM     19  HN  UNK N   1      29.115  18.440   3.542  1.00  0.00     0.183 HD
HETATM   20  C   UNK N   1      31.643  17.393   4.128  0.00  0.00     0.032 C 
BRANCH  17  21
HETATM   21  C   UNK N   1      27.093  21.587   6.163  0.00  0.00     0.037 C 
HETATM   22  C   UNK N   1      26.148  21.563   7.348  0.00  0.00     0.010 C 
ENDBRANCH  17  21
ENDBRANCH   1   7
BRANCH   4  23
HETATM   23  C   UNK N   1      35.933  14.562   7.553  0.00  0.00     0.233 C 
BRANCH  23  24
HETATM   24  O   UNK N   1      35.463  15.233   8.662  0.00  0.00    -0.345 OA
BRANCH  24  25
HETATM   25  C   UNK N   1      35.640  14.790   9.923  0.00  0.00     0.069 A 
HETATM   26  C   UNK N   1      35.557  13.419  10.182  0.00  0.00     0.039 A 
HETATM   27  C   UNK N   1      35.641  12.948  11.495  0.00  0.00     0.034 A 
HETATM   28  C   UNK N   1      35.814  13.850  12.554  0.00  0.00     0.055 A 
HETATM   29  C   UNK N   1      35.957  15.216  12.286  0.00  0.00     0.034 A 
HETATM   30  C   UNK N   1      35.874  15.684  10.978  0.00  0.00     0.039 A 
BRANCH  28  31
HETATM   31  N   UNK N   1      35.727  13.402  13.909  0.00  0.00    -0.236 N 
HETATM   32  C   UNK N   1      36.733  13.039  14.722  0.00  0.00     0.218 A 
HETATM   33  N   UNK N   1      36.206  12.577  15.874  0.00  0.00    -0.280 N 
HETATM   34  N   UNK N   1      34.889  12.660  15.740  0.00  0.00    -0.007 NA
ATOM     35  HN  UNK N   1      36.718  12.232  16.686  1.00  0.00     0.184 HD
HETATM   36  N   UNK N   1      34.598  13.157  14.550  0.00  0.00    -0.000 NA
ENDBRANCH  28  31
ENDBRANCH  24  25
ENDBRANCH  23  24
ENDBRANCH   4  23
TORSDOF 6
ENDMDL
MODEL 4
REMARK VINA RESULT:      -8.2      5.456     10.260
REMARK  6 active torsions:
REMARK  status: ('A' for Active; 'I' for Inactive)
REMARK    1  A    between atoms: C_2  and  C_3 
REMARK       I    between atoms: C_7  and  N_11 
REMARK    2  A    between atoms: C_14  and  C_17 
REMARK    3  A    between atoms: C_20  and  C_23 
REMARK    4  A    between atoms: C_23  and  O_24 
REMARK    5  A    between atoms: O_24  and  C_25 
REMARK    6  A    between atoms: C_28  and  N_31 
ROOT
HETATM    1  C   UNK N   1      25.157  16.037   5.385  0.00  0.00     0.055 A 
HETATM    2  N   UNK N   1      26.096  16.984   5.555  0.00  0.00    -0.355 N 
ATOM      3  HN  UNK N   1      26.350  17.374   6.462  1.00  0.00     0.166 HD
HETATM    4  C   UNK N   1      26.675  17.365   4.374  0.00  0.00     0.041 A 
HETATM    5  C   UNK N   1      26.196  16.725   3.216  0.00  0.00     0.078 A 
HETATM    6  S   UNK N   1      25.029  15.683   3.775  0.00  0.00    -0.086 SA
ENDROOT
BRANCH   1   7
HETATM    7  C   UNK N   1      24.452  15.428   6.541  0.00  0.00     0.046 C 
HETATM    8  C   UNK N   1      25.410  14.444   7.256  0.00  0.00     0.032 C 
HETATM    9  C   UNK N   1      25.348  13.043   6.646  0.00  0.00     0.142 C 
HETATM   10  N   UNK N   1      23.962  12.670   6.687  0.00  0.00    -0.218 N 
HETATM   11  C   UNK N   1      23.431  12.323   7.964  0.00  0.00     0.679 A 
HETATM   12  C   UNK N   1      23.121  13.383   5.758  0.00  0.00     0.142 C 
HETATM   13  N   UNK N   1      24.262  11.871   8.947  0.00  0.00    -0.201 N 
HETATM   14  N   UNK N   1      22.130  12.602   8.257  0.00  0.00    -0.201 N 
HETATM   15  C   UNK N   1      23.816  11.704  10.218  0.00  0.00     0.114 A 
ATOM     16  HN  UNK N   1      25.233  11.655   8.723  1.00  0.00     0.183 HD
HETATM   17  C   UNK N   1      22.498  12.018  10.536  0.00  0.00    -0.027 A 
HETATM   18  C   UNK N   1      21.654  12.465   9.521  0.00  0.00     0.114 A 
ATOM     19  HN  UNK N   1      21.505  12.920   7.517  1.00  0.00     0.183 HD
HETATM   20  C   UNK N   1      23.059  14.845   6.211  0.00  0.00     0.032 C 
BRANCH  17  21
HETATM   21  C   UNK N   1      22.024  11.936  11.946  0.00  0.00     0.037 C 
HETATM   22  C   UNK N   1      23.186  11.976  12.919  0.00  0.00     0.010 C 
ENDBRANCH  17  21
ENDBRANCH   1   7
BRANCH   4  23
HETATM   23  C   UNK N   1      27.830  18.279   4.382  0.00  0.00     0.233 C 
BRANCH  23  24
HETATM   24  O   UNK N   1      28.943  17.509   4.122  0.00  0.00    -0.345 OA
BRANCH  24  25
HETATM   25  C   UNK N   1      29.969  17.379   4.985  0.00  0.00     0.069 A 
HETATM   26  C   UNK N   1      29.702  17.289   6.354  0.00  0.00     0.039 A 
HETATM   27  C   UNK N   1      30.754  17.254   7.273  0.00  0.00     0.034 A 
HETATM   28  C   UNK N   1      32.081  17.301   6.822  0.00  0.00     0.055 A 
HETATM   29  C   UNK N   1      32.346  17.331   5.448  0.00  0.00     0.034 A 
HETATM   30  C   UNK N   1      31.298  17.366   4.534  0.00  0.00     0.039 A 
BRANCH  28  31
HETATM   31  N   UNK N   1      33.158  17.441   7.753  0.00  0.00    -0.236 N 
HETATM   32  C   UNK N   1      33.375  16.731   8.873  0.00  0.00     0.218 A 
HETATM   33  N   UNK N   1      34.436  17.259   9.514  0.00  0.00    -0.280 N 
HETATM   34  N   UNK N   1      34.843  18.285   8.778  0.00  0.00    -0.007 NA
ATOM     35  HN  UNK N   1      34.844  16.936  10.391  1.00  0.00     0.184 HD
HETATM   36  N   UNK N   1      34.068  18.397   7.713  0.00  0.00    -0.000 NA
ENDBRANCH  28  31
ENDBRANCH  24  25
ENDBRANCH  23  24
ENDBRANCH   4  23
TORSDOF 6
ENDMDL
MODEL 5
REMARK VINA RESULT:      -8.1      3.445      5.197
REMARK  6 active torsions:
REMARK  status: ('A' for Active; 'I' for Inactive)
REMARK    1  A    between atoms: C_2  and  C_3 
REMARK       I    between atoms: C_7  and  N_11 
REMARK    2  A    between atoms: C_14  and  C_17 
REMARK    3  A    between atoms: C_20  and  C_23 
REMARK    4  A    between atoms: C_23  and  O_24 
REMARK    5  A    between atoms: O_24  and  C_25 
REMARK    6  A    between atoms: C_28  and  N_31 
ROOT
HETATM    1  C   UNK N   1      34.071  16.005   9.018  0.00  0.00     0.055 A 
HETATM    2  N   UNK N   1      33.598  15.427   7.900  0.00  0.00    -0.355 N 
ATOM      3  HN  UNK N   1      33.314  14.449   7.843  1.00  0.00     0.166 HD
HETATM    4  C   UNK N   1      33.539  16.300   6.846  0.00  0.00     0.041 A 
HETATM    5  C   UNK N   1      33.978  17.611   7.103  0.00  0.00     0.078 A 
HETATM    6  S   UNK N   1      34.432  17.586   8.701  0.00  0.00    -0.086 SA
ENDROOT
BRANCH   1   7
HETATM    7  C   UNK N   1      34.152  15.259  10.300  0.00  0.00     0.046 C 
HETATM    8  C   UNK N   1      35.136  15.988  11.247  0.00  0.00     0.032 C 
HETATM    9  C   UNK N   1      36.579  15.527  11.035  0.00  0.00     0.142 C 
HETATM   10  N   UNK N   1      36.549  14.099  11.183  0.00  0.00    -0.218 N 
HETATM   11  C   UNK N   1      36.402  13.596  12.509  0.00  0.00     0.679 A 
HETATM   12  C   UNK N   1      35.903  13.397  10.102  0.00  0.00     0.142 C 
HETATM   13  N   UNK N   1      36.789  14.358  13.573  0.00  0.00    -0.201 N 
HETATM   14  N   UNK N   1      35.723  12.435  12.724  0.00  0.00    -0.201 N 
HETATM   15  C   UNK N   1      36.500  13.983  14.844  0.00  0.00     0.114 A 
ATOM     16  HN  UNK N   1      37.305  15.223  13.409  1.00  0.00     0.183 HD
HETATM   17  C   UNK N   1      35.778  12.815  15.074  0.00  0.00    -0.027 A 
HETATM   18  C   UNK N   1      35.400  12.037  13.981  0.00  0.00     0.114 A 
ATOM     19  HN  UNK N   1      35.454  11.855  11.929  1.00  0.00     0.183 HD
HETATM   20  C   UNK N   1      34.411  13.743  10.146  0.00  0.00     0.032 C 
BRANCH  17  21
HETATM   21  C   UNK N   1      35.366  12.445  16.457  0.00  0.00     0.037 C 
HETATM   22  C   UNK N   1      35.242  13.672  17.340  0.00  0.00     0.010 C 
ENDBRANCH  17  21
ENDBRANCH   1   7
BRANCH   4  23
HETATM   23  C   UNK N   1      32.903  15.885   5.583  0.00  0.00     0.233 C 
BRANCH  23  24
HETATM   24  O   UNK N   1      31.613  15.513   5.897  0.00  0.00    -0.345 OA
BRANCH  24  25
HETATM   25  C   UNK N   1      30.574  16.372   5.888  0.00  0.00     0.069 A 
HETATM   26  C   UNK N   1      30.095  16.849   4.665  0.00  0.00     0.039 A 
HETATM   27  C   UNK N   1      29.085  17.814   4.637  0.00  0.00     0.034 A 
HETATM   28  C   UNK N   1      28.545  18.300   5.836  0.00  0.00     0.055 A 
HETATM   29  C   UNK N   1      28.985  17.777   7.058  0.00  0.00     0.034 A 
HETATM   30  C   UNK N   1      29.991  16.816   7.085  0.00  0.00     0.039 A 
BRANCH  28  31
HETATM   31  N   UNK N   1      27.639  19.407   5.828  0.00  0.00    -0.236 N 
HETATM   32  C   UNK N   1      27.416  20.295   6.811  0.00  0.00     0.218 A 
HETATM   33  N   UNK N   1      26.406  21.104   6.434  0.00  0.00    -0.280 N 
HETATM   34  N   UNK N   1      26.028  20.692   5.230  0.00  0.00    -0.007 NA
ATOM     35  HN  UNK N   1      26.011  21.878   6.967  1.00  0.00     0.184 HD
HETATM   36  N   UNK N   1      26.772  19.662   4.864  0.00  0.00    -0.000 NA
ENDBRANCH  28  31
ENDBRANCH  24  25
ENDBRANCH  23  24
ENDBRANCH   4  23
TORSDOF 6
ENDMDL
MODEL 6
REMARK VINA RESULT:      -8.0      1.545      2.114
REMARK  6 active torsions:
REMARK  status: ('A' for Active; 'I' for Inactive)
REMARK    1  A    between atoms: C_2  and  C_3 
REMARK       I    between atoms: C_7  and  N_11 
REMARK    2  A    between atoms: C_14  and  C_17 
REMARK    3  A    between atoms: C_20  and  C_23 
REMARK    4  A    between atoms: C_23  and  O_24 
REMARK    5  A    between atoms: O_24  and  C_25 
REMARK    6  A    between atoms: C_28  and  N_31 
ROOT
HETATM    1  C   UNK N   1      29.880  17.412   6.779  0.00  0.00     0.055 A 
HETATM    2  N   UNK N   1      29.434  17.556   5.519  0.00  0.00    -0.355 N 
ATOM      3  HN  UNK N   1      29.876  17.125   4.708  1.00  0.00     0.166 HD
HETATM    4  C   UNK N   1      28.318  18.347   5.447  0.00  0.00     0.041 A 
HETATM    5  C   UNK N   1      27.847  18.865   6.667  0.00  0.00     0.078 A 
HETATM    6  S   UNK N   1      28.907  18.274   7.801  0.00  0.00    -0.086 SA
ENDROOT
BRANCH   1   7
HETATM    7  C   UNK N   1      31.038  16.537   7.096  0.00  0.00     0.046 C 
HETATM    8  C   UNK N   1      31.652  16.981   8.445  0.00  0.00     0.032 C 
HETATM    9  C   UNK N   1      32.697  18.082   8.262  0.00  0.00     0.142 C 
HETATM   10  N   UNK N   1      33.641  17.557   7.315  0.00  0.00    -0.218 N 
HETATM   11  C   UNK N   1      34.534  16.552   7.792  0.00  0.00     0.679 A 
HETATM   12  C   UNK N   1      33.145  17.459   5.965  0.00  0.00     0.142 C 
HETATM   13  N   UNK N   1      34.828  16.479   9.121  0.00  0.00    -0.201 N 
HETATM   14  N   UNK N   1      34.956  15.566   6.952  0.00  0.00    -0.201 N 
HETATM   15  C   UNK N   1      35.528  15.431   9.626  0.00  0.00     0.114 A 
ATOM     16  HN  UNK N   1      34.518  17.223   9.746  1.00  0.00     0.183 HD
HETATM   17  C   UNK N   1      35.936  14.401   8.783  0.00  0.00    -0.027 A 
HETATM   18  C   UNK N   1      35.642  14.494   7.424  0.00  0.00     0.114 A 
ATOM     19  HN  UNK N   1      34.754  15.634   5.955  1.00  0.00     0.183 HD
HETATM   20  C   UNK N   1      32.057  16.380   5.945  0.00  0.00     0.032 C 
BRANCH  17  21
HETATM   21  C   UNK N   1      36.616  13.197   9.340  0.00  0.00     0.037 C 
HETATM   22  C   UNK N   1      37.423  13.546  10.575  0.00  0.00     0.010 C 
ENDBRANCH  17  21
ENDBRANCH   1   7
BRANCH   4  23
HETATM   23  C   UNK N   1      27.601  18.491   4.168  0.00  0.00     0.233 C 
BRANCH  23  24
HETATM   24  O   UNK N   1      26.788  19.596   4.296  0.00  0.00    -0.345 OA
BRANCH  24  25
HETATM   25  C   UNK N   1      25.456  19.561   4.088  0.00  0.00     0.069 A 
HETATM   26  C   UNK N   1      24.690  18.589   4.735  0.00  0.00     0.039 A 
HETATM   27  C   UNK N   1      23.326  18.472   4.458  0.00  0.00     0.034 A 
HETATM   28  C   UNK N   1      22.722  19.337   3.534  0.00  0.00     0.055 A 
HETATM   29  C   UNK N   1      23.478  20.348   2.932  0.00  0.00     0.034 A 
HETATM   30  C   UNK N   1      24.837  20.464   3.210  0.00  0.00     0.039 A 
BRANCH  28  31
HETATM   31  N   UNK N   1      21.372  19.119   3.113  0.00  0.00    -0.236 N 
HETATM   32  C   UNK N   1      20.516  20.017   2.598  0.00  0.00     0.218 A 
HETATM   33  N   UNK N   1      19.316  19.422   2.443  0.00  0.00    -0.280 N 
HETATM   34  N   UNK N   1      19.460  18.175   2.872  0.00  0.00    -0.007 NA
ATOM     35  HN  UNK N   1      18.467  19.846   2.071  1.00  0.00     0.184 HD
HETATM   36  N   UNK N   1      20.704  17.992   3.281  0.00  0.00    -0.000 NA
ENDBRANCH  28  31
ENDBRANCH  24  25
ENDBRANCH  23  24
ENDBRANCH   4  23
TORSDOF 6
ENDMDL
MODEL 7
REMARK VINA RESULT:      -7.8      2.922     11.379
REMARK  6 active torsions:
REMARK  status: ('A' for Active; 'I' for Inactive)
REMARK    1  A    between atoms: C_2  and  C_3 
REMARK       I    between atoms: C_7  and  N_11 
REMARK    2  A    between atoms: C_14  and  C_17 
REMARK    3  A    between atoms: C_20  and  C_23 
REMARK    4  A    between atoms: C_23  and  O_24 
REMARK    5  A    between atoms: O_24  and  C_25 
REMARK    6  A    between atoms: C_28  and  N_31 
ROOT
HETATM    1  C   UNK N   1      27.979  15.401   2.806  0.00  0.00     0.055 A 
HETATM    2  N   UNK N   1      29.085  16.161   2.888  0.00  0.00    -0.355 N 
ATOM      3  HN  UNK N   1      29.074  17.181   2.889  1.00  0.00     0.166 HD
HETATM    4  C   UNK N   1      30.229  15.412   2.970  0.00  0.00     0.041 A 
HETATM    5  C   UNK N   1      30.058  14.016   2.947  0.00  0.00     0.078 A 
HETATM    6  S   UNK N   1      28.414  13.806   2.818  0.00  0.00    -0.086 SA
ENDROOT
BRANCH   1   7
HETATM    7  C   UNK N   1      26.624  16.007   2.780  0.00  0.00     0.046 C 
HETATM    8  C   UNK N   1      26.473  16.959   3.990  0.00  0.00     0.032 C 
HETATM    9  C   UNK N   1      25.979  16.224   5.237  0.00  0.00     0.142 C 
HETATM   10  N   UNK N   1      24.768  15.564   4.836  0.00  0.00    -0.218 N 
HETATM   11  C   UNK N   1      23.618  16.389   4.658  0.00  0.00     0.679 A 
HETATM   12  C   UNK N   1      24.960  14.445   3.947  0.00  0.00     0.142 C 
HETATM   13  N   UNK N   1      23.530  17.582   5.314  0.00  0.00    -0.201 N 
HETATM   14  N   UNK N   1      22.693  16.070   3.711  0.00  0.00    -0.201 N 
HETATM   15  C   UNK N   1      22.538  18.464   5.029  0.00  0.00     0.114 A 
ATOM     16  HN  UNK N   1      24.219  17.815   6.028  1.00  0.00     0.183 HD
HETATM   17  C   UNK N   1      21.607  18.163   4.039  0.00  0.00    -0.027 A 
HETATM   18  C   UNK N   1      21.699  16.935   3.387  0.00  0.00     0.114 A 
ATOM     19  HN  UNK N   1      22.748  15.168   3.238  1.00  0.00     0.183 HD
HETATM   20  C   UNK N   1      25.470  14.993   2.610  0.00  0.00     0.032 C 
BRANCH  17  21
HETATM   21  C   UNK N   1      20.575  19.165   3.647  0.00  0.00     0.037 C 
HETATM   22  C   UNK N   1      21.198  20.332   2.907  0.00  0.00     0.010 C 
ENDBRANCH  17  21
ENDBRANCH   1   7
BRANCH   4  23
HETATM   23  C   UNK N   1      31.523  16.071   3.220  0.00  0.00     0.233 C 
BRANCH  23  24
HETATM   24  O   UNK N   1      31.290  17.047   4.166  0.00  0.00    -0.345 OA
BRANCH  24  25
HETATM   25  C   UNK N   1      31.968  17.125   5.328  0.00  0.00     0.069 A 
HETATM   26  C   UNK N   1      33.354  17.300   5.298  0.00  0.00     0.039 A 
HETATM   27  C   UNK N   1      34.088  17.285   6.487  0.00  0.00     0.034 A 
HETATM   28  C   UNK N   1      33.434  17.104   7.713  0.00  0.00     0.055 A 
HETATM   29  C   UNK N   1      32.039  16.989   7.745  0.00  0.00     0.034 A 
HETATM   30  C   UNK N   1      31.309  17.004   6.561  0.00  0.00     0.039 A 
BRANCH  28  31
HETATM   31  N   UNK N   1      34.186  16.914   8.915  0.00  0.00    -0.236 N 
HETATM   32  C   UNK N   1      34.024  15.956   9.844  0.00  0.00     0.218 A 
HETATM   33  N   UNK N   1      34.865  16.209  10.867  0.00  0.00    -0.280 N 
HETATM   34  N   UNK N   1      35.519  17.318  10.547  0.00  0.00    -0.007 NA
ATOM     35  HN  UNK N   1      34.976  15.657  11.717  1.00  0.00     0.184 HD
HETATM   36  N   UNK N   1      35.106  17.747   9.366  0.00  0.00    -0.000 NA
ENDBRANCH  28  31
ENDBRANCH  24  25
ENDBRANCH  23  24
ENDBRANCH   4  23
TORSDOF 6
ENDMDL
MODEL 8
REMARK VINA RESULT:      -7.7      6.414     14.209
REMARK  6 active torsions:
REMARK  status: ('A' for Active; 'I' for Inactive)
REMARK    1  A    between atoms: C_2  and  C_3 
REMARK       I    between atoms: C_7  and  N_11 
REMARK    2  A    between atoms: C_14  and  C_17 
REMARK    3  A    between atoms: C_20  and  C_23 
REMARK    4  A    between atoms: C_23  and  O_24 
REMARK    5  A    between atoms: O_24  and  C_25 
REMARK    6  A    between atoms: C_28  and  N_31 
ROOT
HETATM    1  C   UNK N   1      35.220  13.666  10.300  0.00  0.00     0.055 A 
HETATM    2  N   UNK N   1      34.482  13.201  11.323  0.00  0.00    -0.355 N 
ATOM      3  HN  UNK N   1      33.465  13.125  11.301  1.00  0.00     0.166 HD
HETATM    4  C   UNK N   1      35.249  12.837  12.398  0.00  0.00     0.041 A 
HETATM    5  C   UNK N   1      36.637  13.015  12.256  0.00  0.00     0.078 A 
HETATM    6  S   UNK N   1      36.816  13.645  10.729  0.00  0.00    -0.086 SA
ENDROOT
BRANCH   1   7
HETATM    7  C   UNK N   1      34.597  14.051   9.008  0.00  0.00     0.046 C 
HETATM    8  C   UNK N   1      35.119  15.448   8.593  0.00  0.00     0.032 C 
HETATM    9  C   UNK N   1      34.273  16.574   9.189  0.00  0.00     0.142 C 
HETATM   10  N   UNK N   1      32.924  16.292   8.786  0.00  0.00    -0.218 N 
HETATM   11  C   UNK N   1      32.599  16.540   7.420  0.00  0.00     0.679 A 
HETATM   12  C   UNK N   1      32.326  15.157   9.445  0.00  0.00     0.142 C 
HETATM   13  N   UNK N   1      33.321  17.448   6.703  0.00  0.00    -0.201 N 
HETATM   14  N   UNK N   1      31.684  15.754   6.786  0.00  0.00    -0.201 N 
HETATM   15  C   UNK N   1      33.152  17.574   5.362  0.00  0.00     0.114 A 
ATOM     16  HN  UNK N   1      33.999  18.040   7.182  1.00  0.00     0.183 HD
HETATM   17  C   UNK N   1      32.245  16.753   4.699  0.00  0.00    -0.027 A 
HETATM   18  C   UNK N   1      31.501  15.840   5.444  0.00  0.00     0.114 A 
ATOM     19  HN  UNK N   1      31.129  15.091   7.327  1.00  0.00     0.183 HD
HETATM   20  C   UNK N   1      33.060  13.899   8.966  0.00  0.00     0.032 C 
BRANCH  17  21
HETATM   21  C   UNK N   1      32.122  16.811   3.215  0.00  0.00     0.037 C 
HETATM   22  C   UNK N   1      30.709  16.494   2.768  0.00  0.00     0.010 C 
ENDBRANCH  17  21
ENDBRANCH   1   7
BRANCH   4  23
HETATM   23  C   UNK N   1      34.627  12.162  13.550  0.00  0.00     0.233 C 
BRANCH  23  24
HETATM   24  O   UNK N   1      34.958  12.902  14.664  0.00  0.00    -0.345 OA
BRANCH  24  25
HETATM   25  C   UNK N   1      34.960  12.395  15.913  0.00  0.00     0.069 A 
HETATM   26  C   UNK N   1      35.026  13.268  17.003  0.00  0.00     0.039 A 
HETATM   27  C   UNK N   1      35.128  12.761  18.301  0.00  0.00     0.034 A 
HETATM   28  C   UNK N   1      35.157  11.375  18.513  0.00  0.00     0.055 A 
HETATM   29  C   UNK N   1      35.031  10.504  17.425  0.00  0.00     0.034 A 
HETATM   30  C   UNK N   1      34.929  11.010  16.133  0.00  0.00     0.039 A 
BRANCH  28  31
HETATM   31  N   UNK N   1      35.435  10.846  19.813  0.00  0.00    -0.236 N 
HETATM   32  C   UNK N   1      36.604  10.860  20.474  0.00  0.00     0.218 A 
HETATM   33  N   UNK N   1      36.457  10.158  21.615  0.00  0.00    -0.280 N 
HETATM   34  N   UNK N   1      35.204   9.723  21.626  0.00  0.00    -0.007 NA
ATOM     35  HN  UNK N   1      37.168   9.993  22.327  1.00  0.00     0.184 HD
HETATM   36  N   UNK N   1      34.585  10.137  20.534  0.00  0.00    -0.000 NA
ENDBRANCH  28  31
ENDBRANCH  24  25
ENDBRANCH  23  24
ENDBRANCH   4  23
TORSDOF 6
ENDMDL
MODEL 9
REMARK VINA RESULT:      -7.7      5.470     13.161
REMARK  6 active torsions:
REMARK  status: ('A' for Active; 'I' for Inactive)
REMARK    1  A    between atoms: C_2  and  C_3 
REMARK       I    between atoms: C_7  and  N_11 
REMARK    2  A    between atoms: C_14  and  C_17 
REMARK    3  A    between atoms: C_20  and  C_23 
REMARK    4  A    between atoms: C_23  and  O_24 
REMARK    5  A    between atoms: O_24  and  C_25 
REMARK    6  A    between atoms: C_28  and  N_31 
ROOT
HETATM    1  C   UNK N   1      33.425  15.786   9.065  0.00  0.00     0.055 A 
HETATM    2  N   UNK N   1      33.505  14.708   9.865  0.00  0.00    -0.355 N 
ATOM      3  HN  UNK N   1      32.886  13.901   9.794  1.00  0.00     0.166 HD
HETATM    4  C   UNK N   1      34.514  14.815  10.786  0.00  0.00     0.041 A 
HETATM    5  C   UNK N   1      35.265  16.003  10.745  0.00  0.00     0.078 A 
HETATM    6  S   UNK N   1      34.586  16.877   9.505  0.00  0.00    -0.086 SA
ENDROOT
BRANCH   1   7
HETATM    7  C   UNK N   1      32.447  15.850   7.949  0.00  0.00     0.046 C 
HETATM    8  C   UNK N   1      32.625  14.603   7.050  0.00  0.00     0.032 C 
HETATM    9  C   UNK N   1      33.681  14.826   5.967  0.00  0.00     0.142 C 
HETATM   10  N   UNK N   1      33.270  16.014   5.272  0.00  0.00    -0.218 N 
HETATM   11  C   UNK N   1      32.152  15.889   4.397  0.00  0.00     0.679 A 
HETATM   12  C   UNK N   1      33.426  17.234   6.026  0.00  0.00     0.142 C 
HETATM   13  N   UNK N   1      31.841  14.675   3.859  0.00  0.00    -0.201 N 
HETATM   14  N   UNK N   1      31.298  16.938   4.232  0.00  0.00    -0.201 N 
HETATM   15  C   UNK N   1      30.687  14.490   3.170  0.00  0.00     0.114 A 
ATOM     16  HN  UNK N   1      32.486  13.894   3.977  1.00  0.00     0.183 HD
HETATM   17  C   UNK N   1      29.791  15.546   3.024  0.00  0.00    -0.027 A 
HETATM   18  C   UNK N   1      30.126  16.786   3.565  0.00  0.00     0.114 A 
ATOM     19  HN  UNK N   1      31.542  17.851   4.616  1.00  0.00     0.183 HD
HETATM   20  C   UNK N   1      32.428  17.195   7.188  0.00  0.00     0.032 C 
BRANCH  17  21
HETATM   21  C   UNK N   1      28.476  15.330   2.358  0.00  0.00     0.037 C 
HETATM   22  C   UNK N   1      27.398  14.991   3.369  0.00  0.00     0.010 C 
ENDBRANCH  17  21
ENDBRANCH   1   7
BRANCH   4  23
HETATM   23  C   UNK N   1      34.850  13.666  11.645  0.00  0.00     0.233 C 
BRANCH  23  24
HETATM   24  O   UNK N   1      35.791  14.113  12.548  0.00  0.00    -0.345 OA
BRANCH  24  25
HETATM   25  C   UNK N   1      35.791  13.761  13.849  0.00  0.00     0.069 A 
HETATM   26  C   UNK N   1      34.867  12.814  14.299  0.00  0.00     0.039 A 
HETATM   27  C   UNK N   1      34.785  12.507  15.659  0.00  0.00     0.034 A 
HETATM   28  C   UNK N   1      35.634  13.144  16.575  0.00  0.00     0.055 A 
HETATM   29  C   UNK N   1      36.598  14.048  16.114  0.00  0.00     0.034 A 
HETATM   30  C   UNK N   1      36.680  14.352  14.759  0.00  0.00     0.039 A 
BRANCH  28  31
HETATM   31  N   UNK N   1      35.444  12.970  17.982  0.00  0.00    -0.236 N 
HETATM   32  C   UNK N   1      35.322  11.816  18.659  0.00  0.00     0.218 A 
HETATM   33  N   UNK N   1      35.045  12.105  19.947  0.00  0.00    -0.280 N 
HETATM   34  N   UNK N   1      34.997  13.428  20.030  0.00  0.00    -0.007 NA
ATOM     35  HN  UNK N   1      34.901  11.439  20.705  1.00  0.00     0.184 HD
HETATM   36  N   UNK N   1      35.236  13.953  18.840  0.00  0.00    -0.000 NA
ENDBRANCH  28  31
ENDBRANCH  24  25
ENDBRANCH  23  24
ENDBRANCH   4  23
TORSDOF 6
ENDMDL
