REMARK  6 active torsions:
REMARK  status: ('A' for Active; 'I' for Inactive)
REMARK    1  A    between atoms: C_19  and  C_12 
REMARK    2  A    between atoms: C_23  and  C_12 
REMARK    3  A    between atoms: C_22  and  C_16 
REMARK    4  A    between atoms: N_30  and  C_16 
REMARK    5  A    between atoms: S_35  and  C_25 
REMARK    6  A    between atoms: S_35  and  N_31 
ROOT
HETATM    1  C   UNK N   1      -1.133  -1.212  -0.620  0.00  0.00     0.024 C 
HETATM    2  C   UNK N   1      -0.076  -2.089  -0.404  0.00  0.00     0.027 C 
HETATM    3  C   UNK N   1       0.245   0.606   0.129  0.00  0.00     0.008 C 
HETATM    4  C   UNK N   1      -2.086   0.999  -0.193  0.00  0.00     0.099 C 
HETATM    5  C   UNK N   1       1.968  -0.060  -1.237  0.00  0.00     0.122 C 
HETATM    6  C   UNK N   1       3.416  -1.768   0.865  0.00  0.00     0.144 C 
HETATM    7  C   UNK N   1      -0.988   0.119  -0.226  0.00  0.00     0.041 C 
HETATM    8  C   UNK N   1       1.313  -0.248   0.073  0.00  0.00     0.073 C 
HETATM    9  C   UNK N   1       4.052  -1.101  -0.333  0.00  0.00     0.096 C 
HETATM   10  C   UNK N   1       1.115  -1.612   0.146  0.00  0.00     0.016 C 
HETATM   11  N   UNK N   1      -2.950   1.759  -0.151  0.00  0.00    -0.191 NA
HETATM   12  N   UNK N   1       2.248  -2.435   0.456  0.00  0.00    -0.376 N 
HETATM   13  N   UNK N   1       3.397  -0.084  -1.177  0.00  0.00    -0.199 NA
ENDROOT
BRANCH  12  14
HETATM   14  C   UNK N   1       2.366  -3.873   0.378  0.00  0.00     0.181 C 
BRANCH  14  15
HETATM   15  C   UNK N   1       1.080  -4.539   0.307  0.00  0.00     0.043 A 
HETATM   16  C   UNK N   1       0.669  -5.352  -0.704  0.00  0.00     0.115 A 
HETATM   17  N   UNK N   1      -0.640  -5.583  -0.519  0.00  0.00    -0.360 N 
HETATM   18  C   UNK N   1      -0.988  -4.899   0.593  0.00  0.00     0.180 A 
ATOM     19  HN  UNK N   1      -1.249  -6.159  -1.101  1.00  0.00     0.166 HD
HETATM   20  N   UNK N   1       0.062  -4.259   1.130  0.00  0.00    -0.353 N 
HETATM   21  H   UNK N   1       0.079  -3.708   1.946  0.00  0.00     0.166 HD
ENDBRANCH  14  15
ENDBRANCH  12  14
BRANCH  13  22
HETATM   22  S   UNK N   1       3.873   1.562  -0.797  0.00  0.00     0.250 S 
HETATM   23  O   UNK N   1       3.449   1.361   0.662  0.00  0.00    -0.205 OA
HETATM   24  O   UNK N   1       2.693   2.526  -0.951  0.00  0.00    -0.205 OA
BRANCH  22  25
HETATM   25  C   UNK N   1       5.290   2.208  -0.078  0.00  0.00     0.115 A 
HETATM   26  C   UNK N   1       5.263   3.468   0.472  0.00  0.00     0.033 A 
HETATM   27  C   UNK N   1       6.546   4.020   0.610  0.00  0.00     0.009 A 
HETATM   28  C   UNK N   1       7.573   3.190   0.136  0.00  0.00     0.051 A 
HETATM   29  S   UNK N   1       6.841   1.813  -0.417  0.00  0.00    -0.089 SA
ENDBRANCH  22  25
ENDBRANCH  13  22
BRANCH   9  30
HETATM   30  C   UNK N   1       5.458  -1.273  -0.713  0.00  0.00     0.061 C 
BRANCH  30  31
HETATM   31  C   UNK N   1       6.060  -2.471  -0.161  0.00  0.00    -0.057 A 
HETATM   32  C   UNK N   1       7.435  -2.494  -0.159  0.00  0.00     0.007 A 
HETATM   33  C   UNK N   1       8.087  -3.713  -0.129  0.00  0.00     0.001 A 
HETATM   34  C   UNK N   1       7.350  -4.903  -0.109  0.00  0.00     0.000 A 
HETATM   35  C   UNK N   1       5.959  -4.873  -0.036  0.00  0.00     0.001 A 
HETATM   36  C   UNK N   1       5.317  -3.655  -0.091  0.00  0.00     0.007 A 
ENDBRANCH  30  31
ENDBRANCH   9  30
TORSDOF 6
