MODEL 1
REMARK VINA RESULT:      -8.5      0.000      0.000
REMARK  6 active torsions:
REMARK  status: ('A' for Active; 'I' for Inactive)
REMARK    1  A    between atoms: C_5  and  O_7 
REMARK    2  A    between atoms: O_7  and  C_8 
REMARK    3  A    between atoms: C_8  and  C_9 
REMARK    4  A    between atoms: C_12  and  C_15 
REMARK    5  A    between atoms: C_15  and  N_16 
REMARK    6  A    between atoms: C_26  and  N_23 
ROOT
HETATM    1  C   UNK N   1      25.702  20.686   2.829  0.00  0.00     0.004 A 
HETATM    2  C   UNK N   1      24.306  20.702   2.982  0.00  0.00     0.018 A 
HETATM    3  C   UNK N   1      23.700  19.592   3.565  0.00  0.00     0.042 A 
HETATM    4  C   UNK N   1      24.423  18.507   3.994  0.00  0.00     0.009 A 
HETATM    5  C   UNK N   1      25.825  18.470   3.864  0.00  0.00     0.078 A 
HETATM    6  C   UNK N   1      26.456  19.575   3.263  0.00  0.00     0.037 A 
HETATM    7  C   UNK N   1      23.499  17.456   4.559  0.00  0.00     0.169 A 
HETATM    8  N   UNK N   1      22.194  18.076   4.375  0.00  0.00    -0.330 N 
HETATM    9  C   UNK N   1      22.318  19.301   3.821  0.00  0.00     0.255 A 
HETATM   10  O   UNK N   1      21.376  20.033   3.556  0.00  0.00    -0.267 OA
ENDROOT
BRANCH   5  11
HETATM   11  O   UNK N   1      26.581  17.431   4.306  0.00  0.00    -0.346 OA
BRANCH  11  12
HETATM   12  C   UNK N   1      27.893  17.248   3.924  0.00  0.00     0.214 C 
BRANCH  12  13
HETATM   13  C   UNK N   1      28.821  17.131   5.080  0.00  0.00    -0.034 A 
HETATM   14  C   UNK N   1      29.814  16.142   5.084  0.00  0.00     0.010 A 
HETATM   15  C   UNK N   1      30.615  15.958   6.218  0.00  0.00     0.009 A 
HETATM   16  C   UNK N   1      30.415  16.752   7.354  0.00  0.00    -0.030 A 
HETATM   17  C   UNK N   1      29.420  17.743   7.336  0.00  0.00     0.009 A 
HETATM   18  C   UNK N   1      28.627  17.929   6.206  0.00  0.00     0.010 A 
BRANCH  16  19
HETATM   19  C   UNK N   1      31.246  16.515   8.586  0.00  0.00     0.311 C 
BRANCH  19  20
HETATM   20  N   UNK N   1      32.661  16.750   8.321  0.00  0.00     0.096 N 
HETATM   21  C   UNK N   1      32.944  18.180   8.410  0.00  0.00     0.299 C 
HETATM   22  C   UNK N   1      34.448  18.387   8.198  0.00  0.00     0.198 C 
HETATM   23  O   UNK N   1      35.164  17.720   9.212  0.00  0.00    -0.388 OA
HETATM   24  C   UNK N   1      34.938  16.340   9.047  0.00  0.00     0.198 C 
HETATM   25  C   UNK N   1      33.465  16.036   9.314  0.00  0.00     0.299 C 
ENDBRANCH  19  20
ENDBRANCH  16  19
ENDBRANCH  12  13
ENDBRANCH  11  12
ENDBRANCH   5  11
BRANCH   8  26
HETATM   26  C   UNK N   1      20.915  17.446   4.689  0.00  0.00     0.180 C 
HETATM   27  C   UNK N   1      20.998  16.571   5.929  0.00  0.00     0.044 C 
HETATM   28  C   UNK N   1      19.589  16.118   6.321  0.00  0.00     0.106 C 
HETATM   29  C   UNK N   1      18.794  15.614   5.137  0.00  0.00     0.224 C 
HETATM   30  O   UNK N   1      17.778  14.970   5.334  0.00  0.00    -0.273 OA
HETATM   31  N   UNK N   1      19.201  15.847   3.861  0.00  0.00    -0.296 N 
HETATM   32  C   UNK N   1      20.261  16.642   3.573  0.00  0.00     0.247 C 
HETATM   33  H   UNK N   1      18.710  15.423   3.120  0.00  0.00     0.171 HD
HETATM   34  O   UNK N   1      20.638  16.732   2.416  0.00  0.00    -0.271 OA
ENDBRANCH   8  26
TORSDOF 6
ENDMDL
MODEL 2
REMARK VINA RESULT:      -8.4      2.479      4.137
REMARK  6 active torsions:
REMARK  status: ('A' for Active; 'I' for Inactive)
REMARK    1  A    between atoms: C_5  and  O_7 
REMARK    2  A    between atoms: O_7  and  C_8 
REMARK    3  A    between atoms: C_8  and  C_9 
REMARK    4  A    between atoms: C_12  and  C_15 
REMARK    5  A    between atoms: C_15  and  N_16 
REMARK    6  A    between atoms: C_26  and  N_23 
ROOT
HETATM    1  C   UNK N   1      20.637  19.822   1.700  0.00  0.00     0.004 A 
HETATM    2  C   UNK N   1      20.043  18.803   2.463  0.00  0.00     0.018 A 
HETATM    3  C   UNK N   1      20.731  18.340   3.582  0.00  0.00     0.042 A 
HETATM    4  C   UNK N   1      21.948  18.854   3.956  0.00  0.00     0.009 A 
HETATM    5  C   UNK N   1      22.559  19.884   3.216  0.00  0.00     0.078 A 
HETATM    6  C   UNK N   1      21.889  20.356   2.072  0.00  0.00     0.037 A 
HETATM    7  C   UNK N   1      22.456  18.145   5.187  0.00  0.00     0.169 A 
HETATM    8  N   UNK N   1      21.396  17.176   5.433  0.00  0.00    -0.330 N 
HETATM    9  C   UNK N   1      20.407  17.305   4.522  0.00  0.00     0.255 A 
HETATM   10  O   UNK N   1      19.401  16.611   4.499  0.00  0.00    -0.267 OA
ENDROOT
BRANCH   5  11
HETATM   11  O   UNK N   1      23.746  20.444   3.570  0.00  0.00    -0.346 OA
BRANCH  11  12
HETATM   12  C   UNK N   1      24.879  20.346   2.790  0.00  0.00     0.214 C 
BRANCH  12  13
HETATM   13  C   UNK N   1      25.950  19.535   3.427  0.00  0.00    -0.034 A 
HETATM   14  C   UNK N   1      25.840  18.139   3.471  0.00  0.00     0.010 A 
HETATM   15  C   UNK N   1      26.791  17.382   4.168  0.00  0.00     0.009 A 
HETATM   16  C   UNK N   1      27.846  18.020   4.831  0.00  0.00    -0.030 A 
HETATM   17  C   UNK N   1      27.948  19.420   4.775  0.00  0.00     0.009 A 
HETATM   18  C   UNK N   1      27.005  20.172   4.078  0.00  0.00     0.010 A 
BRANCH  16  19
HETATM   19  C   UNK N   1      28.835  17.205   5.618  0.00  0.00     0.311 C 
BRANCH  19  20
HETATM   20  N   UNK N   1      29.078  17.793   6.930  0.00  0.00     0.096 N 
HETATM   21  C   UNK N   1      28.041  17.355   7.861  0.00  0.00     0.299 C 
HETATM   22  C   UNK N   1      28.363  17.931   9.245  0.00  0.00     0.198 C 
HETATM   23  O   UNK N   1      29.605  17.433   9.686  0.00  0.00    -0.388 OA
HETATM   24  C   UNK N   1      30.592  17.939   8.819  0.00  0.00     0.198 C 
HETATM   25  C   UNK N   1      30.385  17.353   7.423  0.00  0.00     0.299 C 
ENDBRANCH  19  20
ENDBRANCH  16  19
ENDBRANCH  12  13
ENDBRANCH  11  12
ENDBRANCH   5  11
BRANCH   8  26
HETATM   26  C   UNK N   1      21.413  16.163   6.484  0.00  0.00     0.180 C 
HETATM   27  C   UNK N   1      20.876  14.827   5.998  0.00  0.00     0.044 C 
HETATM   28  C   UNK N   1      21.120  13.766   7.075  0.00  0.00     0.106 C 
HETATM   29  C   UNK N   1      20.724  14.242   8.455  0.00  0.00     0.224 C 
HETATM   30  O   UNK N   1      20.597  13.426   9.352  0.00  0.00    -0.273 OA
HETATM   31  N   UNK N   1      20.485  15.556   8.709  0.00  0.00    -0.296 N 
HETATM   32  C   UNK N   1      20.709  16.523   7.786  0.00  0.00     0.247 C 
HETATM   33  H   UNK N   1      20.139  15.814   9.593  0.00  0.00     0.171 HD
HETATM   34  O   UNK N   1      20.383  17.671   8.039  0.00  0.00    -0.271 OA
ENDBRANCH   8  26
TORSDOF 6
ENDMDL
MODEL 3
REMARK VINA RESULT:      -8.2      4.148      6.015
REMARK  6 active torsions:
REMARK  status: ('A' for Active; 'I' for Inactive)
REMARK    1  A    between atoms: C_5  and  O_7 
REMARK    2  A    between atoms: O_7  and  C_8 
REMARK    3  A    between atoms: C_8  and  C_9 
REMARK    4  A    between atoms: C_12  and  C_15 
REMARK    5  A    between atoms: C_15  and  N_16 
REMARK    6  A    between atoms: C_26  and  N_23 
ROOT
HETATM    1  C   UNK N   1      26.092  20.437   3.116  0.00  0.00     0.004 A 
HETATM    2  C   UNK N   1      24.689  20.487   3.079  0.00  0.00     0.018 A 
HETATM    3  C   UNK N   1      23.982  19.506   3.770  0.00  0.00     0.042 A 
HETATM    4  C   UNK N   1      24.613  18.516   4.481  0.00  0.00     0.009 A 
HETATM    5  C   UNK N   1      26.018  18.450   4.545  0.00  0.00     0.078 A 
HETATM    6  C   UNK N   1      26.753  19.422   3.840  0.00  0.00     0.037 A 
HETATM    7  C   UNK N   1      23.595  17.591   5.102  0.00  0.00     0.169 A 
HETATM    8  N   UNK N   1      22.342  18.172   4.637  0.00  0.00    -0.330 N 
HETATM    9  C   UNK N   1      22.571  19.274   3.891  0.00  0.00     0.255 A 
HETATM   10  O   UNK N   1      21.692  19.948   3.375  0.00  0.00    -0.267 OA
ENDROOT
BRANCH   5  11
HETATM   11  O   UNK N   1      26.682  17.507   5.264  0.00  0.00    -0.346 OA
BRANCH  11  12
HETATM   12  C   UNK N   1      26.973  16.255   4.763  0.00  0.00     0.214 C 
BRANCH  12  13
HETATM   13  C   UNK N   1      26.272  15.164   5.490  0.00  0.00    -0.034 A 
HETATM   14  C   UNK N   1      25.775  14.059   4.787  0.00  0.00     0.010 A 
HETATM   15  C   UNK N   1      25.018  13.087   5.452  0.00  0.00     0.009 A 
HETATM   16  C   UNK N   1      24.746  13.224   6.818  0.00  0.00    -0.030 A 
HETATM   17  C   UNK N   1      25.254  14.334   7.514  0.00  0.00     0.009 A 
HETATM   18  C   UNK N   1      26.011  15.298   6.853  0.00  0.00     0.010 A 
BRANCH  16  19
HETATM   19  C   UNK N   1      23.891  12.201   7.515  0.00  0.00     0.311 C 
BRANCH  19  20
HETATM   20  N   UNK N   1      23.319  12.740   8.744  0.00  0.00     0.096 N 
HETATM   21  C   UNK N   1      21.890  12.977   8.555  0.00  0.00     0.299 C 
HETATM   22  C   UNK N   1      21.305  13.474   9.882  0.00  0.00     0.198 C 
HETATM   23  O   UNK N   1      21.473  12.486  10.872  0.00  0.00    -0.388 OA
HETATM   24  C   UNK N   1      22.856  12.342  11.091  0.00  0.00     0.198 C 
HETATM   25  C   UNK N   1      23.510  11.777   9.830  0.00  0.00     0.299 C 
ENDBRANCH  19  20
ENDBRANCH  16  19
ENDBRANCH  12  13
ENDBRANCH  11  12
ENDBRANCH   5  11
BRANCH   8  26
HETATM   26  C   UNK N   1      21.016  17.617   4.891  0.00  0.00     0.180 C 
HETATM   27  C   UNK N   1      20.988  16.750   6.140  0.00  0.00     0.044 C 
HETATM   28  C   UNK N   1      19.538  16.380   6.462  0.00  0.00     0.106 C 
HETATM   29  C   UNK N   1      18.777  15.909   5.243  0.00  0.00     0.224 C 
HETATM   30  O   UNK N   1      17.718  15.323   5.392  0.00  0.00    -0.273 OA
HETATM   31  N   UNK N   1      19.260  16.106   3.987  0.00  0.00    -0.296 N 
HETATM   32  C   UNK N   1      20.376  16.839   3.748  0.00  0.00     0.247 C 
HETATM   33  H   UNK N   1      18.784  15.702   3.226  0.00  0.00     0.171 HD
HETATM   34  O   UNK N   1      20.815  16.897   2.612  0.00  0.00    -0.271 OA
ENDBRANCH   8  26
TORSDOF 6
ENDMDL
MODEL 4
REMARK VINA RESULT:      -8.0      2.568     11.426
REMARK  6 active torsions:
REMARK  status: ('A' for Active; 'I' for Inactive)
REMARK    1  A    between atoms: C_5  and  O_7 
REMARK    2  A    between atoms: O_7  and  C_8 
REMARK    3  A    between atoms: C_8  and  C_9 
REMARK    4  A    between atoms: C_12  and  C_15 
REMARK    5  A    between atoms: C_15  and  N_16 
REMARK    6  A    between atoms: C_26  and  N_23 
ROOT
HETATM    1  C   UNK N   1      31.929  17.195   3.434  0.00  0.00     0.004 A 
HETATM    2  C   UNK N   1      33.097  16.766   4.085  0.00  0.00     0.018 A 
HETATM    3  C   UNK N   1      33.039  16.558   5.460  0.00  0.00     0.042 A 
HETATM    4  C   UNK N   1      31.886  16.748   6.180  0.00  0.00     0.009 A 
HETATM    5  C   UNK N   1      30.697  17.165   5.550  0.00  0.00     0.078 A 
HETATM    6  C   UNK N   1      30.737  17.397   4.162  0.00  0.00     0.037 A 
HETATM    7  C   UNK N   1      32.132  16.468   7.642  0.00  0.00     0.169 A 
HETATM    8  N   UNK N   1      33.547  16.123   7.646  0.00  0.00    -0.330 N 
HETATM    9  C   UNK N   1      34.054  16.162   6.395  0.00  0.00     0.255 A 
HETATM   10  O   UNK N   1      35.220  15.919   6.119  0.00  0.00    -0.267 OA
ENDROOT
BRANCH   5  11
HETATM   11  O   UNK N   1      29.526  17.333   6.219  0.00  0.00    -0.346 OA
BRANCH  11  12
HETATM   12  C   UNK N   1      28.571  18.249   5.832  0.00  0.00     0.214 C 
BRANCH  12  13
HETATM   13  C   UNK N   1      27.245  17.626   5.574  0.00  0.00    -0.034 A 
HETATM   14  C   UNK N   1      26.271  18.327   4.851  0.00  0.00     0.010 A 
HETATM   15  C   UNK N   1      24.986  17.789   4.702  0.00  0.00     0.009 A 
HETATM   16  C   UNK N   1      24.670  16.558   5.287  0.00  0.00    -0.030 A 
HETATM   17  C   UNK N   1      25.656  15.862   6.006  0.00  0.00     0.009 A 
HETATM   18  C   UNK N   1      26.936  16.395   6.149  0.00  0.00     0.010 A 
BRANCH  16  19
HETATM   19  C   UNK N   1      23.274  16.010   5.166  0.00  0.00     0.311 C 
BRANCH  19  20
HETATM   20  N   UNK N   1      22.519  16.210   6.399  0.00  0.00     0.096 N 
HETATM   21  C   UNK N   1      21.327  17.004   6.118  0.00  0.00     0.299 C 
HETATM   22  C   UNK N   1      20.520  17.136   7.415  0.00  0.00     0.198 C 
HETATM   23  O   UNK N   1      20.120  15.858   7.854  0.00  0.00    -0.388 OA
HETATM   24  C   UNK N   1      21.286  15.147   8.196  0.00  0.00     0.198 C 
HETATM   25  C   UNK N   1      22.118  14.908   6.936  0.00  0.00     0.299 C 
ENDBRANCH  19  20
ENDBRANCH  16  19
ENDBRANCH  12  13
ENDBRANCH  11  12
ENDBRANCH   5  11
BRANCH   8  26
HETATM   26  C   UNK N   1      34.335  15.829   8.839  0.00  0.00     0.180 C 
HETATM   27  C   UNK N   1      33.561  14.989   9.842  0.00  0.00     0.044 C 
HETATM   28  C   UNK N   1      34.507  14.541  10.959  0.00  0.00     0.106 C 
HETATM   29  C   UNK N   1      35.364  15.674  11.479  0.00  0.00     0.224 C 
HETATM   30  O   UNK N   1      35.951  15.538  12.539  0.00  0.00    -0.273 OA
HETATM   31  N   UNK N   1      35.475  16.847  10.800  0.00  0.00    -0.296 N 
HETATM   32  C   UNK N   1      34.934  17.024   9.569  0.00  0.00     0.247 C 
HETATM   33  H   UNK N   1      35.964  17.593  11.216  0.00  0.00     0.171 HD
HETATM   34  O   UNK N   1      34.982  18.128   9.054  0.00  0.00    -0.271 OA
ENDBRANCH   8  26
TORSDOF 6
ENDMDL
MODEL 5
REMARK VINA RESULT:      -8.0      2.186     11.714
REMARK  6 active torsions:
REMARK  status: ('A' for Active; 'I' for Inactive)
REMARK    1  A    between atoms: C_5  and  O_7 
REMARK    2  A    between atoms: O_7  and  C_8 
REMARK    3  A    between atoms: C_8  and  C_9 
REMARK    4  A    between atoms: C_12  and  C_15 
REMARK    5  A    between atoms: C_15  and  N_16 
REMARK    6  A    between atoms: C_26  and  N_23 
ROOT
HETATM    1  C   UNK N   1      31.958  17.509   4.321  0.00  0.00     0.004 A 
HETATM    2  C   UNK N   1      33.162  17.064   4.891  0.00  0.00     0.018 A 
HETATM    3  C   UNK N   1      33.142  16.649   6.219  0.00  0.00     0.042 A 
HETATM    4  C   UNK N   1      31.992  16.654   6.969  0.00  0.00     0.009 A 
HETATM    5  C   UNK N   1      30.768  17.083   6.418  0.00  0.00     0.078 A 
HETATM    6  C   UNK N   1      30.769  17.522   5.082  0.00  0.00     0.037 A 
HETATM    7  C   UNK N   1      32.281  16.174   8.370  0.00  0.00     0.169 A 
HETATM    8  N   UNK N   1      33.715  15.925   8.310  0.00  0.00    -0.330 N 
HETATM    9  C   UNK N   1      34.196  16.184   7.075  0.00  0.00     0.255 A 
HETATM   10  O   UNK N   1      35.370  16.061   6.756  0.00  0.00    -0.267 OA
ENDROOT
BRANCH   5  11
HETATM   11  O   UNK N   1      29.601  17.072   7.115  0.00  0.00    -0.346 OA
BRANCH  11  12
HETATM   12  C   UNK N   1      28.824  18.199   7.284  0.00  0.00     0.214 C 
BRANCH  12  13
HETATM   13  C   UNK N   1      27.816  18.373   6.205  0.00  0.00    -0.034 A 
HETATM   14  C   UNK N   1      27.448  19.659   5.791  0.00  0.00     0.010 A 
HETATM   15  C   UNK N   1      26.420  19.827   4.854  0.00  0.00     0.009 A 
HETATM   16  C   UNK N   1      25.750  18.710   4.342  0.00  0.00    -0.030 A 
HETATM   17  C   UNK N   1      26.131  17.425   4.761  0.00  0.00     0.009 A 
HETATM   18  C   UNK N   1      27.157  17.258   5.689  0.00  0.00     0.010 A 
BRANCH  16  19
HETATM   19  C   UNK N   1      24.613  18.901   3.374  0.00  0.00     0.311 C 
BRANCH  19  20
HETATM   20  N   UNK N   1      23.325  18.695   4.026  0.00  0.00     0.096 N 
HETATM   21  C   UNK N   1      22.344  19.626   3.474  0.00  0.00     0.299 C 
HETATM   22  C   UNK N   1      20.987  19.337   4.126  0.00  0.00     0.198 C 
HETATM   23  O   UNK N   1      20.585  18.022   3.819  0.00  0.00    -0.388 OA
HETATM   24  C   UNK N   1      21.502  17.148   4.435  0.00  0.00     0.198 C 
HETATM   25  C   UNK N   1      22.876  17.322   3.787  0.00  0.00     0.299 C 
ENDBRANCH  19  20
ENDBRANCH  16  19
ENDBRANCH  12  13
ENDBRANCH  11  12
ENDBRANCH   5  11
BRANCH   8  26
HETATM   26  C   UNK N   1      34.541  15.507   9.439  0.00  0.00     0.180 C 
HETATM   27  C   UNK N   1      33.783  14.602  10.397  0.00  0.00     0.044 C 
HETATM   28  C   UNK N   1      34.760  14.034  11.430  0.00  0.00     0.106 C 
HETATM   29  C   UNK N   1      35.670  15.095  12.010  0.00  0.00     0.224 C 
HETATM   30  O   UNK N   1      36.295  14.851  13.028  0.00  0.00    -0.273 OA
HETATM   31  N   UNK N   1      35.787  16.319  11.431  0.00  0.00    -0.296 N 
HETATM   32  C   UNK N   1      35.203  16.617  10.244  0.00  0.00     0.247 C 
HETATM   33  H   UNK N   1      36.314  17.013  11.889  0.00  0.00     0.171 HD
HETATM   34  O   UNK N   1      35.263  17.761   9.825  0.00  0.00    -0.271 OA
ENDBRANCH   8  26
TORSDOF 6
ENDMDL
MODEL 6
REMARK VINA RESULT:      -7.9      4.765      6.546
REMARK  6 active torsions:
REMARK  status: ('A' for Active; 'I' for Inactive)
REMARK    1  A    between atoms: C_5  and  O_7 
REMARK    2  A    between atoms: O_7  and  C_8 
REMARK    3  A    between atoms: C_8  and  C_9 
REMARK    4  A    between atoms: C_12  and  C_15 
REMARK    5  A    between atoms: C_15  and  N_16 
REMARK    6  A    between atoms: C_26  and  N_23 
ROOT
HETATM    1  C   UNK N   1      30.056  13.023   3.533  0.00  0.00     0.004 A 
HETATM    2  C   UNK N   1      28.902  13.608   4.083  0.00  0.00     0.018 A 
HETATM    3  C   UNK N   1      28.881  14.992   4.234  0.00  0.00     0.042 A 
HETATM    4  C   UNK N   1      29.936  15.785   3.857  0.00  0.00     0.009 A 
HETATM    5  C   UNK N   1      31.098  15.226   3.292  0.00  0.00     0.078 A 
HETATM    6  C   UNK N   1      31.149  13.827   3.144  0.00  0.00     0.037 A 
HETATM    7  C   UNK N   1      29.634  17.231   4.161  0.00  0.00     0.169 A 
HETATM    8  N   UNK N   1      28.310  17.141   4.761  0.00  0.00    -0.330 N 
HETATM    9  C   UNK N   1      27.880  15.861   4.786  0.00  0.00     0.255 A 
HETATM   10  O   UNK N   1      26.803  15.507   5.241  0.00  0.00    -0.267 OA
ENDROOT
BRANCH   5  11
HETATM   11  O   UNK N   1      32.151  15.977   2.874  0.00  0.00    -0.346 OA
BRANCH  11  12
HETATM   12  C   UNK N   1      33.453  15.701   3.234  0.00  0.00     0.214 C 
BRANCH  12  13
HETATM   13  C   UNK N   1      33.781  16.158   4.610  0.00  0.00    -0.034 A 
HETATM   14  C   UNK N   1      34.556  15.349   5.452  0.00  0.00     0.010 A 
HETATM   15  C   UNK N   1      34.772  15.726   6.783  0.00  0.00     0.009 A 
HETATM   16  C   UNK N   1      34.204  16.906   7.279  0.00  0.00    -0.030 A 
HETATM   17  C   UNK N   1      33.433  17.711   6.424  0.00  0.00     0.009 A 
HETATM   18  C   UNK N   1      33.223  17.339   5.099  0.00  0.00     0.010 A 
BRANCH  16  19
HETATM   19  C   UNK N   1      34.399  17.279   8.723  0.00  0.00     0.311 C 
BRANCH  19  20
HETATM   20  N   UNK N   1      34.848  16.134   9.508  0.00  0.00     0.096 N 
HETATM   21  C   UNK N   1      35.479  16.603  10.739  0.00  0.00     0.299 C 
HETATM   22  C   UNK N   1      35.875  15.379  11.573  0.00  0.00     0.198 C 
HETATM   23  O   UNK N   1      34.721  14.642  11.908  0.00  0.00    -0.388 OA
HETATM   24  C   UNK N   1      34.184  14.135  10.709  0.00  0.00     0.198 C 
HETATM   25  C   UNK N   1      33.695  15.297   9.844  0.00  0.00     0.299 C 
ENDBRANCH  19  20
ENDBRANCH  16  19
ENDBRANCH  12  13
ENDBRANCH  11  12
ENDBRANCH   5  11
BRANCH   8  26
HETATM   26  C   UNK N   1      27.562  18.265   5.316  0.00  0.00     0.180 C 
HETATM   27  C   UNK N   1      27.684  19.512   4.456  0.00  0.00     0.044 C 
HETATM   28  C   UNK N   1      26.714  20.577   4.974  0.00  0.00     0.106 C 
HETATM   29  C   UNK N   1      26.775  20.732   6.478  0.00  0.00     0.224 C 
HETATM   30  O   UNK N   1      26.278  21.717   6.996  0.00  0.00    -0.273 OA
HETATM   31  N   UNK N   1      27.393  19.806   7.260  0.00  0.00    -0.296 N 
HETATM   32  C   UNK N   1      27.872  18.641   6.759  0.00  0.00     0.247 C 
HETATM   33  H   UNK N   1      27.495  19.988   8.222  0.00  0.00     0.171 HD
HETATM   34  O   UNK N   1      28.503  17.897   7.491  0.00  0.00    -0.271 OA
ENDBRANCH   8  26
TORSDOF 6
ENDMDL
MODEL 7
REMARK VINA RESULT:      -7.9      9.506     15.636
REMARK  6 active torsions:
REMARK  status: ('A' for Active; 'I' for Inactive)
REMARK    1  A    between atoms: C_5  and  O_7 
REMARK    2  A    between atoms: O_7  and  C_8 
REMARK    3  A    between atoms: C_8  and  C_9 
REMARK    4  A    between atoms: C_12  and  C_15 
REMARK    5  A    between atoms: C_15  and  N_16 
REMARK    6  A    between atoms: C_26  and  N_23 
ROOT
HETATM    1  C   UNK N   1      37.745  10.797  12.746  0.00  0.00     0.004 A 
HETATM    2  C   UNK N   1      37.239  11.391  11.579  0.00  0.00     0.018 A 
HETATM    3  C   UNK N   1      36.515  12.574  11.709  0.00  0.00     0.042 A 
HETATM    4  C   UNK N   1      36.298  13.167  12.928  0.00  0.00     0.009 A 
HETATM    5  C   UNK N   1      36.806  12.599  14.112  0.00  0.00     0.078 A 
HETATM    6  C   UNK N   1      37.526  11.395  14.006  0.00  0.00     0.037 A 
HETATM    7  C   UNK N   1      35.469  14.416  12.759  0.00  0.00     0.169 A 
HETATM    8  N   UNK N   1      35.240  14.431  11.320  0.00  0.00    -0.330 N 
HETATM    9  C   UNK N   1      35.854  13.384  10.726  0.00  0.00     0.255 A 
HETATM   10  O   UNK N   1      35.818  13.159   9.525  0.00  0.00    -0.267 OA
ENDROOT
BRANCH   5  11
HETATM   11  O   UNK N   1      36.643  13.171  15.334  0.00  0.00    -0.346 OA
BRANCH  11  12
HETATM   12  C   UNK N   1      35.439  13.162  16.007  0.00  0.00     0.214 C 
BRANCH  12  13
HETATM   13  C   UNK N   1      35.500  12.412  17.290  0.00  0.00    -0.034 A 
HETATM   14  C   UNK N   1      35.728  11.030  17.284  0.00  0.00     0.010 A 
HETATM   15  C   UNK N   1      35.675  10.305  18.482  0.00  0.00     0.009 A 
HETATM   16  C   UNK N   1      35.382  10.959  19.684  0.00  0.00    -0.030 A 
HETATM   17  C   UNK N   1      35.161  12.346  19.678  0.00  0.00     0.009 A 
HETATM   18  C   UNK N   1      35.218  13.067  18.488  0.00  0.00     0.010 A 
BRANCH  16  19
HETATM   19  C   UNK N   1      35.279  10.166  20.959  0.00  0.00     0.311 C 
BRANCH  19  20
HETATM   20  N   UNK N   1      33.889  10.017  21.375  0.00  0.00     0.096 N 
HETATM   21  C   UNK N   1      33.280   8.904  20.651  0.00  0.00     0.299 C 
HETATM   22  C   UNK N   1      31.845   8.726  21.161  0.00  0.00     0.198 C 
HETATM   23  O   UNK N   1      31.867   8.414  22.535  0.00  0.00    -0.388 OA
HETATM   24  C   UNK N   1      32.380   9.537  23.213  0.00  0.00     0.198 C 
HETATM   25  C   UNK N   1      33.841   9.742  22.812  0.00  0.00     0.299 C 
ENDBRANCH  19  20
ENDBRANCH  16  19
ENDBRANCH  12  13
ENDBRANCH  11  12
ENDBRANCH   5  11
BRANCH   8  26
HETATM   26  C   UNK N   1      34.417  15.406  10.612  0.00  0.00     0.180 C 
HETATM   27  C   UNK N   1      33.662  14.780   9.450  0.00  0.00     0.044 C 
HETATM   28  C   UNK N   1      32.665  15.798   8.891  0.00  0.00     0.106 C 
HETATM   29  C   UNK N   1      33.285  17.165   8.694  0.00  0.00     0.224 C 
HETATM   30  O   UNK N   1      32.705  17.987   8.006  0.00  0.00    -0.273 OA
HETATM   31  N   UNK N   1      34.482  17.486   9.252  0.00  0.00    -0.296 N 
HETATM   32  C   UNK N   1      35.126  16.657  10.110  0.00  0.00     0.247 C 
HETATM   33  H   UNK N   1      34.897  18.349   9.024  0.00  0.00     0.171 HD
HETATM   34  O   UNK N   1      36.243  16.957  10.499  0.00  0.00    -0.271 OA
ENDBRANCH   8  26
TORSDOF 6
ENDMDL
MODEL 8
REMARK VINA RESULT:      -7.9      3.695      6.129
REMARK  6 active torsions:
REMARK  status: ('A' for Active; 'I' for Inactive)
REMARK    1  A    between atoms: C_5  and  O_7 
REMARK    2  A    between atoms: O_7  and  C_8 
REMARK    3  A    between atoms: C_8  and  C_9 
REMARK    4  A    between atoms: C_12  and  C_15 
REMARK    5  A    between atoms: C_15  and  N_16 
REMARK    6  A    between atoms: C_26  and  N_23 
ROOT
HETATM    1  C   UNK N   1      21.048  14.245   9.472  0.00  0.00     0.004 A 
HETATM    2  C   UNK N   1      20.680  15.535   9.057  0.00  0.00     0.018 A 
HETATM    3  C   UNK N   1      21.108  15.965   7.804  0.00  0.00     0.042 A 
HETATM    4  C   UNK N   1      21.859  15.169   6.975  0.00  0.00     0.009 A 
HETATM    5  C   UNK N   1      22.231  13.866   7.361  0.00  0.00     0.078 A 
HETATM    6  C   UNK N   1      21.823  13.417   8.631  0.00  0.00     0.037 A 
HETATM    7  C   UNK N   1      22.189  15.908   5.702  0.00  0.00     0.169 A 
HETATM    8  N   UNK N   1      21.555  17.199   5.932  0.00  0.00    -0.330 N 
HETATM    9  C   UNK N   1      20.926  17.218   7.128  0.00  0.00     0.255 A 
HETATM   10  O   UNK N   1      20.319  18.183   7.568  0.00  0.00    -0.267 OA
ENDROOT
BRANCH   5  11
HETATM   11  O   UNK N   1      22.944  13.034   6.558  0.00  0.00    -0.346 OA
BRANCH  11  12
HETATM   12  C   UNK N   1      24.223  12.618   6.864  0.00  0.00     0.214 C 
BRANCH  12  13
HETATM   13  C   UNK N   1      25.262  13.600   6.455  0.00  0.00    -0.034 A 
HETATM   14  C   UNK N   1      25.554  14.695   7.279  0.00  0.00     0.010 A 
HETATM   15  C   UNK N   1      26.451  15.680   6.845  0.00  0.00     0.009 A 
HETATM   16  C   UNK N   1      27.047  15.578   5.583  0.00  0.00    -0.030 A 
HETATM   17  C   UNK N   1      26.750  14.473   4.768  0.00  0.00     0.009 A 
HETATM   18  C   UNK N   1      25.862  13.491   5.202  0.00  0.00     0.010 A 
BRANCH  16  19
HETATM   19  C   UNK N   1      27.971  16.664   5.104  0.00  0.00     0.311 C 
BRANCH  19  20
HETATM   20  N   UNK N   1      27.397  17.985   5.337  0.00  0.00     0.096 N 
HETATM   21  C   UNK N   1      28.145  18.662   6.394  0.00  0.00     0.299 C 
HETATM   22  C   UNK N   1      27.565  20.071   6.566  0.00  0.00     0.198 C 
HETATM   23  O   UNK N   1      27.720  20.795   5.367  0.00  0.00    -0.388 OA
HETATM   24  C   UNK N   1      26.923  20.167   4.391  0.00  0.00     0.198 C 
HETATM   25  C   UNK N   1      27.480  18.773   4.106  0.00  0.00     0.299 C 
ENDBRANCH  19  20
ENDBRANCH  16  19
ENDBRANCH  12  13
ENDBRANCH  11  12
ENDBRANCH   5  11
BRANCH   8  26
HETATM   26  C   UNK N   1      21.628  18.342   5.028  0.00  0.00     0.180 C 
HETATM   27  C   UNK N   1      20.722  18.173   3.819  0.00  0.00     0.044 C 
HETATM   28  C   UNK N   1      20.685  19.485   3.031  0.00  0.00     0.106 C 
HETATM   29  C   UNK N   1      22.064  20.072   2.821  0.00  0.00     0.224 C 
HETATM   30  O   UNK N   1      22.217  20.947   1.986  0.00  0.00    -0.273 OA
HETATM   31  N   UNK N   1      23.137  19.629   3.528  0.00  0.00    -0.296 N 
HETATM   32  C   UNK N   1      23.017  18.735   4.541  0.00  0.00     0.247 C 
HETATM   33  H   UNK N   1      24.032  19.968   3.298  0.00  0.00     0.171 HD
HETATM   34  O   UNK N   1      24.026  18.301   5.072  0.00  0.00    -0.271 OA
ENDBRANCH   8  26
TORSDOF 6
ENDMDL
MODEL 9
REMARK VINA RESULT:      -7.9      4.248      6.851
REMARK  6 active torsions:
REMARK  status: ('A' for Active; 'I' for Inactive)
REMARK    1  A    between atoms: C_5  and  O_7 
REMARK    2  A    between atoms: O_7  and  C_8 
REMARK    3  A    between atoms: C_8  and  C_9 
REMARK    4  A    between atoms: C_12  and  C_15 
REMARK    5  A    between atoms: C_15  and  N_16 
REMARK    6  A    between atoms: C_26  and  N_23 
ROOT
HETATM    1  C   UNK N   1      21.135  13.080  10.463  0.00  0.00     0.004 A 
HETATM    2  C   UNK N   1      20.301  13.851   9.635  0.00  0.00     0.018 A 
HETATM    3  C   UNK N   1      20.870  14.456   8.518  0.00  0.00     0.042 A 
HETATM    4  C   UNK N   1      22.199  14.311   8.205  0.00  0.00     0.009 A 
HETATM    5  C   UNK N   1      23.053  13.534   9.010  0.00  0.00     0.078 A 
HETATM    6  C   UNK N   1      22.503  12.926  10.154  0.00  0.00     0.037 A 
HETATM    7  C   UNK N   1      22.529  15.095   6.959  0.00  0.00     0.169 A 
HETATM    8  N   UNK N   1      21.243  15.698   6.636  0.00  0.00    -0.330 N 
HETATM    9  C   UNK N   1      20.297  15.316   7.521  0.00  0.00     0.255 A 
HETATM   10  O   UNK N   1      19.132  15.682   7.482  0.00  0.00    -0.267 OA
ENDROOT
BRANCH   5  11
HETATM   11  O   UNK N   1      24.366  13.337   8.719  0.00  0.00    -0.346 OA
BRANCH  11  12
HETATM   12  C   UNK N   1      24.791  12.797   7.523  0.00  0.00     0.214 C 
BRANCH  12  13
HETATM   13  C   UNK N   1      25.530  13.772   6.679  0.00  0.00    -0.034 A 
HETATM   14  C   UNK N   1      25.964  14.986   7.227  0.00  0.00     0.010 A 
HETATM   15  C   UNK N   1      26.560  15.953   6.407  0.00  0.00     0.009 A 
HETATM   16  C   UNK N   1      26.711  15.713   5.036  0.00  0.00    -0.030 A 
HETATM   17  C   UNK N   1      26.276  14.490   4.499  0.00  0.00     0.009 A 
HETATM   18  C   UNK N   1      25.688  13.527   5.316  0.00  0.00     0.010 A 
BRANCH  16  19
HETATM   19  C   UNK N   1      27.307  16.775   4.153  0.00  0.00     0.311 C 
BRANCH  19  20
HETATM   20  N   UNK N   1      26.646  18.060   4.354  0.00  0.00     0.096 N 
HETATM   21  C   UNK N   1      27.538  19.138   3.936  0.00  0.00     0.299 C 
HETATM   22  C   UNK N   1      26.791  20.468   4.092  0.00  0.00     0.198 C 
HETATM   23  O   UNK N   1      25.654  20.472   3.259  0.00  0.00    -0.388 OA
HETATM   24  C   UNK N   1      24.778  19.479   3.738  0.00  0.00     0.198 C 
HETATM   25  C   UNK N   1      25.423  18.106   3.551  0.00  0.00     0.299 C 
ENDBRANCH  19  20
ENDBRANCH  16  19
ENDBRANCH  12  13
ENDBRANCH  11  12
ENDBRANCH   5  11
BRANCH   8  26
HETATM   26  C   UNK N   1      21.007  16.633   5.540  0.00  0.00     0.180 C 
HETATM   27  C   UNK N   1      21.823  16.285   4.306  0.00  0.00     0.044 C 
HETATM   28  C   UNK N   1      21.371  17.168   3.139  0.00  0.00     0.106 C 
HETATM   29  C   UNK N   1      21.246  18.623   3.531  0.00  0.00     0.224 C 
HETATM   30  O   UNK N   1      21.172  19.471   2.658  0.00  0.00    -0.273 OA
HETATM   31  N   UNK N   1      21.236  19.007   4.836  0.00  0.00    -0.296 N 
HETATM   32  C   UNK N   1      21.210  18.110   5.853  0.00  0.00     0.247 C 
HETATM   33  H   UNK N   1      21.248  19.967   5.049  0.00  0.00     0.171 HD
HETATM   34  O   UNK N   1      21.302  18.513   7.001  0.00  0.00    -0.271 OA
ENDBRANCH   8  26
TORSDOF 6
ENDMDL
