MODEL 1
REMARK VINA RESULT:      -6.8      0.000      0.000
REMARK  2 active torsions:
REMARK  status: ('A' for Active; 'I' for Inactive)
REMARK    1  A    between atoms: C_3  and  C_11 
REMARK    2  A    between atoms: C_4  and  C_5 
ROOT
HETATM    1  O   UNK N   1      27.608  17.388   9.513  0.00  0.00    -0.287 OA
HETATM    2  C   UNK N   1      28.721  17.390   9.014  0.00  0.00     0.196 A 
HETATM    3  C   UNK N   1      28.679  18.179   7.700  0.00  0.00     0.040 A 
HETATM    4  C   UNK N   1      29.775  17.726   7.978  0.00  0.00     0.040 A 
ENDROOT
BRANCH   3   5
HETATM    5  C   UNK N   1      28.094  18.975   6.617  0.00  0.00    -0.021 A 
HETATM    6  C   UNK N   1      28.140  18.490   5.308  0.00  0.00     0.012 A 
HETATM    7  C   UNK N   1      27.586  19.237   4.264  0.00  0.00     0.001 A 
HETATM    8  C   UNK N   1      26.985  20.472   4.530  0.00  0.00     0.000 A 
HETATM    9  C   UNK N   1      26.937  20.958   5.839  0.00  0.00     0.001 A 
HETATM   10  C   UNK N   1      27.490  20.211   6.880  0.00  0.00     0.012 A 
ENDBRANCH   3   5
BRANCH   4  11
HETATM   11  C   UNK N   1      31.166  17.619   7.539  0.00  0.00    -0.021 A 
HETATM   12  C   UNK N   1      31.487  17.125   6.269  0.00  0.00     0.012 A 
HETATM   13  C   UNK N   1      32.823  17.032   5.871  0.00  0.00     0.001 A 
HETATM   14  C   UNK N   1      33.839  17.432   6.744  0.00  0.00     0.000 A 
HETATM   15  C   UNK N   1      33.519  17.925   8.012  0.00  0.00     0.001 A 
HETATM   16  C   UNK N   1      32.183  18.018   8.409  0.00  0.00     0.012 A 
ENDBRANCH   4  11
TORSDOF 2
ENDMDL
MODEL 2
REMARK VINA RESULT:      -6.7      3.034      5.541
REMARK  2 active torsions:
REMARK  status: ('A' for Active; 'I' for Inactive)
REMARK    1  A    between atoms: C_3  and  C_11 
REMARK    2  A    between atoms: C_4  and  C_5 
ROOT
HETATM    1  O   UNK N   1      34.938  18.521   7.893  0.00  0.00    -0.287 OA
HETATM    2  C   UNK N   1      33.735  18.370   8.030  0.00  0.00     0.196 A 
HETATM    3  C   UNK N   1      33.177  17.652   6.795  0.00  0.00     0.040 A 
HETATM    4  C   UNK N   1      32.341  17.920   7.639  0.00  0.00     0.040 A 
ENDROOT
BRANCH   3   5
HETATM    5  C   UNK N   1      33.200  17.002   5.481  0.00  0.00    -0.021 A 
HETATM    6  C   UNK N   1      32.538  17.602   4.408  0.00  0.00     0.012 A 
HETATM    7  C   UNK N   1      32.551  16.993   3.149  0.00  0.00     0.001 A 
HETATM    8  C   UNK N   1      33.228  15.784   2.963  0.00  0.00     0.000 A 
HETATM    9  C   UNK N   1      33.892  15.183   4.036  0.00  0.00     0.001 A 
HETATM   10  C   UNK N   1      33.879  15.791   5.292  0.00  0.00     0.012 A 
ENDBRANCH   3   5
BRANCH   4  11
HETATM   11  C   UNK N   1      30.921  17.832   7.981  0.00  0.00    -0.021 A 
HETATM   12  C   UNK N   1      30.022  17.143   7.158  0.00  0.00     0.012 A 
HETATM   13  C   UNK N   1      28.671  17.071   7.504  0.00  0.00     0.001 A 
HETATM   14  C   UNK N   1      28.217  17.688   8.674  0.00  0.00     0.000 A 
HETATM   15  C   UNK N   1      29.115  18.375   9.496  0.00  0.00     0.001 A 
HETATM   16  C   UNK N   1      30.466  18.447   9.149  0.00  0.00     0.012 A 
ENDBRANCH   4  11
TORSDOF 2
ENDMDL
MODEL 3
REMARK VINA RESULT:      -6.6      0.469      5.347
REMARK  2 active torsions:
REMARK  status: ('A' for Active; 'I' for Inactive)
REMARK    1  A    between atoms: C_3  and  C_11 
REMARK    2  A    between atoms: C_4  and  C_5 
ROOT
HETATM    1  O   UNK N   1      28.407  17.076   9.995  0.00  0.00    -0.287 OA
HETATM    2  C   UNK N   1      28.119  17.713   8.995  0.00  0.00     0.196 A 
HETATM    3  C   UNK N   1      29.362  17.836   8.105  0.00  0.00     0.040 A 
HETATM    4  C   UNK N   1      28.368  18.378   7.656  0.00  0.00     0.040 A 
ENDROOT
BRANCH   3   5
HETATM    5  C   UNK N   1      30.757  17.649   7.695  0.00  0.00    -0.021 A 
HETATM    6  C   UNK N   1      31.784  18.059   8.548  0.00  0.00     0.012 A 
HETATM    7  C   UNK N   1      33.119  17.888   8.170  0.00  0.00     0.001 A 
HETATM    8  C   UNK N   1      33.428  17.305   6.937  0.00  0.00     0.000 A 
HETATM    9  C   UNK N   1      32.402  16.893   6.082  0.00  0.00     0.001 A 
HETATM   10  C   UNK N   1      31.069  17.065   6.460  0.00  0.00     0.012 A 
ENDBRANCH   3   5
BRANCH   4  11
HETATM   11  C   UNK N   1      27.838  19.154   6.535  0.00  0.00    -0.021 A 
HETATM   12  C   UNK N   1      27.245  20.406   6.739  0.00  0.00     0.012 A 
HETATM   13  C   UNK N   1      26.745  21.129   5.654  0.00  0.00     0.001 A 
HETATM   14  C   UNK N   1      26.838  20.602   4.363  0.00  0.00     0.000 A 
HETATM   15  C   UNK N   1      27.430  19.352   4.158  0.00  0.00     0.001 A 
HETATM   16  C   UNK N   1      27.930  18.629   5.244  0.00  0.00     0.012 A 
ENDBRANCH   4  11
TORSDOF 2
ENDMDL
MODEL 4
REMARK VINA RESULT:      -6.3      1.652      5.687
REMARK  2 active torsions:
REMARK  status: ('A' for Active; 'I' for Inactive)
REMARK    1  A    between atoms: C_3  and  C_11 
REMARK    2  A    between atoms: C_4  and  C_5 
ROOT
HETATM    1  O   UNK N   1      29.397  14.587   5.474  0.00  0.00    -0.287 OA
HETATM    2  C   UNK N   1      28.946  15.721   5.487  0.00  0.00     0.196 A 
HETATM    3  C   UNK N   1      30.029  16.684   5.989  0.00  0.00     0.040 A 
HETATM    4  C   UNK N   1      28.971  17.219   5.713  0.00  0.00     0.040 A 
ENDROOT
BRANCH   3   5
HETATM    5  C   UNK N   1      31.342  17.103   6.488  0.00  0.00    -0.021 A 
HETATM    6  C   UNK N   1      31.476  17.489   7.824  0.00  0.00     0.012 A 
HETATM    7  C   UNK N   1      32.722  17.892   8.314  0.00  0.00     0.001 A 
HETATM    8  C   UNK N   1      33.836  17.909   7.468  0.00  0.00     0.000 A 
HETATM    9  C   UNK N   1      33.704  17.522   6.132  0.00  0.00     0.001 A 
HETATM   10  C   UNK N   1      32.459  17.120   5.643  0.00  0.00     0.012 A 
ENDBRANCH   3   5
BRANCH   4  11
HETATM   11  C   UNK N   1      28.259  18.496   5.660  0.00  0.00    -0.021 A 
HETATM   12  C   UNK N   1      27.975  19.213   6.829  0.00  0.00     0.012 A 
HETATM   13  C   UNK N   1      27.295  20.431   6.755  0.00  0.00     0.001 A 
HETATM   14  C   UNK N   1      26.897  20.933   5.513  0.00  0.00     0.000 A 
HETATM   15  C   UNK N   1      27.180  20.217   4.346  0.00  0.00     0.001 A 
HETATM   16  C   UNK N   1      27.861  19.000   4.420  0.00  0.00     0.012 A 
ENDBRANCH   4  11
TORSDOF 2
ENDMDL
MODEL 5
REMARK VINA RESULT:      -6.2      1.584      2.426
REMARK  2 active torsions:
REMARK  status: ('A' for Active; 'I' for Inactive)
REMARK    1  A    between atoms: C_3  and  C_11 
REMARK    2  A    between atoms: C_4  and  C_5 
ROOT
HETATM    1  O   UNK N   1      28.021  15.128   5.293  0.00  0.00    -0.287 OA
HETATM    2  C   UNK N   1      29.069  15.614   5.684  0.00  0.00     0.196 A 
HETATM    3  C   UNK N   1      28.917  17.138   5.755  0.00  0.00     0.040 A 
HETATM    4  C   UNK N   1      30.014  16.728   6.090  0.00  0.00     0.040 A 
ENDROOT
BRANCH   3   5
HETATM    5  C   UNK N   1      28.253  18.440   5.636  0.00  0.00    -0.021 A 
HETATM    6  C   UNK N   1      27.997  19.187   6.788  0.00  0.00     0.012 A 
HETATM    7  C   UNK N   1      27.365  20.430   6.691  0.00  0.00     0.001 A 
HETATM    8  C   UNK N   1      26.987  20.927   5.439  0.00  0.00     0.000 A 
HETATM    9  C   UNK N   1      27.242  20.182   4.285  0.00  0.00     0.001 A 
HETATM   10  C   UNK N   1      27.874  18.940   4.383  0.00  0.00     0.012 A 
ENDBRANCH   3   5
BRANCH   4  11
HETATM   11  C   UNK N   1      31.340  17.122   6.566  0.00  0.00    -0.021 A 
HETATM   12  C   UNK N   1      31.546  17.495   7.900  0.00  0.00     0.012 A 
HETATM   13  C   UNK N   1      32.821  17.867   8.333  0.00  0.00     0.001 A 
HETATM   14  C   UNK N   1      33.890  17.868   7.433  0.00  0.00     0.000 A 
HETATM   15  C   UNK N   1      33.684  17.496   6.101  0.00  0.00     0.001 A 
HETATM   16  C   UNK N   1      32.410  17.123   5.669  0.00  0.00     0.012 A 
ENDBRANCH   4  11
TORSDOF 2
ENDMDL
MODEL 6
REMARK VINA RESULT:      -6.1     10.747     12.888
REMARK  2 active torsions:
REMARK  status: ('A' for Active; 'I' for Inactive)
REMARK    1  A    between atoms: C_3  and  C_11 
REMARK    2  A    between atoms: C_4  and  C_5 
ROOT
HETATM    1  O   UNK N   1      30.560  23.054  -1.456  0.00  0.00    -0.287 OA
HETATM    2  C   UNK N   1      30.450  22.550  -2.562  0.00  0.00     0.196 A 
HETATM    3  C   UNK N   1      29.493  23.400  -3.406  0.00  0.00     0.040 A 
HETATM    4  C   UNK N   1      29.940  22.425  -3.983  0.00  0.00     0.040 A 
ENDROOT
BRANCH   3   5
HETATM    5  C   UNK N   1      28.580  24.504  -3.719  0.00  0.00    -0.021 A 
HETATM    6  C   UNK N   1      29.104  25.731  -4.130  0.00  0.00     0.012 A 
HETATM    7  C   UNK N   1      28.245  26.793  -4.433  0.00  0.00     0.001 A 
HETATM    8  C   UNK N   1      26.861  26.627  -4.323  0.00  0.00     0.000 A 
HETATM    9  C   UNK N   1      26.335  25.399  -3.913  0.00  0.00     0.001 A 
HETATM   10  C   UNK N   1      27.193  24.339  -3.611  0.00  0.00     0.012 A 
ENDBRANCH   3   5
BRANCH   4  11
HETATM   11  C   UNK N   1      29.937  21.681  -5.242  0.00  0.00    -0.021 A 
HETATM   12  C   UNK N   1      30.817  20.612  -5.451  0.00  0.00     0.012 A 
HETATM   13  C   UNK N   1      30.797  19.915  -6.662  0.00  0.00     0.001 A 
HETATM   14  C   UNK N   1      29.896  20.285  -7.664  0.00  0.00     0.000 A 
HETATM   15  C   UNK N   1      29.017  21.352  -7.455  0.00  0.00     0.001 A 
HETATM   16  C   UNK N   1      29.037  22.049  -6.245  0.00  0.00     0.012 A 
ENDBRANCH   4  11
TORSDOF 2
ENDMDL
MODEL 7
REMARK VINA RESULT:      -5.9     13.965     16.337
REMARK  2 active torsions:
REMARK  status: ('A' for Active; 'I' for Inactive)
REMARK    1  A    between atoms: C_3  and  C_11 
REMARK    2  A    between atoms: C_4  and  C_5 
ROOT
HETATM    1  O   UNK N   1      37.487   8.174  19.042  0.00  0.00    -0.287 OA
HETATM    2  C   UNK N   1      36.291   8.012  19.223  0.00  0.00     0.196 A 
HETATM    3  C   UNK N   1      35.560   9.330  18.939  0.00  0.00     0.040 A 
HETATM    4  C   UNK N   1      34.831   8.415  19.278  0.00  0.00     0.040 A 
ENDROOT
BRANCH   3   5
HETATM    5  C   UNK N   1      35.405  10.739  18.563  0.00  0.00    -0.021 A 
HETATM    6  C   UNK N   1      35.331  11.083  17.211  0.00  0.00     0.012 A 
HETATM    7  C   UNK N   1      35.183  12.423  16.838  0.00  0.00     0.001 A 
HETATM    8  C   UNK N   1      35.108  13.418  17.817  0.00  0.00     0.000 A 
HETATM    9  C   UNK N   1      35.181  13.075  19.170  0.00  0.00     0.001 A 
HETATM   10  C   UNK N   1      35.329  11.738  19.542  0.00  0.00     0.012 A 
ENDBRANCH   3   5
BRANCH   4  11
HETATM   11  C   UNK N   1      33.445   8.032  19.544  0.00  0.00    -0.021 A 
HETATM   12  C   UNK N   1      32.520   8.961  20.035  0.00  0.00     0.012 A 
HETATM   13  C   UNK N   1      31.201   8.573  20.281  0.00  0.00     0.001 A 
HETATM   14  C   UNK N   1      30.806   7.254  20.037  0.00  0.00     0.000 A 
HETATM   15  C   UNK N   1      31.729   6.326  19.547  0.00  0.00     0.001 A 
HETATM   16  C   UNK N   1      33.047   6.715  19.300  0.00  0.00     0.012 A 
ENDBRANCH   4  11
TORSDOF 2
ENDMDL
MODEL 8
REMARK VINA RESULT:      -5.9      2.930      4.757
REMARK  2 active torsions:
REMARK  status: ('A' for Active; 'I' for Inactive)
REMARK    1  A    between atoms: C_3  and  C_11 
REMARK    2  A    between atoms: C_4  and  C_5 
ROOT
HETATM    1  O   UNK N   1      33.438  17.898   5.400  0.00  0.00    -0.287 OA
HETATM    2  C   UNK N   1      33.731  17.421   6.484  0.00  0.00     0.196 A 
HETATM    3  C   UNK N   1      32.490  17.424   7.384  0.00  0.00     0.040 A 
HETATM    4  C   UNK N   1      33.488  16.963   7.908  0.00  0.00     0.040 A 
ENDROOT
BRANCH   3   5
HETATM    5  C   UNK N   1      31.093  17.659   7.764  0.00  0.00    -0.021 A 
HETATM    6  C   UNK N   1      30.809  18.248   8.999  0.00  0.00     0.012 A 
HETATM    7  C   UNK N   1      29.482  18.479   9.375  0.00  0.00     0.001 A 
HETATM    8  C   UNK N   1      28.438  18.120   8.516  0.00  0.00     0.000 A 
HETATM    9  C   UNK N   1      28.721  17.532   7.281  0.00  0.00     0.001 A 
HETATM   10  C   UNK N   1      30.046  17.302   6.905  0.00  0.00     0.012 A 
ENDBRANCH   3   5
BRANCH   4  11
HETATM   11  C   UNK N   1      34.025  16.369   9.132  0.00  0.00    -0.021 A 
HETATM   12  C   UNK N   1      35.029  17.012   9.866  0.00  0.00     0.012 A 
HETATM   13  C   UNK N   1      35.528  16.427  11.033  0.00  0.00     0.001 A 
HETATM   14  C   UNK N   1      35.022  15.197  11.466  0.00  0.00     0.000 A 
HETATM   15  C   UNK N   1      34.020  14.555  10.733  0.00  0.00     0.001 A 
HETATM   16  C   UNK N   1      33.522  15.141   9.567  0.00  0.00     0.012 A 
ENDBRANCH   4  11
TORSDOF 2
ENDMDL
MODEL 9
REMARK VINA RESULT:      -5.9     15.945     18.452
REMARK  2 active torsions:
REMARK  status: ('A' for Active; 'I' for Inactive)
REMARK    1  A    between atoms: C_3  and  C_11 
REMARK    2  A    between atoms: C_4  and  C_5 
ROOT
HETATM    1  O   UNK N   1      25.398  23.317  -7.360  0.00  0.00    -0.287 OA
HETATM    2  C   UNK N   1      25.439  24.075  -8.316  0.00  0.00     0.196 A 
HETATM    3  C   UNK N   1      25.714  25.497  -7.813  0.00  0.00     0.040 A 
HETATM    4  C   UNK N   1      25.595  25.407  -9.022  0.00  0.00     0.040 A 
ENDROOT
BRANCH   3   5
HETATM    5  C   UNK N   1      25.973  26.564  -6.841  0.00  0.00    -0.021 A 
HETATM    6  C   UNK N   1      27.088  27.389  -7.009  0.00  0.00     0.012 A 
HETATM    7  C   UNK N   1      27.347  28.410  -6.090  0.00  0.00     0.001 A 
HETATM    8  C   UNK N   1      26.491  28.607  -5.002  0.00  0.00     0.000 A 
HETATM    9  C   UNK N   1      25.375  27.783  -4.833  0.00  0.00     0.001 A 
HETATM   10  C   UNK N   1      25.117  26.763  -5.751  0.00  0.00     0.012 A 
ENDBRANCH   3   5
BRANCH   4  11
HETATM   11  C   UNK N   1      25.607  26.153 -10.280  0.00  0.00    -0.021 A 
HETATM   12  C   UNK N   1      24.415  26.475 -10.940  0.00  0.00     0.012 A 
HETATM   13  C   UNK N   1      24.450  27.188 -12.141  0.00  0.00     0.001 A 
HETATM   14  C   UNK N   1      25.678  27.580 -12.683  0.00  0.00     0.000 A 
HETATM   15  C   UNK N   1      26.868  27.258 -12.024  0.00  0.00     0.001 A 
HETATM   16  C   UNK N   1      26.832  26.545 -10.824  0.00  0.00     0.012 A 
ENDBRANCH   4  11
TORSDOF 2
ENDMDL
