MODEL 1
REMARK VINA RESULT:      -6.8      0.000      0.000
REMARK  9 active torsions:
REMARK  status: ('A' for Active; 'I' for Inactive)
REMARK    1  A    between atoms: C_2  and  C_4 
REMARK    2  A    between atoms: C_4  and  O_6 
REMARK    3  A    between atoms: O_6  and  C_7 
REMARK    4  A    between atoms: C_8  and  C_7 
REMARK    5  A    between atoms: C_9  and  O_24 
REMARK    6  A    between atoms: C_11  and  N_13 
REMARK    7  A    between atoms: C_16  and  N_21 
REMARK    8  A    between atoms: O_24  and  C_25 
REMARK    9  A    between atoms: C_25  and  C_27 
ROOT
HETATM    1  C   UNK N   1      26.983  23.939  -5.542  0.00  0.00     0.181 C 
HETATM    2  C   UNK N   1      27.366  25.130  -4.659  0.00  0.00     0.206 C 
HETATM    3  C   UNK N   1      28.440  24.531  -3.786  0.00  0.00     0.172 C 
HETATM    4  C   UNK N   1      29.104  23.731  -4.893  0.00  0.00     0.274 C 
HETATM    5  O   UNK N   1      28.074  23.037  -5.552  0.00  0.00    -0.353 OA
HETATM    6  C   UNK N   1      27.857  23.640  -2.685  0.00  0.00     0.059 C 
HETATM    7  F   UNK N   1      29.300  25.476  -3.259  0.00  0.00    -0.236 F 
ENDROOT
BRANCH   4   8
HETATM    8  N   UNK N   1      30.239  22.860  -4.530  0.00  0.00    -0.279 N 
HETATM    9  C   UNK N   1      30.037  21.558  -4.168  0.00  0.00     0.102 A 
HETATM   10  C   UNK N   1      31.103  20.753  -3.774  0.00  0.00     0.065 A 
HETATM   11  C   UNK N   1      32.381  21.299  -3.751  0.00  0.00     0.103 A 
HETATM   12  N   UNK N   1      32.573  22.592  -4.110  0.00  0.00    -0.295 N 
HETATM   13  C   UNK N   1      31.520  23.380  -4.496  0.00  0.00     0.330 A 
ATOM     14  HN  UNK N   1      33.514  22.984  -4.094  1.00  0.00     0.172 HD
HETATM   15  O   UNK N   1      31.725  24.543  -4.801  0.00  0.00    -0.246 OA
BRANCH  11  16
HETATM   16  N   UNK N   1      33.477  20.511  -3.347  0.00  0.00    -0.385 N 
HETATM   17  H   UNK N   1      34.290  20.478  -3.901  0.00  0.00     0.157 HD
HETATM   18  H   UNK N   1      33.430  19.995  -2.510  0.00  0.00     0.157 HD
ENDBRANCH  11  16
ENDBRANCH   4   8
BRANCH   2  19
HETATM   19  O   UNK N   1      26.256  25.657  -4.012  0.00  0.00    -0.309 OA
BRANCH  19  20
HETATM   20  C   UNK N   1      26.075  26.967  -3.693  0.00  0.00     0.262 C 
HETATM   21  O   UNK N   1      26.259  27.366  -2.552  0.00  0.00    -0.265 OA
BRANCH  20  22
HETATM   22  C   UNK N   1      25.629  27.924  -4.766  0.00  0.00     0.077 C 
HETATM   23  C   UNK N   1      24.654  27.222  -5.688  0.00  0.00     0.020 C 
HETATM   24  C   UNK N   1      26.784  28.458  -5.598  0.00  0.00     0.020 C 
ENDBRANCH  20  22
ENDBRANCH  19  20
ENDBRANCH   2  19
BRANCH   1  25
HETATM   25  C   UNK N   1      26.669  24.368  -6.968  0.00  0.00     0.213 C 
BRANCH  25  26
HETATM   26  O   UNK N   1      25.415  23.954  -7.355  0.00  0.00    -0.319 OA
BRANCH  26  27
HETATM   27  C   UNK N   1      25.232  23.132  -8.422  0.00  0.00     0.262 C 
HETATM   28  O   UNK N   1      25.166  23.594  -9.553  0.00  0.00    -0.265 OA
BRANCH  27  29
HETATM   29  C   UNK N   1      25.098  21.647  -8.228  0.00  0.00     0.077 C 
HETATM   30  C   UNK N   1      26.455  20.977  -8.321  0.00  0.00     0.020 C 
HETATM   31  C   UNK N   1      24.463  21.294  -6.898  0.00  0.00     0.020 C 
ENDBRANCH  27  29
ENDBRANCH  26  27
ENDBRANCH  25  26
ENDBRANCH   1  25
TORSDOF 9
ENDMDL
MODEL 2
REMARK VINA RESULT:      -6.7     19.193     22.781
REMARK  9 active torsions:
REMARK  status: ('A' for Active; 'I' for Inactive)
REMARK    1  A    between atoms: C_2  and  C_4 
REMARK    2  A    between atoms: C_4  and  O_6 
REMARK    3  A    between atoms: O_6  and  C_7 
REMARK    4  A    between atoms: C_8  and  C_7 
REMARK    5  A    between atoms: C_9  and  O_24 
REMARK    6  A    between atoms: C_11  and  N_13 
REMARK    7  A    between atoms: C_16  and  N_21 
REMARK    8  A    between atoms: O_24  and  C_25 
REMARK    9  A    between atoms: C_25  and  C_27 
ROOT
HETATM    1  C   UNK N   1      35.385  13.100  12.899  0.00  0.00     0.181 C 
HETATM    2  C   UNK N   1      36.758  13.252  12.240  0.00  0.00     0.206 C 
HETATM    3  C   UNK N   1      36.390  13.826  10.894  0.00  0.00     0.172 C 
HETATM    4  C   UNK N   1      35.318  14.764  11.419  0.00  0.00     0.274 C 
HETATM    5  O   UNK N   1      34.493  13.993  12.258  0.00  0.00    -0.353 OA
HETATM    6  C   UNK N   1      35.828  12.761   9.949  0.00  0.00     0.059 C 
HETATM    7  F   UNK N   1      37.426  14.523  10.300  0.00  0.00    -0.236 F 
ENDROOT
BRANCH   4   8
HETATM    8  N   UNK N   1      34.553  15.557  10.438  0.00  0.00    -0.279 N 
HETATM    9  C   UNK N   1      33.430  15.051   9.848  0.00  0.00     0.102 A 
HETATM   10  C   UNK N   1      32.740  15.779   8.881  0.00  0.00     0.065 A 
HETATM   11  C   UNK N   1      33.217  17.035   8.523  0.00  0.00     0.103 A 
HETATM   12  N   UNK N   1      34.332  17.530   9.112  0.00  0.00    -0.295 N 
HETATM   13  C   UNK N   1      35.008  16.808  10.062  0.00  0.00     0.330 A 
ATOM     14  HN  UNK N   1      34.674  18.453   8.847  1.00  0.00     0.172 HD
HETATM   15  O   UNK N   1      36.016  17.278  10.563  0.00  0.00    -0.246 OA
BRANCH  11  16
HETATM   16  N   UNK N   1      32.545  17.790   7.541  0.00  0.00    -0.385 N 
HETATM   17  H   UNK N   1      32.030  18.587   7.801  0.00  0.00     0.157 HD
HETATM   18  H   UNK N   1      32.592  17.520   6.596  0.00  0.00     0.157 HD
ENDBRANCH  11  16
ENDBRANCH   4   8
BRANCH   2  19
HETATM   19  O   UNK N   1      37.454  12.052  12.238  0.00  0.00    -0.309 OA
BRANCH  19  20
HETATM   20  C   UNK N   1      37.643  11.245  13.316  0.00  0.00     0.262 C 
HETATM   21  O   UNK N   1      38.178  11.669  14.331  0.00  0.00    -0.265 OA
BRANCH  20  22
HETATM   22  C   UNK N   1      37.193   9.811  13.243  0.00  0.00     0.077 C 
HETATM   23  C   UNK N   1      38.273   8.981  12.580  0.00  0.00     0.020 C 
HETATM   24  C   UNK N   1      35.901   9.635  12.461  0.00  0.00     0.020 C 
ENDBRANCH  20  22
ENDBRANCH  19  20
ENDBRANCH   2  19
BRANCH   1  25
HETATM   25  C   UNK N   1      35.432  13.414  14.388  0.00  0.00     0.213 C 
BRANCH  25  26
HETATM   26  O   UNK N   1      34.375  12.841  15.057  0.00  0.00    -0.319 OA
BRANCH  26  27
HETATM   27  C   UNK N   1      34.343  11.511  15.336  0.00  0.00     0.262 C 
HETATM   28  O   UNK N   1      33.494  10.792  14.826  0.00  0.00    -0.265 OA
BRANCH  27  29
HETATM   29  C   UNK N   1      35.343  10.905  16.282  0.00  0.00     0.077 C 
HETATM   30  C   UNK N   1      35.263  11.579  17.639  0.00  0.00     0.020 C 
HETATM   31  C   UNK N   1      35.139   9.414  16.459  0.00  0.00     0.020 C 
ENDBRANCH  27  29
ENDBRANCH  26  27
ENDBRANCH  25  26
ENDBRANCH   1  25
TORSDOF 9
ENDMDL
MODEL 3
REMARK VINA RESULT:      -6.6      2.830      5.811
REMARK  9 active torsions:
REMARK  status: ('A' for Active; 'I' for Inactive)
REMARK    1  A    between atoms: C_2  and  C_4 
REMARK    2  A    between atoms: C_4  and  O_6 
REMARK    3  A    between atoms: O_6  and  C_7 
REMARK    4  A    between atoms: C_8  and  C_7 
REMARK    5  A    between atoms: C_9  and  O_24 
REMARK    6  A    between atoms: C_11  and  N_13 
REMARK    7  A    between atoms: C_16  and  N_21 
REMARK    8  A    between atoms: O_24  and  C_25 
REMARK    9  A    between atoms: C_25  and  C_27 
ROOT
HETATM    1  C   UNK N   1      28.438  24.882  -4.855  0.00  0.00     0.181 C 
HETATM    2  C   UNK N   1      27.072  25.551  -4.692  0.00  0.00     0.206 C 
HETATM    3  C   UNK N   1      26.392  25.180  -5.986  0.00  0.00     0.172 C 
HETATM    4  C   UNK N   1      26.915  23.756  -6.027  0.00  0.00     0.274 C 
HETATM    5  O   UNK N   1      28.300  23.835  -5.799  0.00  0.00    -0.353 OA
HETATM    6  C   UNK N   1      26.893  26.025  -7.161  0.00  0.00     0.059 C 
HETATM    7  F   UNK N   1      25.013  25.212  -5.903  0.00  0.00    -0.236 F 
ENDROOT
BRANCH   4   8
HETATM    8  N   UNK N   1      26.576  22.929  -7.203  0.00  0.00    -0.279 N 
HETATM    9  C   UNK N   1      27.389  22.902  -8.300  0.00  0.00     0.102 A 
HETATM   10  C   UNK N   1      27.041  22.165  -9.429  0.00  0.00     0.065 A 
HETATM   11  C   UNK N   1      25.846  21.456  -9.422  0.00  0.00     0.103 A 
HETATM   12  N   UNK N   1      25.044  21.489  -8.330  0.00  0.00    -0.295 N 
HETATM   13  C   UNK N   1      25.391  22.217  -7.222  0.00  0.00     0.330 A 
ATOM     14  HN  UNK N   1      24.170  20.963  -8.331  1.00  0.00     0.172 HD
HETATM   15  O   UNK N   1      24.640  22.236  -6.261  0.00  0.00    -0.246 OA
BRANCH  11  16
HETATM   16  N   UNK N   1      25.463  20.709 -10.554  0.00  0.00    -0.385 N 
HETATM   17  H   UNK N   1      24.668  20.973 -11.071  0.00  0.00     0.157 HD
HETATM   18  H   UNK N   1      25.991  19.925 -10.828  0.00  0.00     0.157 HD
ENDBRANCH  11  16
ENDBRANCH   4   8
BRANCH   2  19
HETATM   19  O   UNK N   1      27.201  26.906  -4.420  0.00  0.00    -0.309 OA
BRANCH  19  20
HETATM   20  C   UNK N   1      26.589  27.571  -3.403  0.00  0.00     0.262 C 
HETATM   21  O   UNK N   1      25.992  26.964  -2.526  0.00  0.00    -0.265 OA
BRANCH  20  22
HETATM   22  C   UNK N   1      26.645  29.075  -3.376  0.00  0.00     0.077 C 
HETATM   23  C   UNK N   1      26.999  29.587  -4.758  0.00  0.00     0.020 C 
HETATM   24  C   UNK N   1      27.666  29.611  -2.385  0.00  0.00     0.020 C 
ENDBRANCH  20  22
ENDBRANCH  19  20
ENDBRANCH   2  19
BRANCH   1  25
HETATM   25  C   UNK N   1      28.952  24.312  -3.540  0.00  0.00     0.213 C 
BRANCH  25  26
HETATM   26  O   UNK N   1      29.469  23.047  -3.707  0.00  0.00    -0.319 OA
BRANCH  26  27
HETATM   27  C   UNK N   1      30.331  22.504  -2.807  0.00  0.00     0.262 C 
HETATM   28  O   UNK N   1      30.472  23.010  -1.702  0.00  0.00    -0.265 OA
BRANCH  27  29
HETATM   29  C   UNK N   1      31.133  21.281  -3.159  0.00  0.00     0.077 C 
HETATM   30  C   UNK N   1      30.875  20.876  -4.598  0.00  0.00     0.020 C 
HETATM   31  C   UNK N   1      32.621  21.492  -2.965  0.00  0.00     0.020 C 
ENDBRANCH  27  29
ENDBRANCH  26  27
ENDBRANCH  25  26
ENDBRANCH   1  25
TORSDOF 9
ENDMDL
MODEL 4
REMARK VINA RESULT:      -6.6     12.377     14.683
REMARK  9 active torsions:
REMARK  status: ('A' for Active; 'I' for Inactive)
REMARK    1  A    between atoms: C_2  and  C_4 
REMARK    2  A    between atoms: C_4  and  O_6 
REMARK    3  A    between atoms: O_6  and  C_7 
REMARK    4  A    between atoms: C_8  and  C_7 
REMARK    5  A    between atoms: C_9  and  O_24 
REMARK    6  A    between atoms: C_11  and  N_13 
REMARK    7  A    between atoms: C_16  and  N_21 
REMARK    8  A    between atoms: O_24  and  C_25 
REMARK    9  A    between atoms: C_25  and  C_27 
ROOT
HETATM    1  C   UNK N   1      30.305  15.781   6.773  0.00  0.00     0.181 C 
HETATM    2  C   UNK N   1      30.098  17.268   7.073  0.00  0.00     0.206 C 
HETATM    3  C   UNK N   1      30.898  17.440   8.339  0.00  0.00     0.172 C 
HETATM    4  C   UNK N   1      32.058  16.563   7.904  0.00  0.00     0.274 C 
HETATM    5  O   UNK N   1      31.494  15.368   7.423  0.00  0.00    -0.353 OA
HETATM    6  C   UNK N   1      30.166  16.881   9.563  0.00  0.00     0.059 C 
HETATM    7  F   UNK N   1      31.302  18.745   8.553  0.00  0.00    -0.236 F 
ENDROOT
BRANCH   4   8
HETATM    8  N   UNK N   1      33.150  16.331   8.870  0.00  0.00    -0.279 N 
HETATM    9  C   UNK N   1      33.148  15.231   9.680  0.00  0.00     0.102 A 
HETATM   10  C   UNK N   1      34.150  15.042  10.629  0.00  0.00     0.065 A 
HETATM   11  C   UNK N   1      35.155  15.996  10.741  0.00  0.00     0.103 A 
HETATM   12  N   UNK N   1      35.148  17.085   9.934  0.00  0.00    -0.295 N 
HETATM   13  C   UNK N   1      34.159  17.266   9.003  0.00  0.00     0.330 A 
ATOM     14  HN  UNK N   1      35.891  17.779  10.020  1.00  0.00     0.172 HD
HETATM   15  O   UNK N   1      34.177  18.265   8.302  0.00  0.00    -0.246 OA
BRANCH  11  16
HETATM   16  N   UNK N   1      36.175  15.835  11.699  0.00  0.00    -0.385 N 
HETATM   17  H   UNK N   1      37.089  15.612  11.411  0.00  0.00     0.157 HD
HETATM   18  H   UNK N   1      35.974  15.947  12.656  0.00  0.00     0.157 HD
ENDBRANCH  11  16
ENDBRANCH   4   8
BRANCH   2  19
HETATM   19  O   UNK N   1      28.748  17.587   7.138  0.00  0.00    -0.309 OA
BRANCH  19  20
HETATM   20  C   UNK N   1      28.203  18.789   6.811  0.00  0.00     0.262 C 
HETATM   21  O   UNK N   1      27.764  19.535   7.675  0.00  0.00    -0.265 OA
BRANCH  20  22
HETATM   22  C   UNK N   1      28.135  19.190   5.362  0.00  0.00     0.077 C 
HETATM   23  C   UNK N   1      27.468  20.546   5.250  0.00  0.00     0.020 C 
HETATM   24  C   UNK N   1      27.359  18.198   4.510  0.00  0.00     0.020 C 
ENDBRANCH  20  22
ENDBRANCH  19  20
ENDBRANCH   2  19
BRANCH   1  25
HETATM   25  C   UNK N   1      30.428  15.515   5.279  0.00  0.00     0.213 C 
BRANCH  25  26
HETATM   26  O   UNK N   1      30.529  16.686   4.565  0.00  0.00    -0.319 OA
BRANCH  26  27
HETATM   27  C   UNK N   1      31.128  16.730   3.345  0.00  0.00     0.262 C 
HETATM   28  O   UNK N   1      30.478  16.524   2.329  0.00  0.00    -0.265 OA
BRANCH  27  29
HETATM   29  C   UNK N   1      32.599  17.020   3.226  0.00  0.00     0.077 C 
HETATM   30  C   UNK N   1      33.112  17.677   4.494  0.00  0.00     0.020 C 
HETATM   31  C   UNK N   1      33.412  15.771   2.952  0.00  0.00     0.020 C 
ENDBRANCH  27  29
ENDBRANCH  26  27
ENDBRANCH  25  26
ENDBRANCH   1  25
TORSDOF 9
ENDMDL
MODEL 5
REMARK VINA RESULT:      -6.5      2.569      4.938
REMARK  9 active torsions:
REMARK  status: ('A' for Active; 'I' for Inactive)
REMARK    1  A    between atoms: C_2  and  C_4 
REMARK    2  A    between atoms: C_4  and  O_6 
REMARK    3  A    between atoms: O_6  and  C_7 
REMARK    4  A    between atoms: C_8  and  C_7 
REMARK    5  A    between atoms: C_9  and  O_24 
REMARK    6  A    between atoms: C_11  and  N_13 
REMARK    7  A    between atoms: C_16  and  N_21 
REMARK    8  A    between atoms: O_24  and  C_25 
REMARK    9  A    between atoms: C_25  and  C_27 
ROOT
HETATM    1  C   UNK N   1      30.045  26.793  -4.334  0.00  0.00     0.181 C 
HETATM    2  C   UNK N   1      28.723  26.117  -3.964  0.00  0.00     0.206 C 
HETATM    3  C   UNK N   1      29.054  24.660  -4.173  0.00  0.00     0.172 C 
HETATM    4  C   UNK N   1      30.449  24.737  -3.577  0.00  0.00     0.274 C 
HETATM    5  O   UNK N   1      31.079  25.838  -4.184  0.00  0.00    -0.353 OA
HETATM    6  C   UNK N   1      29.069  24.281  -5.656  0.00  0.00     0.059 C 
HETATM    7  F   UNK N   1      28.240  23.810  -3.449  0.00  0.00    -0.236 F 
ENDROOT
BRANCH   4   8
HETATM    8  N   UNK N   1      31.279  23.517  -3.603  0.00  0.00    -0.279 N 
HETATM    9  C   UNK N   1      32.072  23.230  -4.677  0.00  0.00     0.102 A 
HETATM   10  C   UNK N   1      32.813  22.051  -4.723  0.00  0.00     0.065 A 
HETATM   11  C   UNK N   1      32.729  21.166  -3.655  0.00  0.00     0.103 A 
HETATM   12  N   UNK N   1      31.939  21.458  -2.593  0.00  0.00    -0.295 N 
HETATM   13  C   UNK N   1      31.211  22.618  -2.554  0.00  0.00     0.330 A 
ATOM     14  HN  UNK N   1      31.885  20.805  -1.812  1.00  0.00     0.172 HD
HETATM   15  O   UNK N   1      30.500  22.844  -1.589  0.00  0.00    -0.246 OA
BRANCH  11  16
HETATM   16  N   UNK N   1      33.460  19.961  -3.679  0.00  0.00    -0.385 N 
HETATM   17  H   UNK N   1      34.255  19.857  -3.109  0.00  0.00     0.157 HD
HETATM   18  H   UNK N   1      33.174  19.224  -4.266  0.00  0.00     0.157 HD
ENDBRANCH  11  16
ENDBRANCH   4   8
BRANCH   2  19
HETATM   19  O   UNK N   1      27.668  26.630  -4.705  0.00  0.00    -0.309 OA
BRANCH  19  20
HETATM   20  C   UNK N   1      26.355  26.580  -4.353  0.00  0.00     0.262 C 
HETATM   21  O   UNK N   1      25.987  26.957  -3.249  0.00  0.00    -0.265 OA
BRANCH  20  22
HETATM   22  C   UNK N   1      25.354  26.040  -5.338  0.00  0.00     0.077 C 
HETATM   23  C   UNK N   1      25.442  24.527  -5.361  0.00  0.00     0.020 C 
HETATM   24  C   UNK N   1      25.576  26.558  -6.750  0.00  0.00     0.020 C 
ENDBRANCH  20  22
ENDBRANCH  19  20
ENDBRANCH   2  19
BRANCH   1  25
HETATM   25  C   UNK N   1      30.337  27.995  -3.446  0.00  0.00     0.213 C 
BRANCH  25  26
HETATM   26  O   UNK N   1      29.248  28.832  -3.358  0.00  0.00    -0.319 OA
BRANCH  26  27
HETATM   27  C   UNK N   1      29.235  30.052  -3.959  0.00  0.00     0.262 C 
HETATM   28  O   UNK N   1      30.117  30.867  -3.723  0.00  0.00    -0.265 OA
BRANCH  27  29
HETATM   29  C   UNK N   1      28.133  30.422  -4.912  0.00  0.00     0.077 C 
HETATM   30  C   UNK N   1      28.220  29.583  -6.173  0.00  0.00     0.020 C 
HETATM   31  C   UNK N   1      26.758  30.250  -4.299  0.00  0.00     0.020 C 
ENDBRANCH  27  29
ENDBRANCH  26  27
ENDBRANCH  25  26
ENDBRANCH   1  25
TORSDOF 9
ENDMDL
MODEL 6
REMARK VINA RESULT:      -6.5     13.815     15.940
REMARK  9 active torsions:
REMARK  status: ('A' for Active; 'I' for Inactive)
REMARK    1  A    between atoms: C_2  and  C_4 
REMARK    2  A    between atoms: C_4  and  O_6 
REMARK    3  A    between atoms: O_6  and  C_7 
REMARK    4  A    between atoms: C_8  and  C_7 
REMARK    5  A    between atoms: C_9  and  O_24 
REMARK    6  A    between atoms: C_11  and  N_13 
REMARK    7  A    between atoms: C_16  and  N_21 
REMARK    8  A    between atoms: O_24  and  C_25 
REMARK    9  A    between atoms: C_25  and  C_27 
ROOT
HETATM    1  C   UNK N   1      23.362  15.972   5.356  0.00  0.00     0.181 C 
HETATM    2  C   UNK N   1      21.941  15.613   5.800  0.00  0.00     0.206 C 
HETATM    3  C   UNK N   1      21.161  16.816   5.333  0.00  0.00     0.172 C 
HETATM    4  C   UNK N   1      21.890  16.963   4.009  0.00  0.00     0.274 C 
HETATM    5  O   UNK N   1      23.264  16.916   4.306  0.00  0.00    -0.353 OA
HETATM    6  C   UNK N   1      21.362  18.024   6.252  0.00  0.00     0.059 C 
HETATM    7  F   UNK N   1      19.817  16.551   5.145  0.00  0.00    -0.236 F 
ENDROOT
BRANCH   4   8
HETATM    8  N   UNK N   1      21.530  18.105   3.146  0.00  0.00    -0.279 N 
HETATM    9  C   UNK N   1      22.127  19.323   3.308  0.00  0.00     0.102 A 
HETATM   10  C   UNK N   1      21.748  20.413   2.529  0.00  0.00     0.065 A 
HETATM   11  C   UNK N   1      20.745  20.243   1.582  0.00  0.00     0.103 A 
HETATM   12  N   UNK N   1      20.156  19.032   1.429  0.00  0.00    -0.295 N 
HETATM   13  C   UNK N   1      20.533  17.962   2.199  0.00  0.00     0.330 A 
ATOM     14  HN  UNK N   1      19.423  18.913   0.730  1.00  0.00     0.172 HD
HETATM   15  O   UNK N   1      19.973  16.889   2.044  0.00  0.00    -0.246 OA
BRANCH  11  16
HETATM   16  N   UNK N   1      20.333  21.331   0.787  0.00  0.00    -0.385 N 
HETATM   17  H   UNK N   1      20.322  22.239   1.165  0.00  0.00     0.157 HD
HETATM   18  H   UNK N   1      20.059  21.182  -0.147  0.00  0.00     0.157 HD
ENDBRANCH  11  16
ENDBRANCH   4   8
BRANCH   2  19
HETATM   19  O   UNK N   1      21.893  15.324   7.156  0.00  0.00    -0.309 OA
BRANCH  19  20
HETATM   20  C   UNK N   1      20.902  14.636   7.784  0.00  0.00     0.262 C 
HETATM   21  O   UNK N   1      20.308  13.731   7.214  0.00  0.00    -0.265 OA
BRANCH  20  22
HETATM   22  C   UNK N   1      20.533  15.010   9.194  0.00  0.00     0.077 C 
HETATM   23  C   UNK N   1      20.391  13.751  10.025  0.00  0.00     0.020 C 
HETATM   24  C   UNK N   1      19.232  15.793   9.277  0.00  0.00     0.020 C 
ENDBRANCH  20  22
ENDBRANCH  19  20
ENDBRANCH   2  19
BRANCH   1  25
HETATM   25  C   UNK N   1      24.130  14.751   4.867  0.00  0.00     0.213 C 
BRANCH  25  26
HETATM   26  O   UNK N   1      23.948  13.674   5.703  0.00  0.00    -0.319 OA
BRANCH  26  27
HETATM   27  C   UNK N   1      24.805  13.411   6.725  0.00  0.00     0.262 C 
HETATM   28  O   UNK N   1      25.904  13.948   6.764  0.00  0.00    -0.265 OA
BRANCH  27  29
HETATM   29  C   UNK N   1      24.422  12.450   7.816  0.00  0.00     0.077 C 
HETATM   30  C   UNK N   1      24.226  13.188   9.127  0.00  0.00     0.020 C 
HETATM   31  C   UNK N   1      23.157  11.681   7.488  0.00  0.00     0.020 C 
ENDBRANCH  27  29
ENDBRANCH  26  27
ENDBRANCH  25  26
ENDBRANCH   1  25
TORSDOF 9
ENDMDL
MODEL 7
REMARK VINA RESULT:      -6.4     14.118     16.848
REMARK  9 active torsions:
REMARK  status: ('A' for Active; 'I' for Inactive)
REMARK    1  A    between atoms: C_2  and  C_4 
REMARK    2  A    between atoms: C_4  and  O_6 
REMARK    3  A    between atoms: O_6  and  C_7 
REMARK    4  A    between atoms: C_8  and  C_7 
REMARK    5  A    between atoms: C_9  and  O_24 
REMARK    6  A    between atoms: C_11  and  N_13 
REMARK    7  A    between atoms: C_16  and  N_21 
REMARK    8  A    between atoms: O_24  and  C_25 
REMARK    9  A    between atoms: C_25  and  C_27 
ROOT
HETATM    1  C   UNK N   1      33.108  17.480   8.049  0.00  0.00     0.181 C 
HETATM    2  C   UNK N   1      32.684  16.135   7.453  0.00  0.00     0.206 C 
HETATM    3  C   UNK N   1      33.666  15.190   8.099  0.00  0.00     0.172 C 
HETATM    4  C   UNK N   1      33.623  15.842   9.469  0.00  0.00     0.274 C 
HETATM    5  O   UNK N   1      33.799  17.221   9.258  0.00  0.00    -0.353 OA
HETATM    6  C   UNK N   1      35.052  15.272   7.453  0.00  0.00     0.059 C 
HETATM    7  F   UNK N   1      33.213  13.885   8.144  0.00  0.00    -0.236 F 
ENDROOT
BRANCH   4   8
HETATM    8  N   UNK N   1      34.513  15.306  10.517  0.00  0.00    -0.279 N 
HETATM    9  C   UNK N   1      34.277  14.085  11.082  0.00  0.00     0.102 A 
HETATM   10  C   UNK N   1      35.086  13.605  12.109  0.00  0.00     0.065 A 
HETATM   11  C   UNK N   1      36.141  14.393  12.554  0.00  0.00     0.103 A 
HETATM   12  N   UNK N   1      36.367  15.604  11.989  0.00  0.00    -0.295 N 
HETATM   13  C   UNK N   1      35.567  16.072  10.980  0.00  0.00     0.330 A 
ATOM     14  HN  UNK N   1      37.145  16.175  12.319  1.00  0.00     0.172 HD
HETATM   15  O   UNK N   1      35.792  17.172  10.503  0.00  0.00    -0.246 OA
BRANCH  11  16
HETATM   16  N   UNK N   1      36.969  13.937  13.598  0.00  0.00    -0.385 N 
HETATM   17  H   UNK N   1      36.606  13.335  14.287  0.00  0.00     0.157 HD
HETATM   18  H   UNK N   1      37.912  14.219  13.638  0.00  0.00     0.157 HD
ENDBRANCH  11  16
ENDBRANCH   4   8
BRANCH   2  19
HETATM   19  O   UNK N   1      32.677  16.178   6.066  0.00  0.00    -0.309 OA
BRANCH  19  20
HETATM   20  C   UNK N   1      33.015  17.254   5.305  0.00  0.00     0.262 C 
HETATM   21  O   UNK N   1      34.058  17.860   5.505  0.00  0.00    -0.265 OA
BRANCH  20  22
HETATM   22  C   UNK N   1      32.079  17.700   4.214  0.00  0.00     0.077 C 
HETATM   23  C   UNK N   1      30.650  17.592   4.707  0.00  0.00     0.020 C 
HETATM   24  C   UNK N   1      32.216  16.876   2.944  0.00  0.00     0.020 C 
ENDBRANCH  20  22
ENDBRANCH  19  20
ENDBRANCH   2  19
BRANCH   1  25
HETATM   25  C   UNK N   1      31.912  18.378   8.334  0.00  0.00     0.213 C 
BRANCH  25  26
HETATM   26  O   UNK N   1      30.759  17.645   8.495  0.00  0.00    -0.319 OA
BRANCH  26  27
HETATM   27  C   UNK N   1      29.636  18.190   9.034  0.00  0.00     0.262 C 
HETATM   28  O   UNK N   1      29.681  18.755  10.118  0.00  0.00    -0.265 OA
BRANCH  27  29
HETATM   29  C   UNK N   1      28.320  18.098   8.311  0.00  0.00     0.077 C 
HETATM   30  C   UNK N   1      28.074  19.354   7.498  0.00  0.00     0.020 C 
HETATM   31  C   UNK N   1      28.250  16.893   7.394  0.00  0.00     0.020 C 
ENDBRANCH  27  29
ENDBRANCH  26  27
ENDBRANCH  25  26
ENDBRANCH   1  25
TORSDOF 9
ENDMDL
MODEL 8
REMARK VINA RESULT:      -6.3     12.959     15.218
REMARK  9 active torsions:
REMARK  status: ('A' for Active; 'I' for Inactive)
REMARK    1  A    between atoms: C_2  and  C_4 
REMARK    2  A    between atoms: C_4  and  O_6 
REMARK    3  A    between atoms: O_6  and  C_7 
REMARK    4  A    between atoms: C_8  and  C_7 
REMARK    5  A    between atoms: C_9  and  O_24 
REMARK    6  A    between atoms: C_11  and  N_13 
REMARK    7  A    between atoms: C_16  and  N_21 
REMARK    8  A    between atoms: O_24  and  C_25 
REMARK    9  A    between atoms: C_25  and  C_27 
ROOT
HETATM    1  C   UNK N   1      23.282  16.117   5.771  0.00  0.00     0.181 C 
HETATM    2  C   UNK N   1      21.849  15.764   6.177  0.00  0.00     0.206 C 
HETATM    3  C   UNK N   1      21.070  16.914   5.588  0.00  0.00     0.172 C 
HETATM    4  C   UNK N   1      21.856  16.979   4.291  0.00  0.00     0.274 C 
HETATM    5  O   UNK N   1      23.216  16.981   4.650  0.00  0.00    -0.353 OA
HETATM    6  C   UNK N   1      21.210  18.190   6.424  0.00  0.00     0.059 C 
HETATM    7  F   UNK N   1      19.742  16.610   5.361  0.00  0.00    -0.236 F 
ENDROOT
BRANCH   4   8
HETATM    8  N   UNK N   1      21.517  18.047   3.330  0.00  0.00    -0.279 N 
HETATM    9  C   UNK N   1      22.088  19.284   3.427  0.00  0.00     0.102 A 
HETATM   10  C   UNK N   1      21.726  20.307   2.553  0.00  0.00     0.065 A 
HETATM   11  C   UNK N   1      20.769  20.049   1.579  0.00  0.00     0.103 A 
HETATM   12  N   UNK N   1      20.207  18.818   1.492  0.00  0.00    -0.295 N 
HETATM   13  C   UNK N   1      20.565  17.816   2.355  0.00  0.00     0.330 A 
ATOM     14  HN  UNK N   1      19.507  18.635   0.772  1.00  0.00     0.172 HD
HETATM   15  O   UNK N   1      20.030  16.724   2.256  0.00  0.00    -0.246 OA
BRANCH  11  16
HETATM   16  N   UNK N   1      20.376  21.067   0.689  0.00  0.00    -0.385 N 
HETATM   17  H   UNK N   1      20.292  21.994   1.008  0.00  0.00     0.157 HD
HETATM   18  H   UNK N   1      20.187  20.851  -0.253  0.00  0.00     0.157 HD
ENDBRANCH  11  16
ENDBRANCH   4   8
BRANCH   2  19
HETATM   19  O   UNK N   1      21.744  15.575   7.548  0.00  0.00    -0.309 OA
BRANCH  19  20
HETATM   20  C   UNK N   1      21.159  14.508   8.157  0.00  0.00     0.262 C 
HETATM   21  O   UNK N   1      20.232  13.913   7.625  0.00  0.00    -0.265 OA
BRANCH  20  22
HETATM   22  C   UNK N   1      21.661  14.072   9.507  0.00  0.00     0.077 C 
HETATM   23  C   UNK N   1      22.932  13.266   9.330  0.00  0.00     0.020 C 
HETATM   24  C   UNK N   1      20.653  13.225  10.267  0.00  0.00     0.020 C 
ENDBRANCH  20  22
ENDBRANCH  19  20
ENDBRANCH   2  19
BRANCH   1  25
HETATM   25  C   UNK N   1      24.091  14.880   5.408  0.00  0.00     0.213 C 
BRANCH  25  26
HETATM   26  O   UNK N   1      24.711  15.023   4.188  0.00  0.00    -0.319 OA
BRANCH  26  27
HETATM   27  C   UNK N   1      26.062  15.128   4.082  0.00  0.00     0.262 C 
HETATM   28  O   UNK N   1      26.793  14.423   4.765  0.00  0.00    -0.265 OA
BRANCH  27  29
HETATM   29  C   UNK N   1      26.679  16.119   3.133  0.00  0.00     0.077 C 
HETATM   30  C   UNK N   1      26.604  17.520   3.709  0.00  0.00     0.020 C 
HETATM   31  C   UNK N   1      28.126  15.791   2.820  0.00  0.00     0.020 C 
ENDBRANCH  27  29
ENDBRANCH  26  27
ENDBRANCH  25  26
ENDBRANCH   1  25
TORSDOF 9
ENDMDL
MODEL 9
REMARK VINA RESULT:      -6.3     13.336     15.325
REMARK  9 active torsions:
REMARK  status: ('A' for Active; 'I' for Inactive)
REMARK    1  A    between atoms: C_2  and  C_4 
REMARK    2  A    between atoms: C_4  and  O_6 
REMARK    3  A    between atoms: O_6  and  C_7 
REMARK    4  A    between atoms: C_8  and  C_7 
REMARK    5  A    between atoms: C_9  and  O_24 
REMARK    6  A    between atoms: C_11  and  N_13 
REMARK    7  A    between atoms: C_16  and  N_21 
REMARK    8  A    between atoms: O_24  and  C_25 
REMARK    9  A    between atoms: C_25  and  C_27 
ROOT
HETATM    1  C   UNK N   1      23.252  16.184   5.748  0.00  0.00     0.181 C 
HETATM    2  C   UNK N   1      21.817  15.827   6.142  0.00  0.00     0.206 C 
HETATM    3  C   UNK N   1      21.040  16.975   5.547  0.00  0.00     0.172 C 
HETATM    4  C   UNK N   1      21.836  17.041   4.256  0.00  0.00     0.274 C 
HETATM    5  O   UNK N   1      23.193  17.047   4.627  0.00  0.00    -0.353 OA
HETATM    6  C   UNK N   1      21.169  18.252   6.383  0.00  0.00     0.059 C 
HETATM    7  F   UNK N   1      19.714  16.667   5.309  0.00  0.00    -0.236 F 
ENDROOT
BRANCH   4   8
HETATM    8  N   UNK N   1      21.502  18.108   3.292  0.00  0.00    -0.279 N 
HETATM    9  C   UNK N   1      22.085  19.341   3.380  0.00  0.00     0.102 A 
HETATM   10  C   UNK N   1      21.728  20.362   2.503  0.00  0.00     0.065 A 
HETATM   11  C   UNK N   1      20.763  20.108   1.536  0.00  0.00     0.103 A 
HETATM   12  N   UNK N   1      20.189  18.883   1.457  0.00  0.00    -0.295 N 
HETATM   13  C   UNK N   1      20.543  17.881   2.323  0.00  0.00     0.330 A 
ATOM     14  HN  UNK N   1      19.484  18.703   0.742  1.00  0.00     0.172 HD
HETATM   15  O   UNK N   1      19.997  16.794   2.232  0.00  0.00    -0.246 OA
BRANCH  11  16
HETATM   16  N   UNK N   1      20.376  21.126   0.642  0.00  0.00    -0.385 N 
HETATM   17  H   UNK N   1      20.566  22.067   0.857  0.00  0.00     0.157 HD
HETATM   18  H   UNK N   1      19.915  20.896  -0.197  0.00  0.00     0.157 HD
ENDBRANCH  11  16
ENDBRANCH   4   8
BRANCH   2  19
HETATM   19  O   UNK N   1      21.701  15.638   7.513  0.00  0.00    -0.309 OA
BRANCH  19  20
HETATM   20  C   UNK N   1      21.096  14.581   8.117  0.00  0.00     0.262 C 
HETATM   21  O   UNK N   1      19.878  14.529   8.219  0.00  0.00    -0.265 OA
BRANCH  20  22
HETATM   22  C   UNK N   1      21.947  13.472   8.673  0.00  0.00     0.077 C 
HETATM   23  C   UNK N   1      21.849  12.263   7.764  0.00  0.00     0.020 C 
HETATM   24  C   UNK N   1      21.535  13.056  10.076  0.00  0.00     0.020 C 
ENDBRANCH  20  22
ENDBRANCH  19  20
ENDBRANCH   2  19
BRANCH   1  25
HETATM   25  C   UNK N   1      24.068  14.949   5.392  0.00  0.00     0.213 C 
BRANCH  25  26
HETATM   26  O   UNK N   1      23.266  13.932   4.928  0.00  0.00    -0.319 OA
BRANCH  26  27
HETATM   27  C   UNK N   1      23.482  13.347   3.720  0.00  0.00     0.262 C 
HETATM   28  O   UNK N   1      24.540  12.775   3.491  0.00  0.00    -0.265 OA
BRANCH  27  29
HETATM   29  C   UNK N   1      22.433  13.403   2.645  0.00  0.00     0.077 C 
HETATM   30  C   UNK N   1      21.055  13.563   3.259  0.00  0.00     0.020 C 
HETATM   31  C   UNK N   1      22.671  14.534   1.665  0.00  0.00     0.020 C 
ENDBRANCH  27  29
ENDBRANCH  26  27
ENDBRANCH  25  26
ENDBRANCH   1  25
TORSDOF 9
ENDMDL
