MODEL 1
REMARK VINA RESULT:      -8.5      0.000      0.000
REMARK  6 active torsions:
REMARK  status: ('A' for Active; 'I' for Inactive)
REMARK    1  A    between atoms: C_10  and  C_7 
REMARK       I    between atoms: N_15  and  C_16 
REMARK    2  A    between atoms: C_16  and  C_18 
REMARK    3  A    between atoms: C_23  and  N_24 
REMARK    4  A    between atoms: N_24  and  S_25 
REMARK    5  A    between atoms: C_32  and  N_33 
REMARK    6  A    between atoms: C_36  and  N_38 
ROOT
HETATM    1  C   UNK N   1      25.937  18.285   5.188  0.00  0.00     0.139 C 
HETATM    2  C   UNK N   1      25.407  19.640   4.712  0.00  0.00     0.032 C 
HETATM    3  C   UNK N   1      26.138  20.767   5.447  0.00  0.00     0.004 C 
HETATM    4  C   UNK N   1      27.670  20.632   5.387  0.00  0.00     0.020 C 
HETATM    5  C   UNK N   1      28.117  19.383   4.626  0.00  0.00     0.127 C 
HETATM    6  N   UNK N   1      27.412  18.225   5.143  0.00  0.00    -0.338 N 
HETATM    7  C   UNK N   1      28.099  17.105   5.580  0.00  0.00     0.256 C 
HETATM    8  O   UNK N   1      27.471  16.149   6.013  0.00  0.00    -0.267 OA
ENDROOT
BRANCH   1   9
HETATM    9  C   UNK N   1      25.250  17.150   4.464  0.00  0.00     0.053 A 
HETATM   10  C   UNK N   1      23.878  16.903   4.478  0.00  0.00     0.079 A 
HETATM   11  C   UNK N   1      23.714  16.016   3.455  0.00  0.00     0.130 A 
HETATM   12  N   UNK N   1      24.887  15.711   2.908  0.00  0.00    -0.250 N 
HETATM   13  N   UNK N   1      22.550  15.596   2.926  0.00  0.00    -0.327 N 
HETATM   14  C   UNK N   1      24.997  14.903   1.832  0.00  0.00     0.128 A 
HETATM   15  N   UNK N   1      25.846  16.395   3.507  0.00  0.00    -0.295 N 
HETATM   16  C   UNK N   1      23.814  14.416   1.244  0.00  0.00    -0.000 A 
HETATM   17  C   UNK N   1      23.941  13.564   0.028  0.00  0.00     0.054 C 
HETATM   18  C   UNK N   1      22.552  14.820   1.802  0.00  0.00     0.112 A 
ATOM     19  HN  UNK N   1      26.842  16.362   3.292  1.00  0.00     0.187 HD
ATOM     20  HN  UNK N   1      21.667  15.855   3.365  1.00  0.00     0.169 HD
BRANCH  18  21
HETATM   21  N   UNK N   1      21.288  14.526   1.198  0.00  0.00    -0.365 N 
HETATM   22  C   UNK N   1      20.852  13.162   1.071  0.00  0.00     0.126 C 
HETATM   23  C   UNK N   1      19.425  13.244   0.570  0.00  0.00     0.046 C 
HETATM   24  C   UNK N   1      18.992  14.679   0.827  0.00  0.00     0.093 C 
HETATM   25  C   UNK N   1      20.269  15.494   0.915  0.00  0.00     0.149 C 
BRANCH  24  26
HETATM   26  N   UNK N   1      18.164  15.150  -0.266  0.00  0.00    -0.424 N 
HETATM   27  H   UNK N   1      17.144  15.139  -0.255  0.00  0.00     0.150 HD
HETATM   28  H   UNK N   1      18.631  15.514  -1.098  0.00  0.00     0.150 HD
ENDBRANCH  24  26
ENDBRANCH  18  21
ENDBRANCH   1   9
BRANCH   7  29
HETATM   29  C   UNK N   1      29.598  16.987   5.555  0.00  0.00     0.061 A 
HETATM   30  C   UNK N   1      30.274  16.811   4.338  0.00  0.00     0.043 A 
HETATM   31  C   UNK N   1      31.667  16.772   4.287  0.00  0.00     0.035 A 
HETATM   32  C   UNK N   1      32.413  16.908   5.454  0.00  0.00     0.026 A 
HETATM   33 Cl   UNK N   1      32.478  16.581   2.750  0.00  0.00    -0.084 Cl
HETATM   34  C   UNK N   1      31.765  17.068   6.677  0.00  0.00     0.033 A 
HETATM   35  C   UNK N   1      30.364  17.108   6.749  0.00  0.00     0.058 A 
BRANCH  35  36
HETATM   36  N   UNK N   1      29.719  17.203   8.021  0.00  0.00    -0.284 N 
HETATM   37  H   UNK N   1      29.497  16.364   8.486  0.00  0.00     0.178 HD
BRANCH  36  38
HETATM   38  S   UNK N   1      29.290  18.724   8.816  0.00  0.00     0.227 S 
HETATM   39  O   UNK N   1      29.257  18.538  10.341  0.00  0.00    -0.206 OA
HETATM   40  O   UNK N   1      30.799  18.819   9.087  0.00  0.00    -0.206 OA
HETATM   41  C   UNK N   1      28.638  17.170   9.495  0.00  0.00     0.186 C 
ENDBRANCH  36  38
ENDBRANCH  35  36
ENDBRANCH   7  29
TORSDOF 6
ENDMDL
MODEL 2
REMARK VINA RESULT:      -8.5      2.308      3.060
REMARK  6 active torsions:
REMARK  status: ('A' for Active; 'I' for Inactive)
REMARK    1  A    between atoms: C_10  and  C_7 
REMARK       I    between atoms: N_15  and  C_16 
REMARK    2  A    between atoms: C_16  and  C_18 
REMARK    3  A    between atoms: C_23  and  N_24 
REMARK    4  A    between atoms: N_24  and  S_25 
REMARK    5  A    between atoms: C_32  and  N_33 
REMARK    6  A    between atoms: C_36  and  N_38 
ROOT
HETATM    1  C   UNK N   1      25.823  18.084   4.896  0.00  0.00     0.139 C 
HETATM    2  C   UNK N   1      25.583  19.409   4.168  0.00  0.00     0.032 C 
HETATM    3  C   UNK N   1      26.346  20.532   4.877  0.00  0.00     0.004 C 
HETATM    4  C   UNK N   1      27.830  20.200   5.111  0.00  0.00     0.020 C 
HETATM    5  C   UNK N   1      28.203  18.806   4.603  0.00  0.00     0.127 C 
HETATM    6  N   UNK N   1      27.261  17.834   5.124  0.00  0.00    -0.338 N 
HETATM    7  C   UNK N   1      27.694  16.714   5.812  0.00  0.00     0.256 C 
HETATM    8  O   UNK N   1      26.870  15.918   6.241  0.00  0.00    -0.267 OA
ENDROOT
BRANCH   1   9
HETATM    9  C   UNK N   1      25.100  16.950   4.206  0.00  0.00     0.053 A 
HETATM   10  C   UNK N   1      23.721  16.745   4.227  0.00  0.00     0.079 A 
HETATM   11  C   UNK N   1      23.529  15.834   3.231  0.00  0.00     0.130 A 
HETATM   12  N   UNK N   1      24.692  15.477   2.694  0.00  0.00    -0.250 N 
HETATM   13  N   UNK N   1      22.353  15.434   2.715  0.00  0.00    -0.327 N 
HETATM   14  C   UNK N   1      24.776  14.633   1.643  0.00  0.00     0.128 A 
HETATM   15  N   UNK N   1      25.672  16.148   3.273  0.00  0.00    -0.295 N 
HETATM   16  C   UNK N   1      23.578  14.166   1.069  0.00  0.00    -0.000 A 
HETATM   17  C   UNK N   1      23.678  13.274  -0.120  0.00  0.00     0.054 C 
HETATM   18  C   UNK N   1      22.330  14.626   1.615  0.00  0.00     0.112 A 
ATOM     19  HN  UNK N   1      26.667  16.078   3.059  1.00  0.00     0.187 HD
ATOM     20  HN  UNK N   1      21.478  15.734   3.146  1.00  0.00     0.169 HD
BRANCH  18  21
HETATM   21  N   UNK N   1      21.057  14.352   1.020  0.00  0.00    -0.365 N 
HETATM   22  C   UNK N   1      20.614  12.994   0.861  0.00  0.00     0.126 C 
HETATM   23  C   UNK N   1      19.181  13.095   0.381  0.00  0.00     0.046 C 
HETATM   24  C   UNK N   1      18.757  14.524   0.684  0.00  0.00     0.093 C 
HETATM   25  C   UNK N   1      20.038  15.332   0.777  0.00  0.00     0.149 C 
BRANCH  24  26
HETATM   26  N   UNK N   1      17.917  15.027  -0.386  0.00  0.00    -0.424 N 
HETATM   27  H   UNK N   1      17.438  15.928  -0.359  0.00  0.00     0.150 HD
HETATM   28  H   UNK N   1      17.797  14.446  -1.216  0.00  0.00     0.150 HD
ENDBRANCH  24  26
ENDBRANCH  18  21
ENDBRANCH   1   9
BRANCH   7  29
HETATM   29  C   UNK N   1      29.143  16.408   6.072  0.00  0.00     0.061 A 
HETATM   30  C   UNK N   1      29.883  17.194   6.969  0.00  0.00     0.043 A 
HETATM   31  C   UNK N   1      31.207  16.882   7.278  0.00  0.00     0.035 A 
HETATM   32  C   UNK N   1      31.818  15.776   6.694  0.00  0.00     0.026 A 
HETATM   33 Cl   UNK N   1      32.090  17.865   8.423  0.00  0.00    -0.084 Cl
HETATM   34  C   UNK N   1      31.111  14.990   5.788  0.00  0.00     0.033 A 
HETATM   35  C   UNK N   1      29.778  15.288   5.463  0.00  0.00     0.058 A 
BRANCH  35  36
HETATM   36  N   UNK N   1      29.094  14.509   4.479  0.00  0.00    -0.284 N 
HETATM   37  H   UNK N   1      28.359  13.929   4.785  0.00  0.00     0.178 HD
BRANCH  36  38
HETATM   38  S   UNK N   1      29.477  14.513   2.752  0.00  0.00     0.227 S 
HETATM   39  O   UNK N   1      28.195  14.351   1.921  0.00  0.00    -0.206 OA
HETATM   40  O   UNK N   1      28.983  15.967   2.814  0.00  0.00    -0.206 OA
HETATM   41  C   UNK N   1      28.178  13.395   3.355  0.00  0.00     0.186 C 
ENDBRANCH  36  38
ENDBRANCH  35  36
ENDBRANCH   7  29
TORSDOF 6
ENDMDL
MODEL 3
REMARK VINA RESULT:      -8.1      3.941      9.572
REMARK  6 active torsions:
REMARK  status: ('A' for Active; 'I' for Inactive)
REMARK    1  A    between atoms: C_10  and  C_7 
REMARK       I    between atoms: N_15  and  C_16 
REMARK    2  A    between atoms: C_16  and  C_18 
REMARK    3  A    between atoms: C_23  and  N_24 
REMARK    4  A    between atoms: N_24  and  S_25 
REMARK    5  A    between atoms: C_32  and  N_33 
REMARK    6  A    between atoms: C_36  and  N_38 
ROOT
HETATM    1  C   UNK N   1      26.766  17.890   3.974  0.00  0.00     0.139 C 
HETATM    2  C   UNK N   1      26.120  19.278   4.015  0.00  0.00     0.032 C 
HETATM    3  C   UNK N   1      24.688  19.197   3.481  0.00  0.00     0.004 C 
HETATM    4  C   UNK N   1      23.854  18.093   4.155  0.00  0.00     0.020 C 
HETATM    5  C   UNK N   1      24.657  17.306   5.192  0.00  0.00     0.127 C 
HETATM    6  N   UNK N   1      25.907  16.866   4.602  0.00  0.00    -0.338 N 
HETATM    7  C   UNK N   1      26.280  15.534   4.627  0.00  0.00     0.256 C 
HETATM    8  O   UNK N   1      27.340  15.199   4.115  0.00  0.00    -0.267 OA
ENDROOT
BRANCH   1   9
HETATM    9  C   UNK N   1      28.176  17.933   4.516  0.00  0.00     0.053 A 
HETATM   10  C   UNK N   1      28.515  18.029   5.865  0.00  0.00     0.079 A 
HETATM   11  C   UNK N   1      29.840  17.709   5.873  0.00  0.00     0.130 A 
HETATM   12  N   UNK N   1      30.277  17.495   4.636  0.00  0.00    -0.250 N 
HETATM   13  N   UNK N   1      30.610  17.473   6.952  0.00  0.00    -0.327 N 
HETATM   14  C   UNK N   1      31.541  17.098   4.371  0.00  0.00     0.128 A 
HETATM   15  N   UNK N   1      29.275  17.624   3.784  0.00  0.00    -0.295 N 
HETATM   16  C   UNK N   1      32.400  16.852   5.459  0.00  0.00    -0.000 A 
HETATM   17  C   UNK N   1      33.778  16.368   5.161  0.00  0.00     0.054 C 
HETATM   18  C   UNK N   1      31.886  17.014   6.792  0.00  0.00     0.112 A 
ATOM     19  HN  UNK N   1      29.320  17.513   2.771  1.00  0.00     0.187 HD
ATOM     20  HN  UNK N   1      30.241  17.638   7.888  1.00  0.00     0.169 HD
BRANCH  18  21
HETATM   21  N   UNK N   1      32.608  16.639   7.970  0.00  0.00    -0.365 N 
HETATM   22  C   UNK N   1      32.493  15.305   8.491  0.00  0.00     0.126 C 
HETATM   23  C   UNK N   1      33.516  15.221   9.604  0.00  0.00     0.046 C 
HETATM   24  C   UNK N   1      34.447  16.403   9.383  0.00  0.00     0.093 C 
HETATM   25  C   UNK N   1      33.658  17.412   8.568  0.00  0.00     0.149 C 
BRANCH  24  26
HETATM   26  N   UNK N   1      34.833  16.974  10.659  0.00  0.00    -0.424 N 
HETATM   27  H   UNK N   1      35.776  16.924  11.044  0.00  0.00     0.150 HD
HETATM   28  H   UNK N   1      34.117  17.456  11.205  0.00  0.00     0.150 HD
ENDBRANCH  24  26
ENDBRANCH  18  21
ENDBRANCH   1   9
BRANCH   7  29
HETATM   29  C   UNK N   1      25.449  14.449   5.254  0.00  0.00     0.061 A 
HETATM   30  C   UNK N   1      25.531  14.203   6.633  0.00  0.00     0.043 A 
HETATM   31  C   UNK N   1      24.716  13.250   7.245  0.00  0.00     0.035 A 
HETATM   32  C   UNK N   1      23.801  12.525   6.488  0.00  0.00     0.026 A 
HETATM   33 Cl   UNK N   1      24.822  12.990   8.971  0.00  0.00    -0.084 Cl
HETATM   34  C   UNK N   1      23.712  12.739   5.115  0.00  0.00     0.033 A 
HETATM   35  C   UNK N   1      24.525  13.691   4.480  0.00  0.00     0.058 A 
BRANCH  35  36
HETATM   36  N   UNK N   1      24.465  13.845   3.061  0.00  0.00    -0.284 N 
HETATM   37  H   UNK N   1      25.148  13.384   2.521  0.00  0.00     0.178 HD
BRANCH  36  38
HETATM   38  S   UNK N   1      23.253  14.810   2.207  0.00  0.00     0.227 S 
HETATM   39  O   UNK N   1      23.319  14.535   0.697  0.00  0.00    -0.206 OA
HETATM   40  O   UNK N   1      22.461  13.494   2.183  0.00  0.00    -0.206 OA
HETATM   41  C   UNK N   1      24.878  14.566   1.432  0.00  0.00     0.186 C 
ENDBRANCH  36  38
ENDBRANCH  35  36
ENDBRANCH   7  29
TORSDOF 6
ENDMDL
MODEL 4
REMARK VINA RESULT:      -8.1      4.437      9.883
REMARK  6 active torsions:
REMARK  status: ('A' for Active; 'I' for Inactive)
REMARK    1  A    between atoms: C_10  and  C_7 
REMARK       I    between atoms: N_15  and  C_16 
REMARK    2  A    between atoms: C_16  and  C_18 
REMARK    3  A    between atoms: C_23  and  N_24 
REMARK    4  A    between atoms: N_24  and  S_25 
REMARK    5  A    between atoms: C_32  and  N_33 
REMARK    6  A    between atoms: C_36  and  N_38 
ROOT
HETATM    1  C   UNK N   1      25.311  18.418   3.634  0.00  0.00     0.139 C 
HETATM    2  C   UNK N   1      25.547  19.913   3.405  0.00  0.00     0.032 C 
HETATM    3  C   UNK N   1      24.422  20.486   2.538  0.00  0.00     0.004 C 
HETATM    4  C   UNK N   1      23.018  20.142   3.066  0.00  0.00     0.020 C 
HETATM    5  C   UNK N   1      23.065  19.280   4.329  0.00  0.00     0.127 C 
HETATM    6  N   UNK N   1      23.939  18.144   4.106  0.00  0.00    -0.338 N 
HETATM    7  C   UNK N   1      23.501  16.849   4.326  0.00  0.00     0.256 C 
HETATM    8  O   UNK N   1      24.265  15.916   4.123  0.00  0.00    -0.267 OA
ENDROOT
BRANCH   1   9
HETATM    9  C   UNK N   1      26.395  17.828   4.506  0.00  0.00     0.053 A 
HETATM   10  C   UNK N   1      27.459  17.050   4.050  0.00  0.00     0.079 A 
HETATM   11  C   UNK N   1      28.310  17.037   5.115  0.00  0.00     0.130 A 
HETATM   12  N   UNK N   1      27.785  17.699   6.141  0.00  0.00    -0.250 N 
HETATM   13  N   UNK N   1      29.575  16.577   5.136  0.00  0.00    -0.327 N 
HETATM   14  C   UNK N   1      28.454  17.892   7.299  0.00  0.00     0.128 A 
HETATM   15  N   UNK N   1      26.611  18.196   5.794  0.00  0.00    -0.295 N 
HETATM   16  C   UNK N   1      29.776  17.417   7.388  0.00  0.00    -0.000 A 
HETATM   17  C   UNK N   1      30.525  17.675   8.651  0.00  0.00     0.054 C 
HETATM   18  C   UNK N   1      30.354  16.772   6.239  0.00  0.00     0.112 A 
ATOM     19  HN  UNK N   1      25.987  18.750   6.381  1.00  0.00     0.187 HD
ATOM     20  HN  UNK N   1      29.951  16.081   4.327  1.00  0.00     0.169 HD
BRANCH  18  21
HETATM   21  N   UNK N   1      31.732  16.396   6.153  0.00  0.00    -0.365 N 
HETATM   22  C   UNK N   1      32.723  17.370   5.787  0.00  0.00     0.126 C 
HETATM   23  C   UNK N   1      34.055  16.676   5.977  0.00  0.00     0.046 C 
HETATM   24  C   UNK N   1      33.754  15.458   6.836  0.00  0.00     0.093 C 
HETATM   25  C   UNK N   1      32.278  15.163   6.644  0.00  0.00     0.149 C 
BRANCH  24  26
HETATM   26  N   UNK N   1      34.557  14.332   6.398  0.00  0.00    -0.424 N 
HETATM   27  H   UNK N   1      35.403  14.017   6.872  0.00  0.00     0.150 HD
HETATM   28  H   UNK N   1      34.256  13.825   5.565  0.00  0.00     0.150 HD
ENDBRANCH  24  26
ENDBRANCH  18  21
ENDBRANCH   1   9
BRANCH   7  29
HETATM   29  C   UNK N   1      22.118  16.511   4.808  0.00  0.00     0.061 A 
HETATM   30  C   UNK N   1      21.886  16.253   6.169  0.00  0.00     0.043 A 
HETATM   31  C   UNK N   1      20.598  16.007   6.646  0.00  0.00     0.035 A 
HETATM   32  C   UNK N   1      19.516  16.016   5.771  0.00  0.00     0.026 A 
HETATM   33 Cl   UNK N   1      20.341  15.719   8.351  0.00  0.00    -0.084 Cl
HETATM   34  C   UNK N   1      19.722  16.253   4.414  0.00  0.00     0.033 A 
HETATM   35  C   UNK N   1      21.010  16.499   3.914  0.00  0.00     0.058 A 
BRANCH  35  36
HETATM   36  N   UNK N   1      21.207  16.672   2.509  0.00  0.00    -0.284 N 
HETATM   37  H   UNK N   1      22.000  17.178   2.217  0.00  0.00     0.178 HD
BRANCH  36  38
HETATM   38  S   UNK N   1      20.125  16.041   1.259  0.00  0.00     0.227 S 
HETATM   39  O   UNK N   1      20.315  16.819  -0.052  0.00  0.00    -0.206 OA
HETATM   40  O   UNK N   1      21.390  15.328   0.756  0.00  0.00    -0.206 OA
HETATM   41  C   UNK N   1      20.417  17.833   1.338  0.00  0.00     0.186 C 
ENDBRANCH  36  38
ENDBRANCH  35  36
ENDBRANCH   7  29
TORSDOF 6
ENDMDL
MODEL 5
REMARK VINA RESULT:      -8.1      7.758     13.670
REMARK  6 active torsions:
REMARK  status: ('A' for Active; 'I' for Inactive)
REMARK    1  A    between atoms: C_10  and  C_7 
REMARK       I    between atoms: N_15  and  C_16 
REMARK    2  A    between atoms: C_16  and  C_18 
REMARK    3  A    between atoms: C_23  and  N_24 
REMARK    4  A    between atoms: N_24  and  S_25 
REMARK    5  A    between atoms: C_32  and  N_33 
REMARK    6  A    between atoms: C_36  and  N_38 
ROOT
HETATM    1  C   UNK N   1      35.163  12.356   8.454  0.00  0.00     0.139 C 
HETATM    2  C   UNK N   1      36.605  12.076   8.026  0.00  0.00     0.032 C 
HETATM    3  C   UNK N   1      36.638  11.692   6.544  0.00  0.00     0.004 C 
HETATM    4  C   UNK N   1      35.896  12.695   5.643  0.00  0.00     0.020 C 
HETATM    5  C   UNK N   1      35.269  13.841   6.440  0.00  0.00     0.127 C 
HETATM    6  N   UNK N   1      34.489  13.296   7.536  0.00  0.00    -0.338 N 
HETATM    7  C   UNK N   1      33.162  13.645   7.712  0.00  0.00     0.256 C 
HETATM    8  O   UNK N   1      32.535  13.163   8.645  0.00  0.00    -0.267 OA
ENDROOT
BRANCH   1   9
HETATM    9  C   UNK N   1      35.100  12.760   9.909  0.00  0.00     0.053 A 
HETATM   10  C   UNK N   1      34.651  11.948  10.950  0.00  0.00     0.079 A 
HETATM   11  C   UNK N   1      35.080  12.608  12.063  0.00  0.00     0.130 A 
HETATM   12  N   UNK N   1      35.685  13.744  11.729  0.00  0.00    -0.250 N 
HETATM   13  N   UNK N   1      35.066  12.154  13.330  0.00  0.00    -0.327 N 
HETATM   14  C   UNK N   1      36.260  14.555  12.643  0.00  0.00     0.128 A 
HETATM   15  N   UNK N   1      35.712  13.861  10.413  0.00  0.00    -0.295 N 
HETATM   16  C   UNK N   1      36.262  14.142  13.989  0.00  0.00    -0.000 A 
HETATM   17  C   UNK N   1      36.941  15.019  14.985  0.00  0.00     0.054 C 
HETATM   18  C   UNK N   1      35.672  12.873  14.319  0.00  0.00     0.112 A 
ATOM     19  HN  UNK N   1      36.115  14.631   9.879  1.00  0.00     0.187 HD
ATOM     20  HN  UNK N   1      34.602  11.273  13.551  1.00  0.00     0.169 HD
BRANCH  18  21
HETATM   21  N   UNK N   1      35.757  12.275  15.617  0.00  0.00    -0.365 N 
HETATM   22  C   UNK N   1      34.980  12.803  16.705  0.00  0.00     0.126 C 
HETATM   23  C   UNK N   1      35.176  11.827  17.846  0.00  0.00     0.046 C 
HETATM   24  C   UNK N   1      35.741  10.569  17.206  0.00  0.00     0.093 C 
HETATM   25  C   UNK N   1      36.373  11.010  15.898  0.00  0.00     0.149 C 
BRANCH  24  26
HETATM   26  N   UNK N   1      36.738   9.975  18.075  0.00  0.00    -0.424 N 
HETATM   27  H   UNK N   1      37.249  10.491  18.792  0.00  0.00     0.150 HD
HETATM   28  H   UNK N   1      36.940   8.981  17.964  0.00  0.00     0.150 HD
ENDBRANCH  24  26
ENDBRANCH  18  21
ENDBRANCH   1   9
BRANCH   7  29
HETATM   29  C   UNK N   1      32.426  14.598   6.811  0.00  0.00     0.061 A 
HETATM   30  C   UNK N   1      31.613  14.108   5.777  0.00  0.00     0.043 A 
HETATM   31  C   UNK N   1      30.867  14.974   4.977  0.00  0.00     0.035 A 
HETATM   32  C   UNK N   1      30.918  16.347   5.196  0.00  0.00     0.026 A 
HETATM   33 Cl   UNK N   1      29.841  14.329   3.716  0.00  0.00    -0.084 Cl
HETATM   34  C   UNK N   1      31.729  16.859   6.206  0.00  0.00     0.033 A 
HETATM   35  C   UNK N   1      32.490  16.005   7.020  0.00  0.00     0.058 A 
BRANCH  35  36
HETATM   36  N   UNK N   1      33.368  16.555   8.005  0.00  0.00    -0.284 N 
HETATM   37  H   UNK N   1      33.755  15.939   8.668  0.00  0.00     0.178 HD
BRANCH  36  38
HETATM   38  S   UNK N   1      33.804  18.266   8.115  0.00  0.00     0.227 S 
HETATM   39  O   UNK N   1      35.201  18.421   8.734  0.00  0.00    -0.206 OA
HETATM   40  O   UNK N   1      34.639  17.965   6.861  0.00  0.00    -0.206 OA
HETATM   41  C   UNK N   1      34.293  17.152   9.464  0.00  0.00     0.186 C 
ENDBRANCH  36  38
ENDBRANCH  35  36
ENDBRANCH   7  29
TORSDOF 6
ENDMDL
MODEL 6
REMARK VINA RESULT:      -8.0      3.995      8.937
REMARK  6 active torsions:
REMARK  status: ('A' for Active; 'I' for Inactive)
REMARK    1  A    between atoms: C_10  and  C_7 
REMARK       I    between atoms: N_15  and  C_16 
REMARK    2  A    between atoms: C_16  and  C_18 
REMARK    3  A    between atoms: C_23  and  N_24 
REMARK    4  A    between atoms: N_24  and  S_25 
REMARK    5  A    between atoms: C_32  and  N_33 
REMARK    6  A    between atoms: C_36  and  N_38 
ROOT
HETATM    1  C   UNK N   1      26.501  18.111   4.076  0.00  0.00     0.139 C 
HETATM    2  C   UNK N   1      25.518  18.956   4.891  0.00  0.00     0.032 C 
HETATM    3  C   UNK N   1      24.165  19.006   4.176  0.00  0.00     0.004 C 
HETATM    4  C   UNK N   1      23.633  17.614   3.792  0.00  0.00     0.020 C 
HETATM    5  C   UNK N   1      24.593  16.492   4.190  0.00  0.00     0.127 C 
HETATM    6  N   UNK N   1      25.925  16.802   3.706  0.00  0.00    -0.338 N 
HETATM    7  C   UNK N   1      26.630  15.904   2.923  0.00  0.00     0.256 C 
HETATM    8  O   UNK N   1      27.749  16.202   2.529  0.00  0.00    -0.267 OA
ENDROOT
BRANCH   1   9
HETATM    9  C   UNK N   1      27.842  18.023   4.768  0.00  0.00     0.053 A 
HETATM   10  C   UNK N   1      28.051  17.531   6.055  0.00  0.00     0.079 A 
HETATM   11  C   UNK N   1      29.402  17.353   6.102  0.00  0.00     0.130 A 
HETATM   12  N   UNK N   1      29.965  17.754   4.967  0.00  0.00    -0.250 N 
HETATM   13  N   UNK N   1      30.103  16.724   7.063  0.00  0.00    -0.327 N 
HETATM   14  C   UNK N   1      31.289  17.625   4.729  0.00  0.00     0.128 A 
HETATM   15  N   UNK N   1      29.030  18.168   4.130  0.00  0.00    -0.295 N 
HETATM   16  C   UNK N   1      32.079  16.990   5.706  0.00  0.00    -0.000 A 
HETATM   17  C   UNK N   1      33.530  16.808   5.416  0.00  0.00     0.054 C 
HETATM   18  C   UNK N   1      31.438  16.493   6.893  0.00  0.00     0.112 A 
ATOM     19  HN  UNK N   1      29.174  18.528   3.186  1.00  0.00     0.187 HD
ATOM     20  HN  UNK N   1      29.638  16.420   7.918  1.00  0.00     0.169 HD
BRANCH  18  21
HETATM   21  N   UNK N   1      32.102  15.692   7.875  0.00  0.00    -0.365 N 
HETATM   22  C   UNK N   1      32.390  14.310   7.603  0.00  0.00     0.126 C 
HETATM   23  C   UNK N   1      33.244  13.843   8.763  0.00  0.00     0.046 C 
HETATM   24  C   UNK N   1      33.734  15.115   9.438  0.00  0.00     0.093 C 
HETATM   25  C   UNK N   1      32.749  16.203   9.049  0.00  0.00     0.149 C 
BRANCH  24  26
HETATM   26  N   UNK N   1      33.751  14.937  10.876  0.00  0.00    -0.424 N 
HETATM   27  H   UNK N   1      33.216  15.511  11.528  0.00  0.00     0.150 HD
HETATM   28  H   UNK N   1      34.333  14.192  11.260  0.00  0.00     0.150 HD
ENDBRANCH  24  26
ENDBRANCH  18  21
ENDBRANCH   1   9
BRANCH   7  29
HETATM   29  C   UNK N   1      26.096  14.558   2.517  0.00  0.00     0.061 A 
HETATM   30  C   UNK N   1      25.010  14.465   1.633  0.00  0.00     0.043 A 
HETATM   31  C   UNK N   1      24.546  13.227   1.189  0.00  0.00     0.035 A 
HETATM   32  C   UNK N   1      25.161  12.055   1.621  0.00  0.00     0.026 A 
HETATM   33 Cl   UNK N   1      23.210  13.148   0.064  0.00  0.00    -0.084 Cl
HETATM   34  C   UNK N   1      26.230  12.120   2.511  0.00  0.00     0.033 A 
HETATM   35  C   UNK N   1      26.710  13.356   2.972  0.00  0.00     0.058 A 
BRANCH  35  36
HETATM   36  N   UNK N   1      27.762  13.397   3.937  0.00  0.00    -0.284 N 
HETATM   37  H   UNK N   1      27.653  13.999   4.709  0.00  0.00     0.178 HD
BRANCH  36  38
HETATM   38  S   UNK N   1      29.249  12.442   3.841  0.00  0.00     0.227 S 
HETATM   39  O   UNK N   1      30.076  12.613   5.125  0.00  0.00    -0.206 OA
HETATM   40  O   UNK N   1      28.480  11.458   4.737  0.00  0.00    -0.206 OA
HETATM   41  C   UNK N   1      29.311  14.077   4.632  0.00  0.00     0.186 C 
ENDBRANCH  36  38
ENDBRANCH  35  36
ENDBRANCH   7  29
TORSDOF 6
ENDMDL
MODEL 7
REMARK VINA RESULT:      -7.9      5.374     11.135
REMARK  6 active torsions:
REMARK  status: ('A' for Active; 'I' for Inactive)
REMARK    1  A    between atoms: C_10  and  C_7 
REMARK       I    between atoms: N_15  and  C_16 
REMARK    2  A    between atoms: C_16  and  C_18 
REMARK    3  A    between atoms: C_23  and  N_24 
REMARK    4  A    between atoms: N_24  and  S_25 
REMARK    5  A    between atoms: C_32  and  N_33 
REMARK    6  A    between atoms: C_36  and  N_38 
ROOT
HETATM    1  C   UNK N   1      32.439  15.453   5.304  0.00  0.00     0.139 C 
HETATM    2  C   UNK N   1      33.680  15.835   4.493  0.00  0.00     0.032 C 
HETATM    3  C   UNK N   1      33.289  16.070   3.032  0.00  0.00     0.004 C 
HETATM    4  C   UNK N   1      32.107  17.042   2.872  0.00  0.00     0.020 C 
HETATM    5  C   UNK N   1      31.571  17.536   4.217  0.00  0.00     0.127 C 
HETATM    6  N   UNK N   1      31.327  16.399   5.086  0.00  0.00    -0.338 N 
HETATM    7  C   UNK N   1      30.094  16.209   5.686  0.00  0.00     0.256 C 
HETATM    8  O   UNK N   1      29.923  15.237   6.408  0.00  0.00    -0.267 OA
ENDROOT
BRANCH   1   9
HETATM    9  C   UNK N   1      32.789  15.236   6.758  0.00  0.00     0.053 A 
HETATM   10  C   UNK N   1      32.963  13.993   7.366  0.00  0.00     0.079 A 
HETATM   11  C   UNK N   1      33.570  14.308   8.546  0.00  0.00     0.130 A 
HETATM   12  N   UNK N   1      33.701  15.625   8.666  0.00  0.00    -0.250 N 
HETATM   13  N   UNK N   1      34.120  13.453   9.427  0.00  0.00    -0.327 N 
HETATM   14  C   UNK N   1      34.330  16.199   9.715  0.00  0.00     0.128 A 
HETATM   15  N   UNK N   1      33.232  16.219   7.582  0.00  0.00    -0.295 N 
HETATM   16  C   UNK N   1      34.912  15.355  10.681  0.00  0.00    -0.000 A 
HETATM   17  C   UNK N   1      35.646  15.993  11.810  0.00  0.00     0.054 C 
HETATM   18  C   UNK N   1      34.828  13.932  10.492  0.00  0.00     0.112 A 
ATOM     19  HN  UNK N   1      33.207  17.222   7.400  1.00  0.00     0.187 HD
ATOM     20  HN  UNK N   1      34.009  12.447   9.300  1.00  0.00     0.169 HD
BRANCH  18  21
HETATM   21  N   UNK N   1      35.515  12.983  11.312  0.00  0.00    -0.365 N 
HETATM   22  C   UNK N   1      36.894  12.671  11.052  0.00  0.00     0.126 C 
HETATM   23  C   UNK N   1      37.330  11.792  12.205  0.00  0.00     0.046 C 
HETATM   24  C   UNK N   1      36.271  11.986  13.280  0.00  0.00     0.093 C 
HETATM   25  C   UNK N   1      35.026  12.471  12.560  0.00  0.00     0.149 C 
BRANCH  24  26
HETATM   26  N   UNK N   1      36.011  10.728  13.952  0.00  0.00    -0.424 N 
HETATM   27  H   UNK N   1      36.093   9.815  13.504  0.00  0.00     0.150 HD
HETATM   28  H   UNK N   1      35.729  10.757  14.932  0.00  0.00     0.150 HD
ENDBRANCH  24  26
ENDBRANCH  18  21
ENDBRANCH   1   9
BRANCH   7  29
HETATM   29  C   UNK N   1      28.927  17.140   5.501  0.00  0.00     0.061 A 
HETATM   30  C   UNK N   1      28.100  17.022   4.374  0.00  0.00     0.043 A 
HETATM   31  C   UNK N   1      26.972  17.829   4.220  0.00  0.00     0.035 A 
HETATM   32  C   UNK N   1      26.649  18.769   5.194  0.00  0.00     0.026 A 
HETATM   33 Cl   UNK N   1      25.946  17.636   2.818  0.00  0.00    -0.084 Cl
HETATM   34  C   UNK N   1      27.463  18.916   6.315  0.00  0.00     0.033 A 
HETATM   35  C   UNK N   1      28.604  18.116   6.486  0.00  0.00     0.058 A 
BRANCH  35  36
HETATM   36  N   UNK N   1      29.462  18.331   7.608  0.00  0.00    -0.284 N 
HETATM   37  H   UNK N   1      30.213  18.959   7.496  0.00  0.00     0.178 HD
BRANCH  36  38
HETATM   38  S   UNK N   1      29.272  17.545   9.181  0.00  0.00     0.227 S 
HETATM   39  O   UNK N   1      29.587  18.534  10.313  0.00  0.00    -0.206 OA
HETATM   40  O   UNK N   1      27.929  18.292   9.208  0.00  0.00    -0.206 OA
HETATM   41  C   UNK N   1      30.632  18.729   8.956  0.00  0.00     0.186 C 
ENDBRANCH  36  38
ENDBRANCH  35  36
ENDBRANCH   7  29
TORSDOF 6
ENDMDL
MODEL 8
REMARK VINA RESULT:      -7.9     13.230     15.700
REMARK  6 active torsions:
REMARK  status: ('A' for Active; 'I' for Inactive)
REMARK    1  A    between atoms: C_10  and  C_7 
REMARK       I    between atoms: N_15  and  C_16 
REMARK    2  A    between atoms: C_16  and  C_18 
REMARK    3  A    between atoms: C_23  and  N_24 
REMARK    4  A    between atoms: N_24  and  S_25 
REMARK    5  A    between atoms: C_32  and  N_33 
REMARK    6  A    between atoms: C_36  and  N_38 
ROOT
HETATM    1  C   UNK N   1      27.633  26.744  -5.142  0.00  0.00     0.139 C 
HETATM    2  C   UNK N   1      26.731  26.937  -3.920  0.00  0.00     0.032 C 
HETATM    3  C   UNK N   1      25.482  27.726  -4.321  0.00  0.00     0.004 C 
HETATM    4  C   UNK N   1      24.764  27.138  -5.549  0.00  0.00     0.020 C 
HETATM    5  C   UNK N   1      25.479  25.907  -6.109  0.00  0.00     0.127 C 
HETATM    6  N   UNK N   1      26.886  26.211  -6.299  0.00  0.00    -0.338 N 
HETATM    7  C   UNK N   1      27.502  26.010  -7.521  0.00  0.00     0.256 C 
HETATM    8  O   UNK N   1      28.689  26.281  -7.645  0.00  0.00    -0.267 OA
ENDROOT
BRANCH   1   9
HETATM    9  C   UNK N   1      28.867  25.947  -4.783  0.00  0.00     0.053 A 
HETATM   10  C   UNK N   1      28.884  24.586  -4.481  0.00  0.00     0.079 A 
HETATM   11  C   UNK N   1      30.209  24.272  -4.550  0.00  0.00     0.130 A 
HETATM   12  N   UNK N   1      30.933  25.355  -4.814  0.00  0.00    -0.250 N 
HETATM   13  N   UNK N   1      30.752  23.041  -4.522  0.00  0.00    -0.327 N 
HETATM   14  C   UNK N   1      32.270  25.307  -4.999  0.00  0.00     0.128 A 
HETATM   15  N   UNK N   1      30.134  26.397  -4.964  0.00  0.00    -0.295 N 
HETATM   16  C   UNK N   1      32.899  24.048  -4.964  0.00  0.00    -0.000 A 
HETATM   17  C   UNK N   1      34.367  23.996  -5.216  0.00  0.00     0.054 C 
HETATM   18  C   UNK N   1      32.088  22.879  -4.755  0.00  0.00     0.112 A 
ATOM     19  HN  UNK N   1      30.415  27.354  -5.174  1.00  0.00     0.187 HD
ATOM     20  HN  UNK N   1      30.167  22.229  -4.326  1.00  0.00     0.169 HD
BRANCH  18  21
HETATM   21  N   UNK N   1      32.585  21.541  -4.860  0.00  0.00    -0.365 N 
HETATM   22  C   UNK N   1      32.779  20.945  -6.154  0.00  0.00     0.126 C 
HETATM   23  C   UNK N   1      33.475  19.627  -5.886  0.00  0.00     0.046 C 
HETATM   24  C   UNK N   1      34.005  19.735  -4.464  0.00  0.00     0.093 C 
HETATM   25  C   UNK N   1      33.157  20.792  -3.779  0.00  0.00     0.149 C 
BRANCH  24  26
HETATM   26  N   UNK N   1      33.869  18.460  -3.788  0.00  0.00    -0.424 N 
HETATM   27  H   UNK N   1      34.652  17.937  -3.394  0.00  0.00     0.150 HD
HETATM   28  H   UNK N   1      32.934  18.061  -3.700  0.00  0.00     0.150 HD
ENDBRANCH  24  26
ENDBRANCH  18  21
ENDBRANCH   1   9
BRANCH   7  29
HETATM   29  C   UNK N   1      26.793  25.468  -8.731  0.00  0.00     0.061 A 
HETATM   30  C   UNK N   1      25.752  26.199  -9.327  0.00  0.00     0.043 A 
HETATM   31  C   UNK N   1      25.130  25.747 -10.491  0.00  0.00     0.035 A 
HETATM   32  C   UNK N   1      25.537  24.556 -11.084  0.00  0.00     0.026 A 
HETATM   33 Cl   UNK N   1      23.857  26.697 -11.223  0.00  0.00    -0.084 Cl
HETATM   34  C   UNK N   1      26.557  23.805 -10.503  0.00  0.00     0.033 A 
HETATM   35  C   UNK N   1      27.194  24.241  -9.331  0.00  0.00     0.058 A 
BRANCH  35  36
HETATM   36  N   UNK N   1      28.189  23.421  -8.714  0.00  0.00    -0.284 N 
HETATM   37  H   UNK N   1      29.118  23.748  -8.719  0.00  0.00     0.178 HD
BRANCH  36  38
HETATM   38  S   UNK N   1      27.868  21.859  -7.948  0.00  0.00     0.227 S 
HETATM   39  O   UNK N   1      28.741  21.691  -6.695  0.00  0.00    -0.206 OA
HETATM   40  O   UNK N   1      27.025  22.696  -6.973  0.00  0.00    -0.206 OA
HETATM   41  C   UNK N   1      29.575  22.482  -7.979  0.00  0.00     0.186 C 
ENDBRANCH  36  38
ENDBRANCH  35  36
ENDBRANCH   7  29
TORSDOF 6
ENDMDL
MODEL 9
REMARK VINA RESULT:      -7.9     13.674     17.025
REMARK  6 active torsions:
REMARK  status: ('A' for Active; 'I' for Inactive)
REMARK    1  A    between atoms: C_10  and  C_7 
REMARK       I    between atoms: N_15  and  C_16 
REMARK    2  A    between atoms: C_16  and  C_18 
REMARK    3  A    between atoms: C_23  and  N_24 
REMARK    4  A    between atoms: N_24  and  S_25 
REMARK    5  A    between atoms: C_32  and  N_33 
REMARK    6  A    between atoms: C_36  and  N_38 
ROOT
HETATM    1  C   UNK N   1      35.024  12.690  16.881  0.00  0.00     0.139 C 
HETATM    2  C   UNK N   1      35.557  13.742  17.857  0.00  0.00     0.032 C 
HETATM    3  C   UNK N   1      35.051  13.439  19.270  0.00  0.00     0.004 C 
HETATM    4  C   UNK N   1      35.309  11.986  19.705  0.00  0.00     0.020 C 
HETATM    5  C   UNK N   1      35.994  11.162  18.613  0.00  0.00     0.127 C 
HETATM    6  N   UNK N   1      35.268  11.317  17.366  0.00  0.00    -0.338 N 
HETATM    7  C   UNK N   1      34.819  10.215  16.658  0.00  0.00     0.256 C 
HETATM    8  O   UNK N   1      34.207  10.384  15.612  0.00  0.00    -0.267 OA
ENDROOT
BRANCH   1   9
HETATM    9  C   UNK N   1      35.526  12.949  15.479  0.00  0.00     0.053 A 
HETATM   10  C   UNK N   1      36.829  12.721  15.037  0.00  0.00     0.079 A 
HETATM   11  C   UNK N   1      36.710  12.787  13.680  0.00  0.00     0.130 A 
HETATM   12  N   UNK N   1      35.461  13.084  13.335  0.00  0.00    -0.250 N 
HETATM   13  N   UNK N   1      37.643  12.456  12.769  0.00  0.00    -0.327 N 
HETATM   14  C   UNK N   1      35.060  13.145  12.046  0.00  0.00     0.128 A 
HETATM   15  N   UNK N   1      34.713  13.187  14.419  0.00  0.00    -0.295 N 
HETATM   16  C   UNK N   1      35.997  12.826  11.045  0.00  0.00    -0.000 A 
HETATM   17  C   UNK N   1      35.536  12.849   9.627  0.00  0.00     0.054 C 
HETATM   18  C   UNK N   1      37.321  12.431  11.442  0.00  0.00     0.112 A 
ATOM     19  HN  UNK N   1      33.717  13.403  14.453  1.00  0.00     0.187 HD
ATOM     20  HN  UNK N   1      38.589  12.224  13.069  1.00  0.00     0.169 HD
BRANCH  18  21
HETATM   21  N   UNK N   1      38.305  11.930  10.531  0.00  0.00    -0.365 N 
HETATM   22  C   UNK N   1      38.337  10.531  10.204  0.00  0.00     0.126 C 
HETATM   23  C   UNK N   1      39.362  10.402   9.097  0.00  0.00     0.046 C 
HETATM   24  C   UNK N   1      39.566  11.816   8.573  0.00  0.00     0.093 C 
HETATM   25  C   UNK N   1      39.139  12.745   9.696  0.00  0.00     0.149 C 
BRANCH  24  26
HETATM   26  N   UNK N   1      40.963  12.025   8.246  0.00  0.00    -0.424 N 
HETATM   27  H   UNK N   1      41.717  12.014   8.933  0.00  0.00     0.150 HD
HETATM   28  H   UNK N   1      41.207  12.193   7.269  0.00  0.00     0.150 HD
ENDBRANCH  24  26
ENDBRANCH  18  21
ENDBRANCH   1   9
BRANCH   7  29
HETATM   29  C   UNK N   1      35.040   8.795  17.102  0.00  0.00     0.061 A 
HETATM   30  C   UNK N   1      34.594   8.371  18.363  0.00  0.00     0.043 A 
HETATM   31  C   UNK N   1      34.726   7.041  18.764  0.00  0.00     0.035 A 
HETATM   32  C   UNK N   1      35.307   6.108  17.909  0.00  0.00     0.026 A 
HETATM   33 Cl   UNK N   1      34.133   6.539  20.330  0.00  0.00    -0.084 Cl
HETATM   34  C   UNK N   1      35.772   6.508  16.658  0.00  0.00     0.033 A 
HETATM   35  C   UNK N   1      35.651   7.842  16.238  0.00  0.00     0.058 A 
BRANCH  35  36
HETATM   36  N   UNK N   1      36.197   8.244  14.980  0.00  0.00    -0.284 N 
HETATM   37  H   UNK N   1      35.567   8.525  14.276  0.00  0.00     0.178 HD
BRANCH  36  38
HETATM   38  S   UNK N   1      37.924   8.270  14.598  0.00  0.00     0.227 S 
HETATM   39  O   UNK N   1      38.276   9.539  13.808  0.00  0.00    -0.206 OA
HETATM   40  O   UNK N   1      38.002   9.254  15.776  0.00  0.00    -0.206 OA
HETATM   41  C   UNK N   1      36.747   8.884  13.358  0.00  0.00     0.186 C 
ENDBRANCH  36  38
ENDBRANCH  35  36
ENDBRANCH   7  29
TORSDOF 6
ENDMDL
