MODEL 1
REMARK VINA RESULT:      -7.7      0.000      0.000
REMARK  19 active torsions:
REMARK  status: ('A' for Active; 'I' for Inactive)
REMARK    1  A    between atoms: C_3  and  C_2 
REMARK    2  A    between atoms: C_5  and  C_6 
REMARK    3  A    between atoms: C_5  and  N_9 
REMARK    4  A    between atoms: C_6  and  O_8 
REMARK       I    between atoms: N_9  and  C_10 
REMARK    5  A    between atoms: C_12  and  C_10 
REMARK    6  A    between atoms: C_14  and  O_34 
REMARK       I    between atoms: N_16  and  C_17 
REMARK    7  A    between atoms: C_17  and  C_19 
REMARK    8  A    between atoms: C_19  and  C_20 
REMARK    9  A    between atoms: C_19  and  N_24 
REMARK       I    between atoms: N_24  and  C_25 
REMARK   10  A    between atoms: C_25  and  O_27 
REMARK   11  A    between atoms: C_28  and  O_27 
REMARK   12  A    between atoms: O_34  and  C_35 
REMARK   13  A    between atoms: C_37  and  C_56 
REMARK   14  A    between atoms: C_44  and  O_47 
REMARK   15  A    between atoms: O_47  and  C_48 
REMARK   16  A    between atoms: C_48  and  C_49 
REMARK   17  A    between atoms: C_49  and  N_50 
REMARK   18  A    between atoms: C_59  and  N_62 
REMARK   19  A    between atoms: N_62  and  C_63 
ROOT
HETATM    1  C   UNK N   1      36.140  13.380  12.305  0.00  0.00     0.181 A 
HETATM    2  C   UNK N   1      35.912  14.865  12.114  0.00  0.00     0.069 A 
HETATM    3  C   UNK N   1      34.761  15.002  11.119  0.00  0.00     0.149 A 
HETATM    4  C   UNK N   1      34.265  13.585  10.815  0.00  0.00     0.159 A 
HETATM    5  N   UNK N   1      35.154  12.704  11.509  0.00  0.00    -0.334 N 
HETATM    6  C   UNK N   1      35.348  11.412  11.125  0.00  0.00     0.244 C 
HETATM    7  O   UNK N   1      36.120  10.701  11.755  0.00  0.00    -0.271 OA
ENDROOT
BRANCH   3   8
HETATM    8  O   UNK N   1      35.191  15.749  10.026  0.00  0.00    -0.343 OA
BRANCH   8   9
HETATM    9  C   UNK N   1      35.069  15.501   8.689  0.00  0.00     0.084 A 
HETATM   10  C   UNK N   1      36.015  14.757   7.981  0.00  0.00     0.069 A 
HETATM   11  C   UNK N   1      35.873  14.539   6.611  0.00  0.00     0.062 A 
HETATM   12  N   UNK N   1      34.793  15.042   5.956  0.00  0.00    -0.352 N 
HETATM   13  C   UNK N   1      33.824  15.742   6.611  0.00  0.00     0.070 A 
ATOM     14  HN  UNK N   1      34.705  14.893   4.950  1.00  0.00     0.166 HD
HETATM   15  C   UNK N   1      33.955  15.993   7.998  0.00  0.00     0.026 A 
HETATM   16  C   UNK N   1      32.691  16.206   5.922  0.00  0.00     0.095 A 
HETATM   17  C   UNK N   1      32.972  16.725   8.668  0.00  0.00     0.019 A 
HETATM   18  C   UNK N   1      31.853  17.181   7.981  0.00  0.00     0.039 A 
HETATM   19  C   UNK N   1      31.695  16.915   6.619  0.00  0.00     0.092 A 
HETATM   20 Cl   UNK N   1      32.506  15.884   4.199  0.00  0.00    -0.079 Cl
BRANCH  11  21
HETATM   21  C   UNK N   1      36.930  13.831   5.877  0.00  0.00     0.067 A 
HETATM   22  C   UNK N   1      36.722  13.274   4.596  0.00  0.00     0.085 A 
HETATM   23  S   UNK N   1      38.115  12.450   4.263  0.00  0.00    -0.064 SA
HETATM   24  C   UNK N   1      38.921  12.777   5.663  0.00  0.00     0.145 A 
HETATM   25  N   UNK N   1      38.154  13.560   6.455  0.00  0.00    -0.335 N 
ATOM     26  HN  UNK N   1      38.445  13.908   7.368  1.00  0.00     0.168 HD
BRANCH  24  27
HETATM   27  N   UNK N   1      40.147  12.209   6.091  0.00  0.00    -0.367 N 
HETATM   28  H   UNK N   1      40.406  11.328   5.737  0.00  0.00     0.162 HD
BRANCH  27  29
HETATM   29  C   UNK N   1      41.038  12.866   7.026  0.00  0.00     0.075 C 
HETATM   30  C   UNK N   1      41.949  11.898   7.757  0.00  0.00     0.032 C 
HETATM   31  C   UNK N   1      41.884  13.877   6.283  0.00  0.00     0.032 C 
ENDBRANCH  27  29
ENDBRANCH  24  27
ENDBRANCH  11  21
BRANCH  19  32
HETATM   32  O   UNK N   1      30.581  17.340   5.990  0.00  0.00    -0.348 OA
BRANCH  32  33
HETATM   33  C   UNK N   1      29.408  16.627   6.091  0.00  0.00     0.206 C 
BRANCH  33  34
HETATM   34  C   UNK N   1      28.270  17.534   6.547  0.00  0.00     0.299 C 
BRANCH  34  35
HETATM   35  N   UNK N   1      28.256  18.791   5.809  0.00  0.00     0.094 N 
HETATM   36  C   UNK N   1      27.427  18.618   4.613  0.00  0.00     0.298 C 
HETATM   37  C   UNK N   1      27.235  19.972   3.930  0.00  0.00     0.198 C 
HETATM   38  O   UNK N   1      26.537  20.825   4.802  0.00  0.00    -0.388 OA
HETATM   39  C   UNK N   1      27.395  21.085   5.887  0.00  0.00     0.198 C 
HETATM   40  C   UNK N   1      27.629  19.792   6.677  0.00  0.00     0.298 C 
ENDBRANCH  34  35
ENDBRANCH  33  34
ENDBRANCH  32  33
ENDBRANCH  19  32
ENDBRANCH   8   9
ENDBRANCH   3   8
BRANCH   1  41
HETATM   41  C   UNK N   1      36.322  12.993  13.736  0.00  0.00     0.241 C 
HETATM   42  N   UNK N   1      35.427  13.413  14.664  0.00  0.00    -0.340 N 
HETATM   43  H   UNK N   1      34.522  13.676  14.379  0.00  0.00     0.163 HD
HETATM   44  O   UNK N   1      37.401  12.535  14.084  0.00  0.00    -0.271 OA
BRANCH  42  45
HETATM   45  C   UNK N   1      35.779  13.483  16.065  0.00  0.00     0.122 A 
HETATM   46  C   UNK N   1      34.578  13.326  16.973  0.00  0.00     0.050 A 
HETATM   47  C   UNK N   1      35.654  12.250  16.957  0.00  0.00     0.027 A 
BRANCH  47  48
HETATM   48  C   UNK N   1      35.066  11.038  16.257  0.00  0.00     0.003 C 
HETATM   49  C   UNK N   1      35.630   9.773  16.873  0.00  0.00     0.005 C 
ENDBRANCH  47  48
BRANCH  45  50
HETATM   50  C   UNK N   1      36.721  14.593  16.452  0.00  0.00     0.169 C 
HETATM   51  O   UNK N   1      36.511  15.284  17.436  0.00  0.00    -0.648 OA
BRANCH  50  52
HETATM   52  O   UNK N   1      37.797  14.844  15.681  0.00  0.00    -0.775 OA
HETATM   53  H   UNK N   1      38.728  14.960  15.687  0.00  0.00     0.167 HD
ENDBRANCH  50  52
ENDBRANCH  45  50
ENDBRANCH  42  45
ENDBRANCH   1  41
BRANCH   6  54
HETATM   54  C   UNK N   1      34.836  10.921   9.778  0.00  0.00     0.186 C 
BRANCH  54  55
HETATM   55  C   UNK N   1      36.107  10.661   8.885  0.00  0.00    -0.022 C 
HETATM   56  C   UNK N   1      37.230  11.633   9.213  0.00  0.00     0.017 C 
HETATM   57  C   UNK N   1      35.769  10.813   7.406  0.00  0.00     0.017 C 
HETATM   58  C   UNK N   1      36.650   9.257   9.003  0.00  0.00     0.017 C 
ENDBRANCH  54  55
BRANCH  54  59
HETATM   59  N   UNK N   1      34.030   9.737  10.029  0.00  0.00    -0.323 N 
HETATM   60  C   UNK N   1      32.682   9.563   9.896  0.00  0.00     0.361 C 
HETATM   61  O   UNK N   1      31.961  10.467   9.526  0.00  0.00    -0.238 OA
HETATM   62  H   UNK N   1      34.528   8.946  10.339  0.00  0.00     0.165 HD
BRANCH  60  63
HETATM   63  O   UNK N   1      32.138   8.341  10.116  0.00  0.00    -0.299 OA
BRANCH  63  64
HETATM   64  C   UNK N   1      31.235   7.757   9.253  0.00  0.00     0.134 C 
HETATM   65  C   UNK N   1      31.828   6.545   8.587  0.00  0.00     0.037 C 
HETATM   66  C   UNK N   1      30.622   5.735   8.130  0.00  0.00    -0.008 A 
HETATM   67  C   UNK N   1      30.115   4.859   9.259  0.00  0.00     0.010 A 
HETATM   68  C   UNK N   1      29.450   6.190   8.998  0.00  0.00    -0.008 A 
HETATM   69  C   UNK N   1      30.016   7.207   9.960  0.00  0.00     0.037 C 
ENDBRANCH  63  64
ENDBRANCH  60  63
ENDBRANCH  54  59
ENDBRANCH   6  54
TORSDOF 19
ENDMDL
MODEL 2
REMARK VINA RESULT:      -7.7      6.500     12.224
REMARK  19 active torsions:
REMARK  status: ('A' for Active; 'I' for Inactive)
REMARK    1  A    between atoms: C_3  and  C_2 
REMARK    2  A    between atoms: C_5  and  C_6 
REMARK    3  A    between atoms: C_5  and  N_9 
REMARK    4  A    between atoms: C_6  and  O_8 
REMARK       I    between atoms: N_9  and  C_10 
REMARK    5  A    between atoms: C_12  and  C_10 
REMARK    6  A    between atoms: C_14  and  O_34 
REMARK       I    between atoms: N_16  and  C_17 
REMARK    7  A    between atoms: C_17  and  C_19 
REMARK    8  A    between atoms: C_19  and  C_20 
REMARK    9  A    between atoms: C_19  and  N_24 
REMARK       I    between atoms: N_24  and  C_25 
REMARK   10  A    between atoms: C_25  and  O_27 
REMARK   11  A    between atoms: C_28  and  O_27 
REMARK   12  A    between atoms: O_34  and  C_35 
REMARK   13  A    between atoms: C_37  and  C_56 
REMARK   14  A    between atoms: C_44  and  O_47 
REMARK   15  A    between atoms: O_47  and  C_48 
REMARK   16  A    between atoms: C_48  and  C_49 
REMARK   17  A    between atoms: C_49  and  N_50 
REMARK   18  A    between atoms: C_59  and  N_62 
REMARK   19  A    between atoms: N_62  and  C_63 
ROOT
HETATM    1  C   UNK N   1      24.719  14.693   5.859  0.00  0.00     0.181 A 
HETATM    2  C   UNK N   1      25.806  15.599   6.401  0.00  0.00     0.069 A 
HETATM    3  C   UNK N   1      25.806  16.848   5.522  0.00  0.00     0.149 A 
HETATM    4  C   UNK N   1      24.645  16.697   4.533  0.00  0.00     0.159 A 
HETATM    5  N   UNK N   1      24.100  15.395   4.770  0.00  0.00    -0.334 N 
HETATM    6  C   UNK N   1      23.404  14.712   3.819  0.00  0.00     0.244 C 
HETATM    7  O   UNK N   1      22.958  13.601   4.075  0.00  0.00    -0.271 OA
ENDROOT
BRANCH   3   8
HETATM    8  O   UNK N   1      27.070  17.013   4.963  0.00  0.00    -0.343 OA
BRANCH   8   9
HETATM    9  C   UNK N   1      28.127  16.151   4.912  0.00  0.00     0.084 A 
HETATM   10  C   UNK N   1      28.212  15.132   3.960  0.00  0.00     0.069 A 
HETATM   11  C   UNK N   1      29.295  14.254   3.948  0.00  0.00     0.062 A 
HETATM   12  N   UNK N   1      30.292  14.398   4.862  0.00  0.00    -0.352 N 
HETATM   13  C   UNK N   1      30.272  15.400   5.785  0.00  0.00     0.070 A 
ATOM     14  HN  UNK N   1      31.072  13.741   4.857  1.00  0.00     0.166 HD
HETATM   15  C   UNK N   1      29.174  16.292   5.831  0.00  0.00     0.026 A 
HETATM   16  C   UNK N   1      31.339  15.560   6.685  0.00  0.00     0.095 A 
HETATM   17  C   UNK N   1      29.144  17.310   6.788  0.00  0.00     0.019 A 
HETATM   18  C   UNK N   1      30.203  17.464   7.676  0.00  0.00     0.039 A 
HETATM   19  C   UNK N   1      31.307  16.609   7.623  0.00  0.00     0.092 A 
HETATM   20 Cl   UNK N   1      32.721  14.468   6.627  0.00  0.00    -0.079 Cl
BRANCH  11  21
HETATM   21  C   UNK N   1      29.311  13.138   2.994  0.00  0.00     0.067 A 
HETATM   22  C   UNK N   1      29.406  11.789   3.405  0.00  0.00     0.085 A 
HETATM   23  S   UNK N   1      29.559  10.930   2.002  0.00  0.00    -0.064 SA
HETATM   24  C   UNK N   1      29.516  12.195   0.947  0.00  0.00     0.145 A 
HETATM   25  N   UNK N   1      29.362  13.351   1.631  0.00  0.00    -0.335 N 
ATOM     26  HN  UNK N   1      29.292  14.270   1.194  1.00  0.00     0.168 HD
BRANCH  24  27
HETATM   27  N   UNK N   1      29.772  12.150  -0.447  0.00  0.00    -0.367 N 
HETATM   28  H   UNK N   1      29.291  12.778  -1.033  0.00  0.00     0.162 HD
BRANCH  27  29
HETATM   29  C   UNK N   1      30.710  11.224  -1.049  0.00  0.00     0.075 C 
HETATM   30  C   UNK N   1      30.285  10.764  -2.430  0.00  0.00     0.032 C 
HETATM   31  C   UNK N   1      32.070  11.881  -1.143  0.00  0.00     0.032 C 
ENDBRANCH  27  29
ENDBRANCH  24  27
ENDBRANCH  11  21
BRANCH  19  32
HETATM   32  O   UNK N   1      32.334  16.808   8.473  0.00  0.00    -0.348 OA
BRANCH  32  33
HETATM   33  C   UNK N   1      33.232  17.828   8.256  0.00  0.00     0.206 C 
BRANCH  33  34
HETATM   34  C   UNK N   1      34.612  17.445   8.781  0.00  0.00     0.299 C 
BRANCH  34  35
HETATM   35  N   UNK N   1      34.569  16.210   9.554  0.00  0.00     0.094 N 
HETATM   36  C   UNK N   1      35.349  15.192   8.845  0.00  0.00     0.298 C 
HETATM   37  C   UNK N   1      35.485  13.952   9.729  0.00  0.00     0.198 C 
HETATM   38  O   UNK N   1      36.203  14.296  10.886  0.00  0.00    -0.388 OA
HETATM   39  C   UNK N   1      35.388  15.177  11.621  0.00  0.00     0.198 C 
HETATM   40  C   UNK N   1      35.212  16.486  10.842  0.00  0.00     0.298 C 
ENDBRANCH  34  35
ENDBRANCH  33  34
ENDBRANCH  32  33
ENDBRANCH  19  32
ENDBRANCH   8   9
ENDBRANCH   3   8
BRANCH   1  41
HETATM   41  C   UNK N   1      23.865  14.095   6.929  0.00  0.00     0.241 C 
HETATM   42  N   UNK N   1      23.958  12.770   7.200  0.00  0.00    -0.340 N 
HETATM   43  H   UNK N   1      24.775  12.281   6.949  0.00  0.00     0.163 HD
HETATM   44  O   UNK N   1      22.921  14.747   7.354  0.00  0.00    -0.271 OA
BRANCH  42  45
HETATM   45  C   UNK N   1      22.879  12.062   7.852  0.00  0.00     0.122 A 
HETATM   46  C   UNK N   1      23.345  10.791   8.529  0.00  0.00     0.050 A 
HETATM   47  C   UNK N   1      22.835  11.949   9.374  0.00  0.00     0.027 A 
BRANCH  47  48
HETATM   48  C   UNK N   1      24.037  12.558  10.074  0.00  0.00     0.003 C 
HETATM   49  C   UNK N   1      24.178  11.955  11.457  0.00  0.00     0.005 C 
ENDBRANCH  47  48
BRANCH  45  50
HETATM   50  C   UNK N   1      21.608  11.923   7.056  0.00  0.00     0.169 C 
HETATM   51  O   UNK N   1      21.463  11.015   6.253  0.00  0.00    -0.648 OA
BRANCH  50  52
HETATM   52  O   UNK N   1      20.627  12.834   7.212  0.00  0.00    -0.775 OA
HETATM   53  H   UNK N   1      20.448  13.743   7.358  0.00  0.00     0.167 HD
ENDBRANCH  50  52
ENDBRANCH  45  50
ENDBRANCH  42  45
ENDBRANCH   1  41
BRANCH   6  54
HETATM   54  C   UNK N   1      23.403  15.184   2.372  0.00  0.00     0.186 C 
BRANCH  54  55
HETATM   55  C   UNK N   1      24.554  14.396   1.644  0.00  0.00    -0.022 C 
HETATM   56  C   UNK N   1      24.064  13.751   0.356  0.00  0.00     0.017 C 
HETATM   57  C   UNK N   1      25.108  13.295   2.541  0.00  0.00     0.017 C 
HETATM   58  C   UNK N   1      25.755  15.249   1.314  0.00  0.00     0.017 C 
ENDBRANCH  54  55
BRANCH  54  59
HETATM   59  N   UNK N   1      22.074  14.932   1.837  0.00  0.00    -0.323 N 
HETATM   60  C   UNK N   1      20.932  15.668   1.974  0.00  0.00     0.361 C 
HETATM   61  O   UNK N   1      20.914  16.695   2.621  0.00  0.00    -0.238 OA
HETATM   62  H   UNK N   1      21.986  14.114   1.298  0.00  0.00     0.165 HD
BRANCH  60  63
HETATM   63  O   UNK N   1      19.805  15.285   1.324  0.00  0.00    -0.299 OA
BRANCH  63  64
HETATM   64  C   UNK N   1      19.195  14.067   1.537  0.00  0.00     0.134 C 
HETATM   65  C   UNK N   1      19.670  13.042   0.542  0.00  0.00     0.037 C 
HETATM   66  C   UNK N   1      19.366  11.703   1.203  0.00  0.00    -0.008 A 
HETATM   67  C   UNK N   1      20.492  11.308   2.137  0.00  0.00     0.010 A 
HETATM   68  C   UNK N   1      19.263  11.982   2.701  0.00  0.00    -0.008 A 
HETATM   69  C   UNK N   1      19.557  13.453   2.871  0.00  0.00     0.037 C 
ENDBRANCH  63  64
ENDBRANCH  60  63
ENDBRANCH  54  59
ENDBRANCH   6  54
TORSDOF 19
ENDMDL
MODEL 3
REMARK VINA RESULT:      -7.6      6.695     11.576
REMARK  19 active torsions:
REMARK  status: ('A' for Active; 'I' for Inactive)
REMARK    1  A    between atoms: C_3  and  C_2 
REMARK    2  A    between atoms: C_5  and  C_6 
REMARK    3  A    between atoms: C_5  and  N_9 
REMARK    4  A    between atoms: C_6  and  O_8 
REMARK       I    between atoms: N_9  and  C_10 
REMARK    5  A    between atoms: C_12  and  C_10 
REMARK    6  A    between atoms: C_14  and  O_34 
REMARK       I    between atoms: N_16  and  C_17 
REMARK    7  A    between atoms: C_17  and  C_19 
REMARK    8  A    between atoms: C_19  and  C_20 
REMARK    9  A    between atoms: C_19  and  N_24 
REMARK       I    between atoms: N_24  and  C_25 
REMARK   10  A    between atoms: C_25  and  O_27 
REMARK   11  A    between atoms: C_28  and  O_27 
REMARK   12  A    between atoms: O_34  and  C_35 
REMARK   13  A    between atoms: C_37  and  C_56 
REMARK   14  A    between atoms: C_44  and  O_47 
REMARK   15  A    between atoms: O_47  and  C_48 
REMARK   16  A    between atoms: C_48  and  C_49 
REMARK   17  A    between atoms: C_49  and  N_50 
REMARK   18  A    between atoms: C_59  and  N_62 
REMARK   19  A    between atoms: N_62  and  C_63 
ROOT
HETATM    1  C   UNK N   1      28.583  15.757   5.003  0.00  0.00     0.181 A 
HETATM    2  C   UNK N   1      29.404  15.380   3.786  0.00  0.00     0.069 A 
HETATM    3  C   UNK N   1      28.437  15.350   2.604  0.00  0.00     0.149 A 
HETATM    4  C   UNK N   1      27.074  15.809   3.132  0.00  0.00     0.159 A 
HETATM    5  N   UNK N   1      27.240  15.977   4.544  0.00  0.00    -0.334 N 
HETATM    6  C   UNK N   1      26.196  15.907   5.415  0.00  0.00     0.244 C 
HETATM    7  O   UNK N   1      26.394  16.060   6.613  0.00  0.00    -0.271 OA
ENDROOT
BRANCH   3   8
HETATM    8  O   UNK N   1      28.474  14.088   2.017  0.00  0.00    -0.343 OA
BRANCH   8   9
HETATM    9  C   UNK N   1      28.286  12.855   2.571  0.00  0.00     0.084 A 
HETATM   10  C   UNK N   1      29.231  12.265   3.413  0.00  0.00     0.069 A 
HETATM   11  C   UNK N   1      29.020  10.994   3.946  0.00  0.00     0.062 A 
HETATM   12  N   UNK N   1      27.872  10.324   3.659  0.00  0.00    -0.352 N 
HETATM   13  C   UNK N   1      26.903  10.875   2.874  0.00  0.00     0.070 A 
ATOM     14  HN  UNK N   1      27.731   9.388   4.039  1.00  0.00     0.166 HD
HETATM   15  C   UNK N   1      27.103  12.156   2.305  0.00  0.00     0.026 A 
HETATM   16  C   UNK N   1      25.702  10.185   2.635  0.00  0.00     0.095 A 
HETATM   17  C   UNK N   1      26.118  12.715   1.486  0.00  0.00     0.019 A 
HETATM   18  C   UNK N   1      24.933  12.027   1.253  0.00  0.00     0.039 A 
HETATM   19  C   UNK N   1      24.709  10.775   1.832  0.00  0.00     0.092 A 
HETATM   20 Cl   UNK N   1      25.432   8.598   3.352  0.00  0.00    -0.079 Cl
BRANCH  11  21
HETATM   21  C   UNK N   1      30.072  10.363   4.753  0.00  0.00     0.067 A 
HETATM   22  C   UNK N   1      31.435  10.399   4.384  0.00  0.00     0.085 A 
HETATM   23  S   UNK N   1      32.195   9.428   5.483  0.00  0.00    -0.064 SA
HETATM   24  C   UNK N   1      30.872   8.986   6.360  0.00  0.00     0.145 A 
HETATM   25  N   UNK N   1      29.772   9.587   5.854  0.00  0.00    -0.335 N 
ATOM     26  HN  UNK N   1      28.833   9.479   6.239  1.00  0.00     0.168 HD
BRANCH  24  27
HETATM   27  N   UNK N   1      30.816   8.001   7.379  0.00  0.00    -0.367 N 
HETATM   28  H   UNK N   1      30.457   7.113   7.153  0.00  0.00     0.162 HD
BRANCH  27  29
HETATM   29  C   UNK N   1      31.263   8.241   8.736  0.00  0.00     0.075 C 
HETATM   30  C   UNK N   1      30.437   7.502   9.771  0.00  0.00     0.032 C 
HETATM   31  C   UNK N   1      32.711   7.822   8.866  0.00  0.00     0.032 C 
ENDBRANCH  27  29
ENDBRANCH  24  27
ENDBRANCH  11  21
BRANCH  19  32
HETATM   32  O   UNK N   1      23.533  10.151   1.617  0.00  0.00    -0.348 OA
BRANCH  32  33
HETATM   33  C   UNK N   1      22.517  10.790   0.942  0.00  0.00     0.206 C 
BRANCH  33  34
HETATM   34  C   UNK N   1      21.330  11.029   1.868  0.00  0.00     0.299 C 
BRANCH  34  35
HETATM   35  N   UNK N   1      21.087  12.451   2.076  0.00  0.00     0.094 N 
HETATM   36  C   UNK N   1      21.513  13.175   0.874  0.00  0.00     0.298 C 
HETATM   37  C   UNK N   1      21.087  14.639   0.988  0.00  0.00     0.198 C 
HETATM   38  O   UNK N   1      19.684  14.701   1.037  0.00  0.00    -0.388 OA
HETATM   39  C   UNK N   1      19.296  14.115   2.256  0.00  0.00     0.198 C 
HETATM   40  C   UNK N   1      19.641  12.621   2.241  0.00  0.00     0.298 C 
ENDBRANCH  34  35
ENDBRANCH  33  34
ENDBRANCH  32  33
ENDBRANCH  19  32
ENDBRANCH   8   9
ENDBRANCH   3   8
BRANCH   1  41
HETATM   41  C   UNK N   1      29.245  16.784   5.862  0.00  0.00     0.241 C 
HETATM   42  N   UNK N   1      29.339  16.581   7.199  0.00  0.00    -0.340 N 
HETATM   43  H   UNK N   1      29.281  15.665   7.554  0.00  0.00     0.163 HD
HETATM   44  O   UNK N   1      29.450  17.894   5.391  0.00  0.00    -0.271 OA
BRANCH  42  45
HETATM   45  C   UNK N   1      29.522  17.687   8.113  0.00  0.00     0.122 A 
HETATM   46  C   UNK N   1      30.232  17.276   9.386  0.00  0.00     0.050 A 
HETATM   47  C   UNK N   1      30.921  18.221   8.412  0.00  0.00     0.027 A 
BRANCH  47  48
HETATM   48  C   UNK N   1      32.037  17.440   7.741  0.00  0.00     0.003 C 
HETATM   49  C   UNK N   1      33.369  18.096   8.043  0.00  0.00     0.005 C 
ENDBRANCH  47  48
BRANCH  45  50
HETATM   50  C   UNK N   1      28.323  18.576   8.319  0.00  0.00     0.169 C 
HETATM   51  O   UNK N   1      28.130  19.549   7.607  0.00  0.00    -0.648 OA
BRANCH  50  52
HETATM   52  O   UNK N   1      27.467  18.307   9.324  0.00  0.00    -0.775 OA
HETATM   53  H   UNK N   1      27.159  17.639   9.905  0.00  0.00     0.167 HD
ENDBRANCH  50  52
ENDBRANCH  45  50
ENDBRANCH  42  45
ENDBRANCH   1  41
BRANCH   6  54
HETATM   54  C   UNK N   1      24.843  15.377   4.960  0.00  0.00     0.186 C 
BRANCH  54  55
HETATM   55  C   UNK N   1      24.709  13.925   5.553  0.00  0.00    -0.022 C 
HETATM   56  C   UNK N   1      26.058  13.227   5.635  0.00  0.00     0.017 C 
HETATM   57  C   UNK N   1      23.788  13.071   4.690  0.00  0.00     0.017 C 
HETATM   58  C   UNK N   1      24.078  13.890   6.924  0.00  0.00     0.017 C 
ENDBRANCH  54  55
BRANCH  54  59
HETATM   59  N   UNK N   1      23.833  16.311   5.432  0.00  0.00    -0.323 N 
HETATM   60  C   UNK N   1      23.422  17.492   4.883  0.00  0.00     0.361 C 
HETATM   61  O   UNK N   1      23.910  17.916   3.855  0.00  0.00    -0.238 OA
HETATM   62  H   UNK N   1      23.381  16.055   6.267  0.00  0.00     0.165 HD
BRANCH  60  63
HETATM   63  O   UNK N   1      22.402  18.179   5.455  0.00  0.00    -0.299 OA
BRANCH  63  64
HETATM   64  C   UNK N   1      21.166  18.316   4.860  0.00  0.00     0.134 C 
HETATM   65  C   UNK N   1      21.156  19.468   3.891  0.00  0.00     0.037 C 
HETATM   66  C   UNK N   1      19.989  19.169   2.959  0.00  0.00    -0.008 A 
HETATM   67  C   UNK N   1      20.428  18.242   1.843  0.00  0.00     0.010 A 
HETATM   68  C   UNK N   1      19.740  17.665   3.058  0.00  0.00    -0.008 A 
HETATM   69  C   UNK N   1      20.793  17.130   3.999  0.00  0.00     0.037 C 
ENDBRANCH  63  64
ENDBRANCH  60  63
ENDBRANCH  54  59
ENDBRANCH   6  54
TORSDOF 19
ENDMDL
MODEL 4
REMARK VINA RESULT:      -7.6      2.991      6.346
REMARK  19 active torsions:
REMARK  status: ('A' for Active; 'I' for Inactive)
REMARK    1  A    between atoms: C_3  and  C_2 
REMARK    2  A    between atoms: C_5  and  C_6 
REMARK    3  A    between atoms: C_5  and  N_9 
REMARK    4  A    between atoms: C_6  and  O_8 
REMARK       I    between atoms: N_9  and  C_10 
REMARK    5  A    between atoms: C_12  and  C_10 
REMARK    6  A    between atoms: C_14  and  O_34 
REMARK       I    between atoms: N_16  and  C_17 
REMARK    7  A    between atoms: C_17  and  C_19 
REMARK    8  A    between atoms: C_19  and  C_20 
REMARK    9  A    between atoms: C_19  and  N_24 
REMARK       I    between atoms: N_24  and  C_25 
REMARK   10  A    between atoms: C_25  and  O_27 
REMARK   11  A    between atoms: C_28  and  O_27 
REMARK   12  A    between atoms: O_34  and  C_35 
REMARK   13  A    between atoms: C_37  and  C_56 
REMARK   14  A    between atoms: C_44  and  O_47 
REMARK   15  A    between atoms: O_47  and  C_48 
REMARK   16  A    between atoms: C_48  and  C_49 
REMARK   17  A    between atoms: C_49  and  N_50 
REMARK   18  A    between atoms: C_59  and  N_62 
REMARK   19  A    between atoms: N_62  and  C_63 
ROOT
HETATM    1  C   UNK N   1      35.807  13.153  10.832  0.00  0.00     0.181 A 
HETATM    2  C   UNK N   1      35.459  14.618  10.662  0.00  0.00     0.069 A 
HETATM    3  C   UNK N   1      34.145  14.662   9.884  0.00  0.00     0.149 A 
HETATM    4  C   UNK N   1      33.690  13.211   9.695  0.00  0.00     0.159 A 
HETATM    5  N   UNK N   1      34.740  12.401  10.235  0.00  0.00    -0.334 N 
HETATM    6  C   UNK N   1      34.942  11.113   9.843  0.00  0.00     0.244 C 
HETATM    7  O   UNK N   1      35.855  10.464  10.338  0.00  0.00    -0.271 OA
ENDROOT
BRANCH   3   8
HETATM    8  O   UNK N   1      34.329  15.403   8.720  0.00  0.00    -0.343 OA
BRANCH   8   9
HETATM    9  C   UNK N   1      33.428  15.781   7.767  0.00  0.00     0.084 A 
HETATM   10  C   UNK N   1      32.289  16.528   8.073  0.00  0.00     0.069 A 
HETATM   11  C   UNK N   1      31.376  16.879   7.079  0.00  0.00     0.062 A 
HETATM   12  N   UNK N   1      31.603  16.506   5.792  0.00  0.00    -0.352 N 
HETATM   13  C   UNK N   1      32.719  15.810   5.438  0.00  0.00     0.070 A 
ATOM     14  HN  UNK N   1      30.921  16.753   5.073  1.00  0.00     0.166 HD
HETATM   15  C   UNK N   1      33.651  15.424   6.431  0.00  0.00     0.026 A 
HETATM   16  C   UNK N   1      32.958  15.482   4.092  0.00  0.00     0.095 A 
HETATM   17  C   UNK N   1      34.788  14.695   6.073  0.00  0.00     0.019 A 
HETATM   18  C   UNK N   1      35.019  14.374   4.740  0.00  0.00     0.039 A 
HETATM   19  C   UNK N   1      34.123  14.774   3.745  0.00  0.00     0.092 A 
HETATM   20 Cl   UNK N   1      31.816  15.972   2.843  0.00  0.00    -0.079 Cl
BRANCH  11  21
HETATM   21  C   UNK N   1      30.142  17.586   7.447  0.00  0.00     0.067 A 
HETATM   22  C   UNK N   1      29.750  17.779   8.790  0.00  0.00     0.085 A 
HETATM   23  S   UNK N   1      28.245  18.454   8.698  0.00  0.00    -0.064 SA
HETATM   24  C   UNK N   1      28.103  18.486   7.056  0.00  0.00     0.145 A 
HETATM   25  N   UNK N   1      29.228  17.990   6.495  0.00  0.00    -0.335 N 
ATOM     26  HN  UNK N   1      29.383  17.922   5.489  1.00  0.00     0.168 HD
BRANCH  24  27
HETATM   27  N   UNK N   1      26.942  18.807   6.308  0.00  0.00    -0.367 N 
HETATM   28  H   UNK N   1      26.205  18.156   6.284  0.00  0.00     0.162 HD
BRANCH  27  29
HETATM   29  C   UNK N   1      26.791  20.049   5.578  0.00  0.00     0.075 C 
HETATM   30  C   UNK N   1      27.490  21.218   6.246  0.00  0.00     0.032 C 
HETATM   31  C   UNK N   1      27.341  19.877   4.179  0.00  0.00     0.032 C 
ENDBRANCH  27  29
ENDBRANCH  24  27
ENDBRANCH  11  21
BRANCH  19  32
HETATM   32  O   UNK N   1      34.395  14.478   2.458  0.00  0.00    -0.348 OA
BRANCH  32  33
HETATM   33  C   UNK N   1      34.528  13.168   2.056  0.00  0.00     0.206 C 
BRANCH  33  34
HETATM   34  C   UNK N   1      33.317  12.735   1.237  0.00  0.00     0.299 C 
BRANCH  34  35
HETATM   35  N   UNK N   1      32.160  12.472   2.085  0.00  0.00     0.094 N 
HETATM   36  C   UNK N   1      31.071  11.970   1.242  0.00  0.00     0.298 C 
HETATM   37  C   UNK N   1      29.919  11.502   2.131  0.00  0.00     0.198 C 
HETATM   38  O   UNK N   1      30.363  10.429   2.923  0.00  0.00    -0.388 OA
HETATM   39  C   UNK N   1      31.318  10.953   3.814  0.00  0.00     0.198 C 
HETATM   40  C   UNK N   1      32.550  11.422   3.030  0.00  0.00     0.298 C 
ENDBRANCH  34  35
ENDBRANCH  33  34
ENDBRANCH  32  33
ENDBRANCH  19  32
ENDBRANCH   8   9
ENDBRANCH   3   8
BRANCH   1  41
HETATM   41  C   UNK N   1      36.262  12.816  12.215  0.00  0.00     0.241 C 
HETATM   42  N   UNK N   1      35.427  13.017  13.264  0.00  0.00    -0.340 N 
HETATM   43  H   UNK N   1      34.456  13.064  13.107  0.00  0.00     0.163 HD
HETATM   44  O   UNK N   1      37.454  12.618  12.405  0.00  0.00    -0.271 OA
BRANCH  42  45
HETATM   45  C   UNK N   1      35.937  13.163  14.610  0.00  0.00     0.122 A 
HETATM   46  C   UNK N   1      34.875  12.920  15.661  0.00  0.00     0.050 A 
HETATM   47  C   UNK N   1      36.042  11.952  15.533  0.00  0.00     0.027 A 
BRANCH  47  48
HETATM   48  C   UNK N   1      35.496  10.668  14.933  0.00  0.00     0.003 C 
HETATM   49  C   UNK N   1      34.460  10.073  15.865  0.00  0.00     0.005 C 
ENDBRANCH  47  48
BRANCH  45  50
HETATM   50  C   UNK N   1      36.804  14.369  14.856  0.00  0.00     0.169 C 
HETATM   51  O   UNK N   1      37.422  14.499  15.901  0.00  0.00    -0.648 OA
BRANCH  50  52
HETATM   52  O   UNK N   1      36.876  15.334  13.918  0.00  0.00    -0.775 OA
HETATM   53  H   UNK N   1      36.635  15.565  13.043  0.00  0.00     0.167 HD
ENDBRANCH  50  52
ENDBRANCH  45  50
ENDBRANCH  42  45
ENDBRANCH   1  41
BRANCH   6  54
HETATM   54  C   UNK N   1      34.233  10.557   8.616  0.00  0.00     0.186 C 
BRANCH  54  55
HETATM   55  C   UNK N   1      35.322  10.437   7.486  0.00  0.00    -0.022 C 
HETATM   56  C   UNK N   1      36.146   9.168   7.635  0.00  0.00     0.017 C 
HETATM   57  C   UNK N   1      36.276  11.626   7.526  0.00  0.00     0.017 C 
HETATM   58  C   UNK N   1      34.747  10.465   6.090  0.00  0.00     0.017 C 
ENDBRANCH  54  55
BRANCH  54  59
HETATM   59  N   UNK N   1      33.631   9.291   9.003  0.00  0.00    -0.323 N 
HETATM   60  C   UNK N   1      32.319   8.991   9.236  0.00  0.00     0.361 C 
HETATM   61  O   UNK N   1      31.450   9.833   9.138  0.00  0.00    -0.238 OA
HETATM   62  H   UNK N   1      34.260   8.542   9.112  0.00  0.00     0.165 HD
BRANCH  60  63
HETATM   63  O   UNK N   1      31.963   7.713   9.519  0.00  0.00    -0.299 OA
BRANCH  63  64
HETATM   64  C   UNK N   1      30.766   7.163   9.111  0.00  0.00     0.134 C 
HETATM   65  C   UNK N   1      30.959   5.756   8.613  0.00  0.00     0.037 C 
HETATM   66  C   UNK N   1      29.578   5.122   8.722  0.00  0.00    -0.008 A 
HETATM   67  C   UNK N   1      29.351   4.588  10.123  0.00  0.00     0.010 A 
HETATM   68  C   UNK N   1      28.811   5.950   9.752  0.00  0.00    -0.008 A 
HETATM   69  C   UNK N   1      29.777   7.001  10.244  0.00  0.00     0.037 C 
ENDBRANCH  63  64
ENDBRANCH  60  63
ENDBRANCH  54  59
ENDBRANCH   6  54
TORSDOF 19
ENDMDL
MODEL 5
REMARK VINA RESULT:      -7.5      6.659     12.788
REMARK  19 active torsions:
REMARK  status: ('A' for Active; 'I' for Inactive)
REMARK    1  A    between atoms: C_3  and  C_2 
REMARK    2  A    between atoms: C_5  and  C_6 
REMARK    3  A    between atoms: C_5  and  N_9 
REMARK    4  A    between atoms: C_6  and  O_8 
REMARK       I    between atoms: N_9  and  C_10 
REMARK    5  A    between atoms: C_12  and  C_10 
REMARK    6  A    between atoms: C_14  and  O_34 
REMARK       I    between atoms: N_16  and  C_17 
REMARK    7  A    between atoms: C_17  and  C_19 
REMARK    8  A    between atoms: C_19  and  C_20 
REMARK    9  A    between atoms: C_19  and  N_24 
REMARK       I    between atoms: N_24  and  C_25 
REMARK   10  A    between atoms: C_25  and  O_27 
REMARK   11  A    between atoms: C_28  and  O_27 
REMARK   12  A    between atoms: O_34  and  C_35 
REMARK   13  A    between atoms: C_37  and  C_56 
REMARK   14  A    between atoms: C_44  and  O_47 
REMARK   15  A    between atoms: O_47  and  C_48 
REMARK   16  A    between atoms: C_48  and  C_49 
REMARK   17  A    between atoms: C_49  and  N_50 
REMARK   18  A    between atoms: C_59  and  N_62 
REMARK   19  A    between atoms: N_62  and  C_63 
ROOT
HETATM    1  C   UNK N   1      24.390  15.281   5.631  0.00  0.00     0.181 A 
HETATM    2  C   UNK N   1      25.520  16.195   6.059  0.00  0.00     0.069 A 
HETATM    3  C   UNK N   1      25.631  17.278   4.987  0.00  0.00     0.149 A 
HETATM    4  C   UNK N   1      24.492  17.036   3.991  0.00  0.00     0.159 A 
HETATM    5  N   UNK N   1      23.853  15.828   4.417  0.00  0.00    -0.334 N 
HETATM    6  C   UNK N   1      23.139  15.040   3.566  0.00  0.00     0.244 C 
HETATM    7  O   UNK N   1      22.611  14.018   3.983  0.00  0.00    -0.271 OA
ENDROOT
BRANCH   3   8
HETATM    8  O   UNK N   1      26.919  17.267   4.460  0.00  0.00    -0.343 OA
BRANCH   8   9
HETATM    9  C   UNK N   1      27.882  16.301   4.513  0.00  0.00     0.084 A 
HETATM   10  C   UNK N   1      27.902  15.220   3.629  0.00  0.00     0.069 A 
HETATM   11  C   UNK N   1      28.888  14.238   3.724  0.00  0.00     0.062 A 
HETATM   12  N   UNK N   1      29.854  14.340   4.675  0.00  0.00    -0.352 N 
HETATM   13  C   UNK N   1      29.898  15.397   5.535  0.00  0.00     0.070 A 
ATOM     14  HN  UNK N   1      30.562  13.609   4.749  1.00  0.00     0.166 HD
HETATM   15  C   UNK N   1      28.897  16.396   5.472  0.00  0.00     0.026 A 
HETATM   16  C   UNK N   1      30.936  15.507   6.475  0.00  0.00     0.095 A 
HETATM   17  C   UNK N   1      28.932  17.472   6.364  0.00  0.00     0.019 A 
HETATM   18  C   UNK N   1      29.961  17.575   7.292  0.00  0.00     0.039 A 
HETATM   19  C   UNK N   1      30.972  16.612   7.346  0.00  0.00     0.092 A 
HETATM   20 Cl   UNK N   1      32.199  14.280   6.552  0.00  0.00    -0.079 Cl
BRANCH  11  21
HETATM   21  C   UNK N   1      28.829  13.066   2.840  0.00  0.00     0.067 A 
HETATM   22  C   UNK N   1      29.490  13.023   1.592  0.00  0.00     0.085 A 
HETATM   23  S   UNK N   1      28.998  11.604   0.904  0.00  0.00    -0.064 SA
HETATM   24  C   UNK N   1      28.004  11.089   2.113  0.00  0.00     0.145 A 
HETATM   25  N   UNK N   1      28.018  11.986   3.124  0.00  0.00    -0.335 N 
ATOM     26  HN  UNK N   1      27.492  11.879   3.992  1.00  0.00     0.168 HD
BRANCH  24  27
HETATM   27  N   UNK N   1      27.120   9.981   2.075  0.00  0.00    -0.367 N 
HETATM   28  H   UNK N   1      27.016   9.435   2.887  0.00  0.00     0.162 HD
BRANCH  27  29
HETATM   29  C   UNK N   1      26.360   9.616   0.896  0.00  0.00     0.075 C 
HETATM   30  C   UNK N   1      26.502   8.151   0.530  0.00  0.00     0.032 C 
HETATM   31  C   UNK N   1      24.898   9.929   1.128  0.00  0.00     0.032 C 
ENDBRANCH  27  29
ENDBRANCH  24  27
ENDBRANCH  11  21
BRANCH  19  32
HETATM   32  O   UNK N   1      31.977  16.761   8.232  0.00  0.00    -0.348 OA
BRANCH  32  33
HETATM   33  C   UNK N   1      32.774  17.883   8.202  0.00  0.00     0.206 C 
BRANCH  33  34
HETATM   34  C   UNK N   1      34.236  17.504   8.410  0.00  0.00     0.299 C 
BRANCH  34  35
HETATM   35  N   UNK N   1      34.378  16.404   9.356  0.00  0.00     0.094 N 
HETATM   36  C   UNK N   1      35.028  15.284   8.670  0.00  0.00     0.298 C 
HETATM   37  C   UNK N   1      35.366  14.195   9.689  0.00  0.00     0.198 C 
HETATM   38  O   UNK N   1      36.290  14.711  10.615  0.00  0.00    -0.388 OA
HETATM   39  C   UNK N   1      35.613  15.700  11.352  0.00  0.00     0.198 C 
HETATM   40  C   UNK N   1      35.255  16.873  10.432  0.00  0.00     0.298 C 
ENDBRANCH  34  35
ENDBRANCH  33  34
ENDBRANCH  32  33
ENDBRANCH  19  32
ENDBRANCH   8   9
ENDBRANCH   3   8
BRANCH   1  41
HETATM   41  C   UNK N   1      23.467  14.926   6.751  0.00  0.00     0.241 C 
HETATM   42  N   UNK N   1      23.369  13.636   7.156  0.00  0.00    -0.340 N 
HETATM   43  H   UNK N   1      24.105  13.011   6.963  0.00  0.00     0.163 HD
HETATM   44  O   UNK N   1      22.630  15.747   7.100  0.00  0.00    -0.271 OA
BRANCH  42  45
HETATM   45  C   UNK N   1      22.203  13.162   7.869  0.00  0.00     0.122 A 
HETATM   46  C   UNK N   1      20.941  13.248   7.039  0.00  0.00     0.050 A 
HETATM   47  C   UNK N   1      21.493  11.885   7.428  0.00  0.00     0.027 A 
BRANCH  47  48
HETATM   48  C   UNK N   1      22.071  11.258   6.172  0.00  0.00     0.003 C 
HETATM   49  C   UNK N   1      21.115  10.209   5.642  0.00  0.00     0.005 C 
ENDBRANCH  47  48
BRANCH  45  50
HETATM   50  C   UNK N   1      22.059  13.646   9.288  0.00  0.00     0.169 C 
HETATM   51  O   UNK N   1      22.827  13.276  10.162  0.00  0.00    -0.648 OA
BRANCH  50  52
HETATM   52  O   UNK N   1      21.047  14.478   9.603  0.00  0.00    -0.775 OA
HETATM   53  H   UNK N   1      20.258  14.564  10.103  0.00  0.00     0.167 HD
ENDBRANCH  50  52
ENDBRANCH  45  50
ENDBRANCH  42  45
ENDBRANCH   1  41
BRANCH   6  54
HETATM   54  C   UNK N   1      23.212  15.263   2.062  0.00  0.00     0.186 C 
BRANCH  54  55
HETATM   55  C   UNK N   1      24.355  14.323   1.526  0.00  0.00    -0.022 C 
HETATM   56  C   UNK N   1      25.574  15.118   1.085  0.00  0.00     0.017 C 
HETATM   57  C   UNK N   1      23.869  13.505   0.334  0.00  0.00     0.017 C 
HETATM   58  C   UNK N   1      24.806  13.289   2.530  0.00  0.00     0.017 C 
ENDBRANCH  54  55
BRANCH  54  59
HETATM   59  N   UNK N   1      21.895  14.973   1.518  0.00  0.00    -0.323 N 
HETATM   60  C   UNK N   1      20.767  15.742   1.525  0.00  0.00     0.361 C 
HETATM   61  O   UNK N   1      20.754  16.843   2.038  0.00  0.00    -0.238 OA
HETATM   62  H   UNK N   1      21.804  14.096   1.082  0.00  0.00     0.165 HD
BRANCH  60  63
HETATM   63  O   UNK N   1      19.652  15.304   0.890  0.00  0.00    -0.299 OA
BRANCH  63  64
HETATM   64  C   UNK N   1      19.019  14.123   1.217  0.00  0.00     0.134 C 
HETATM   65  C   UNK N   1      19.530  12.984   0.377  0.00  0.00     0.037 C 
HETATM   66  C   UNK N   1      19.181  11.736   1.177  0.00  0.00    -0.008 A 
HETATM   67  C   UNK N   1      20.256  11.450   2.207  0.00  0.00     0.010 A 
HETATM   68  C   UNK N   1      19.009  12.193   2.625  0.00  0.00    -0.008 A 
HETATM   69  C   UNK N   1      19.310  13.673   2.632  0.00  0.00     0.037 C 
ENDBRANCH  63  64
ENDBRANCH  60  63
ENDBRANCH  54  59
ENDBRANCH   6  54
TORSDOF 19
ENDMDL
MODEL 6
REMARK VINA RESULT:      -7.5      6.997     11.317
REMARK  19 active torsions:
REMARK  status: ('A' for Active; 'I' for Inactive)
REMARK    1  A    between atoms: C_3  and  C_2 
REMARK    2  A    between atoms: C_5  and  C_6 
REMARK    3  A    between atoms: C_5  and  N_9 
REMARK    4  A    between atoms: C_6  and  O_8 
REMARK       I    between atoms: N_9  and  C_10 
REMARK    5  A    between atoms: C_12  and  C_10 
REMARK    6  A    between atoms: C_14  and  O_34 
REMARK       I    between atoms: N_16  and  C_17 
REMARK    7  A    between atoms: C_17  and  C_19 
REMARK    8  A    between atoms: C_19  and  C_20 
REMARK    9  A    between atoms: C_19  and  N_24 
REMARK       I    between atoms: N_24  and  C_25 
REMARK   10  A    between atoms: C_25  and  O_27 
REMARK   11  A    between atoms: C_28  and  O_27 
REMARK   12  A    between atoms: O_34  and  C_35 
REMARK   13  A    between atoms: C_37  and  C_56 
REMARK   14  A    between atoms: C_44  and  O_47 
REMARK   15  A    between atoms: O_47  and  C_48 
REMARK   16  A    between atoms: C_48  and  C_49 
REMARK   17  A    between atoms: C_49  and  N_50 
REMARK   18  A    between atoms: C_59  and  N_62 
REMARK   19  A    between atoms: N_62  and  C_63 
ROOT
HETATM    1  C   UNK N   1      26.889  16.574   4.619  0.00  0.00     0.181 A 
HETATM    2  C   UNK N   1      27.422  16.667   3.204  0.00  0.00     0.069 A 
HETATM    3  C   UNK N   1      26.357  16.051   2.299  0.00  0.00     0.149 A 
HETATM    4  C   UNK N   1      25.165  15.693   3.193  0.00  0.00     0.159 A 
HETATM    5  N   UNK N   1      25.581  15.987   4.531  0.00  0.00    -0.334 N 
HETATM    6  C   UNK N   1      25.024  15.385   5.617  0.00  0.00     0.244 C 
HETATM    7  O   UNK N   1      25.416  15.674   6.740  0.00  0.00    -0.271 OA
ENDROOT
BRANCH   3   8
HETATM    8  O   UNK N   1      26.921  15.000   1.581  0.00  0.00    -0.343 OA
BRANCH   8   9
HETATM    9  C   UNK N   1      27.796  14.032   1.981  0.00  0.00     0.084 A 
HETATM   10  C   UNK N   1      29.120  14.318   2.318  0.00  0.00     0.069 A 
HETATM   11  C   UNK N   1      29.996  13.303   2.702  0.00  0.00     0.062 A 
HETATM   12  N   UNK N   1      29.553  12.019   2.766  0.00  0.00    -0.352 N 
HETATM   13  C   UNK N   1      28.260  11.696   2.484  0.00  0.00     0.070 A 
ATOM     14  HN  UNK N   1      30.204  11.279   3.032  1.00  0.00     0.166 HD
HETATM   15  C   UNK N   1      27.357  12.706   2.072  0.00  0.00     0.026 A 
HETATM   16  C   UNK N   1      27.813  10.369   2.609  0.00  0.00     0.095 A 
HETATM   17  C   UNK N   1      26.034  12.374   1.767  0.00  0.00     0.019 A 
HETATM   18  C   UNK N   1      25.598  11.060   1.892  0.00  0.00     0.039 A 
HETATM   19  C   UNK N   1      26.470  10.058   2.326  0.00  0.00     0.092 A 
HETATM   20 Cl   UNK N   1      28.921   9.106   3.138  0.00  0.00    -0.079 Cl
BRANCH  11  21
HETATM   21  C   UNK N   1      31.405  13.622   2.961  0.00  0.00     0.067 A 
HETATM   22  C   UNK N   1      32.446  13.225   2.092  0.00  0.00     0.085 A 
HETATM   23  S   UNK N   1      33.836  13.652   2.876  0.00  0.00    -0.064 SA
HETATM   24  C   UNK N   1      33.154  14.291   4.233  0.00  0.00     0.145 A 
HETATM   25  N   UNK N   1      31.807  14.221   4.138  0.00  0.00    -0.335 N 
ATOM     26  HN  UNK N   1      31.165  14.568   4.850  1.00  0.00     0.168 HD
BRANCH  24  27
HETATM   27  N   UNK N   1      33.826  14.698   5.413  0.00  0.00    -0.367 N 
HETATM   28  H   UNK N   1      34.528  14.114   5.778  0.00  0.00     0.162 HD
BRANCH  27  29
HETATM   29  C   UNK N   1      33.527  15.936   6.105  0.00  0.00     0.075 C 
HETATM   30  C   UNK N   1      34.551  16.282   7.169  0.00  0.00     0.032 C 
HETATM   31  C   UNK N   1      33.455  17.065   5.101  0.00  0.00     0.032 C 
ENDBRANCH  27  29
ENDBRANCH  24  27
ENDBRANCH  11  21
BRANCH  19  32
HETATM   32  O   UNK N   1      26.007   8.800   2.473  0.00  0.00    -0.348 OA
BRANCH  32  33
HETATM   33  C   UNK N   1      25.041   8.518   3.413  0.00  0.00     0.206 C 
BRANCH  33  34
HETATM   34  C   UNK N   1      25.684   8.198   4.758  0.00  0.00     0.299 C 
BRANCH  34  35
HETATM   35  N   UNK N   1      24.927   7.190   5.490  0.00  0.00     0.094 N 
HETATM   36  C   UNK N   1      24.683   7.689   6.847  0.00  0.00     0.298 C 
HETATM   37  C   UNK N   1      23.724   6.741   7.569  0.00  0.00     0.198 C 
HETATM   38  O   UNK N   1      22.490   6.744   6.895  0.00  0.00    -0.388 OA
HETATM   39  C   UNK N   1      22.714   6.146   5.641  0.00  0.00     0.198 C 
HETATM   40  C   UNK N   1      23.640   7.037   4.805  0.00  0.00     0.298 C 
ENDBRANCH  34  35
ENDBRANCH  33  34
ENDBRANCH  32  33
ENDBRANCH  19  32
ENDBRANCH   8   9
ENDBRANCH   3   8
BRANCH   1  41
HETATM   41  C   UNK N   1      27.080  17.832   5.402  0.00  0.00     0.241 C 
HETATM   42  N   UNK N   1      28.198  17.992   6.152  0.00  0.00    -0.340 N 
HETATM   43  H   UNK N   1      29.002  17.466   5.940  0.00  0.00     0.163 HD
HETATM   44  O   UNK N   1      26.119  18.571   5.562  0.00  0.00    -0.271 OA
BRANCH  42  45
HETATM   45  C   UNK N   1      28.229  18.922   7.259  0.00  0.00     0.122 A 
HETATM   46  C   UNK N   1      27.927  18.256   8.585  0.00  0.00     0.050 A 
HETATM   47  C   UNK N   1      29.317  18.820   8.325  0.00  0.00     0.027 A 
BRANCH  47  48
HETATM   48  C   UNK N   1      30.254  17.640   8.141  0.00  0.00     0.003 C 
HETATM   49  C   UNK N   1      31.651  18.027   8.583  0.00  0.00     0.005 C 
ENDBRANCH  47  48
BRANCH  45  50
HETATM   50  C   UNK N   1      27.521  20.233   7.037  0.00  0.00     0.169 C 
HETATM   51  O   UNK N   1      27.947  21.053   6.239  0.00  0.00    -0.648 OA
BRANCH  50  52
HETATM   52  O   UNK N   1      26.414  20.516   7.752  0.00  0.00    -0.775 OA
HETATM   53  H   UNK N   1      26.081  21.008   8.477  0.00  0.00     0.167 HD
ENDBRANCH  50  52
ENDBRANCH  45  50
ENDBRANCH  42  45
ENDBRANCH   1  41
BRANCH   6  54
HETATM   54  C   UNK N   1      24.120  14.171   5.450  0.00  0.00     0.186 C 
BRANCH  54  55
HETATM   55  C   UNK N   1      24.960  12.921   5.907  0.00  0.00    -0.022 C 
HETATM   56  C   UNK N   1      24.340  11.620   5.421  0.00  0.00     0.017 C 
HETATM   57  C   UNK N   1      25.055  12.859   7.427  0.00  0.00     0.017 C 
HETATM   58  C   UNK N   1      26.397  12.958   5.443  0.00  0.00     0.017 C 
ENDBRANCH  54  55
BRANCH  54  59
HETATM   59  N   UNK N   1      22.925  14.411   6.243  0.00  0.00    -0.323 N 
HETATM   60  C   UNK N   1      21.623  14.113   5.960  0.00  0.00     0.361 C 
HETATM   61  O   UNK N   1      21.310  13.574   4.918  0.00  0.00    -0.238 OA
HETATM   62  H   UNK N   1      23.077  14.850   7.111  0.00  0.00     0.165 HD
BRANCH  60  63
HETATM   63  O   UNK N   1      20.661  14.360   6.883  0.00  0.00    -0.299 OA
BRANCH  63  64
HETATM   64  C   UNK N   1      20.576  13.675   8.077  0.00  0.00     0.134 C 
HETATM   65  C   UNK N   1      21.526  12.508   8.101  0.00  0.00     0.037 C 
HETATM   66  C   UNK N   1      21.720  12.208   9.581  0.00  0.00    -0.008 A 
HETATM   67  C   UNK N   1      22.804  13.094  10.163  0.00  0.00     0.010 A 
HETATM   68  C   UNK N   1      21.355  13.490  10.327  0.00  0.00    -0.008 A 
HETATM   69  C   UNK N   1      21.010  14.505   9.264  0.00  0.00     0.037 C 
ENDBRANCH  63  64
ENDBRANCH  60  63
ENDBRANCH  54  59
ENDBRANCH   6  54
TORSDOF 19
ENDMDL
MODEL 7
REMARK VINA RESULT:      -7.4      6.870     12.050
REMARK  19 active torsions:
REMARK  status: ('A' for Active; 'I' for Inactive)
REMARK    1  A    between atoms: C_3  and  C_2 
REMARK    2  A    between atoms: C_5  and  C_6 
REMARK    3  A    between atoms: C_5  and  N_9 
REMARK    4  A    between atoms: C_6  and  O_8 
REMARK       I    between atoms: N_9  and  C_10 
REMARK    5  A    between atoms: C_12  and  C_10 
REMARK    6  A    between atoms: C_14  and  O_34 
REMARK       I    between atoms: N_16  and  C_17 
REMARK    7  A    between atoms: C_17  and  C_19 
REMARK    8  A    between atoms: C_19  and  C_20 
REMARK    9  A    between atoms: C_19  and  N_24 
REMARK       I    between atoms: N_24  and  C_25 
REMARK   10  A    between atoms: C_25  and  O_27 
REMARK   11  A    between atoms: C_28  and  O_27 
REMARK   12  A    between atoms: O_34  and  C_35 
REMARK   13  A    between atoms: C_37  and  C_56 
REMARK   14  A    between atoms: C_44  and  O_47 
REMARK   15  A    between atoms: O_47  and  C_48 
REMARK   16  A    between atoms: C_48  and  C_49 
REMARK   17  A    between atoms: C_49  and  N_50 
REMARK   18  A    between atoms: C_59  and  N_62 
REMARK   19  A    between atoms: N_62  and  C_63 
ROOT
HETATM    1  C   UNK N   1      24.924  14.419   5.763  0.00  0.00     0.181 A 
HETATM    2  C   UNK N   1      26.167  15.169   6.197  0.00  0.00     0.069 A 
HETATM    3  C   UNK N   1      26.242  16.422   5.326  0.00  0.00     0.149 A 
HETATM    4  C   UNK N   1      24.980  16.437   4.458  0.00  0.00     0.159 A 
HETATM    5  N   UNK N   1      24.296  15.212   4.743  0.00  0.00    -0.334 N 
HETATM    6  C   UNK N   1      23.427  14.639   3.865  0.00  0.00     0.244 C 
HETATM    7  O   UNK N   1      22.869  13.591   4.161  0.00  0.00    -0.271 OA
ENDROOT
BRANCH   3   8
HETATM    8  O   UNK N   1      27.455  16.431   4.644  0.00  0.00    -0.343 OA
BRANCH   8   9
HETATM    9  C   UNK N   1      28.639  15.822   4.948  0.00  0.00     0.084 A 
HETATM   10  C   UNK N   1      29.480  16.292   5.958  0.00  0.00     0.069 A 
HETATM   11  C   UNK N   1      30.694  15.660   6.229  0.00  0.00     0.062 A 
HETATM   12  N   UNK N   1      31.058  14.563   5.514  0.00  0.00    -0.352 N 
HETATM   13  C   UNK N   1      30.252  14.044   4.544  0.00  0.00     0.070 A 
ATOM     14  HN  UNK N   1      31.955  14.116   5.707  1.00  0.00     0.166 HD
HETATM   15  C   UNK N   1      29.025  14.680   4.237  0.00  0.00     0.026 A 
HETATM   16  C   UNK N   1      30.626  12.878   3.856  0.00  0.00     0.095 A 
HETATM   17  C   UNK N   1      28.205  14.160   3.232  0.00  0.00     0.019 A 
HETATM   18  C   UNK N   1      28.581  13.005   2.554  0.00  0.00     0.039 A 
HETATM   19  C   UNK N   1      29.775  12.351   2.867  0.00  0.00     0.092 A 
HETATM   20 Cl   UNK N   1      32.143  12.067   4.241  0.00  0.00    -0.079 Cl
BRANCH  11  21
HETATM   21  C   UNK N   1      31.598  16.232   7.235  0.00  0.00     0.067 A 
HETATM   22  C   UNK N   1      32.147  17.528   7.113  0.00  0.00     0.085 A 
HETATM   23  S   UNK N   1      33.214  17.655   8.368  0.00  0.00    -0.064 SA
HETATM   24  C   UNK N   1      32.995  16.154   9.013  0.00  0.00     0.145 A 
HETATM   25  N   UNK N   1      32.066  15.484   8.296  0.00  0.00    -0.335 N 
ATOM     26  HN  UNK N   1      31.749  14.538   8.512  1.00  0.00     0.168 HD
BRANCH  24  27
HETATM   27  N   UNK N   1      33.759  15.552  10.045  0.00  0.00    -0.367 N 
HETATM   28  H   UNK N   1      33.300  14.963  10.686  0.00  0.00     0.162 HD
BRANCH  27  29
HETATM   29  C   UNK N   1      35.185  15.762  10.198  0.00  0.00     0.075 C 
HETATM   30  C   UNK N   1      35.643  15.687  11.642  0.00  0.00     0.032 C 
HETATM   31  C   UNK N   1      35.932  14.725   9.387  0.00  0.00     0.032 C 
ENDBRANCH  27  29
ENDBRANCH  24  27
ENDBRANCH  11  21
BRANCH  19  32
HETATM   32  O   UNK N   1      30.092  11.214   2.217  0.00  0.00    -0.348 OA
BRANCH  32  33
HETATM   33  C   UNK N   1      30.045  11.159   0.842  0.00  0.00     0.206 C 
BRANCH  33  34
HETATM   34  C   UNK N   1      31.305  11.772   0.239  0.00  0.00     0.299 C 
BRANCH  34  35
HETATM   35  N   UNK N   1      31.187  11.934  -1.204  0.00  0.00     0.094 N 
HETATM   36  C   UNK N   1      32.507  11.724  -1.804  0.00  0.00     0.298 C 
HETATM   37  C   UNK N   1      32.371  11.692  -3.327  0.00  0.00     0.198 C 
HETATM   38  O   UNK N   1      31.569  10.596  -3.688  0.00  0.00    -0.388 OA
HETATM   39  C   UNK N   1      30.273  10.871  -3.215  0.00  0.00     0.198 C 
HETATM   40  C   UNK N   1      30.278  10.888  -1.682  0.00  0.00     0.298 C 
ENDBRANCH  34  35
ENDBRANCH  33  34
ENDBRANCH  32  33
ENDBRANCH  19  32
ENDBRANCH   8   9
ENDBRANCH   3   8
BRANCH   1  41
HETATM   41  C   UNK N   1      24.110  13.919   6.912  0.00  0.00     0.241 C 
HETATM   42  N   UNK N   1      24.050  12.589   7.163  0.00  0.00    -0.340 N 
HETATM   43  H   UNK N   1      24.763  12.000   6.826  0.00  0.00     0.163 HD
HETATM   44  O   UNK N   1      23.310  14.682   7.435  0.00  0.00    -0.271 OA
BRANCH  42  45
HETATM   45  C   UNK N   1      22.956  12.018   7.918  0.00  0.00     0.122 A 
HETATM   46  C   UNK N   1      23.316  10.688   8.546  0.00  0.00     0.050 A 
HETATM   47  C   UNK N   1      23.046  11.892   9.436  0.00  0.00     0.027 A 
BRANCH  47  48
HETATM   48  C   UNK N   1      24.380  12.331  10.015  0.00  0.00     0.003 C 
HETATM   49  C   UNK N   1      24.423  12.005  11.494  0.00  0.00     0.005 C 
ENDBRANCH  47  48
BRANCH  45  50
HETATM   50  C   UNK N   1      21.607  12.054   7.250  0.00  0.00     0.169 C 
HETATM   51  O   UNK N   1      21.299  11.230   6.404  0.00  0.00    -0.648 OA
BRANCH  50  52
HETATM   52  O   UNK N   1      20.736  13.032   7.571  0.00  0.00    -0.775 OA
HETATM   53  H   UNK N   1      19.830  13.271   7.585  0.00  0.00     0.167 HD
ENDBRANCH  50  52
ENDBRANCH  45  50
ENDBRANCH  42  45
ENDBRANCH   1  41
BRANCH   6  54
HETATM   54  C   UNK N   1      23.345  15.131   2.427  0.00  0.00     0.186 C 
BRANCH  54  55
HETATM   55  C   UNK N   1      24.376  14.276   1.602  0.00  0.00    -0.022 C 
HETATM   56  C   UNK N   1      25.609  15.087   1.233  0.00  0.00     0.017 C 
HETATM   57  C   UNK N   1      23.746  13.763   0.312  0.00  0.00     0.017 C 
HETATM   58  C   UNK N   1      24.833  13.027   2.318  0.00  0.00     0.017 C 
ENDBRANCH  54  55
BRANCH  54  59
HETATM   59  N   UNK N   1      21.963  14.979   1.998  0.00  0.00    -0.323 N 
HETATM   60  C   UNK N   1      20.885  15.779   2.249  0.00  0.00     0.361 C 
HETATM   61  O   UNK N   1      20.987  16.785   2.921  0.00  0.00    -0.238 OA
HETATM   62  H   UNK N   1      21.779  14.185   1.447  0.00  0.00     0.165 HD
BRANCH  60  63
HETATM   63  O   UNK N   1      19.687  15.488   1.684  0.00  0.00    -0.299 OA
BRANCH  63  64
HETATM   64  C   UNK N   1      19.170  14.210   1.645  0.00  0.00     0.134 C 
HETATM   65  C   UNK N   1      19.794  13.407   0.535  0.00  0.00     0.037 C 
HETATM   66  C   UNK N   1      19.562  11.957   0.940  0.00  0.00    -0.008 A 
HETATM   67  C   UNK N   1      20.653  11.491   1.883  0.00  0.00     0.010 A 
HETATM   68  C   UNK N   1      19.337  11.968   2.451  0.00  0.00    -0.008 A 
HETATM   69  C   UNK N   1      19.493  13.406   2.884  0.00  0.00     0.037 C 
ENDBRANCH  63  64
ENDBRANCH  60  63
ENDBRANCH  54  59
ENDBRANCH   6  54
TORSDOF 19
ENDMDL
MODEL 8
REMARK VINA RESULT:      -7.4      2.338      7.225
REMARK  19 active torsions:
REMARK  status: ('A' for Active; 'I' for Inactive)
REMARK    1  A    between atoms: C_3  and  C_2 
REMARK    2  A    between atoms: C_5  and  C_6 
REMARK    3  A    between atoms: C_5  and  N_9 
REMARK    4  A    between atoms: C_6  and  O_8 
REMARK       I    between atoms: N_9  and  C_10 
REMARK    5  A    between atoms: C_12  and  C_10 
REMARK    6  A    between atoms: C_14  and  O_34 
REMARK       I    between atoms: N_16  and  C_17 
REMARK    7  A    between atoms: C_17  and  C_19 
REMARK    8  A    between atoms: C_19  and  C_20 
REMARK    9  A    between atoms: C_19  and  N_24 
REMARK       I    between atoms: N_24  and  C_25 
REMARK   10  A    between atoms: C_25  and  O_27 
REMARK   11  A    between atoms: C_28  and  O_27 
REMARK   12  A    between atoms: O_34  and  C_35 
REMARK   13  A    between atoms: C_37  and  C_56 
REMARK   14  A    between atoms: C_44  and  O_47 
REMARK   15  A    between atoms: O_47  and  C_48 
REMARK   16  A    between atoms: C_48  and  C_49 
REMARK   17  A    between atoms: C_49  and  N_50 
REMARK   18  A    between atoms: C_59  and  N_62 
REMARK   19  A    between atoms: N_62  and  C_63 
ROOT
HETATM    1  C   UNK N   1      35.974  13.377  12.266  0.00  0.00     0.181 A 
HETATM    2  C   UNK N   1      35.817  14.871  12.075  0.00  0.00     0.069 A 
HETATM    3  C   UNK N   1      34.579  15.068  11.201  0.00  0.00     0.149 A 
HETATM    4  C   UNK N   1      33.971  13.681  10.974  0.00  0.00     0.159 A 
HETATM    5  N   UNK N   1      34.873  12.754  11.588  0.00  0.00    -0.334 N 
HETATM    6  C   UNK N   1      34.949  11.449  11.208  0.00  0.00     0.244 C 
HETATM    7  O   UNK N   1      35.737  10.699  11.768  0.00  0.00    -0.271 OA
ENDROOT
BRANCH   3   8
HETATM    8  O   UNK N   1      34.937  15.775  10.057  0.00  0.00    -0.343 OA
BRANCH   8   9
HETATM    9  C   UNK N   1      34.342  15.820   8.829  0.00  0.00     0.084 A 
HETATM   10  C   UNK N   1      33.129  16.478   8.613  0.00  0.00     0.069 A 
HETATM   11  C   UNK N   1      32.536  16.487   7.351  0.00  0.00     0.062 A 
HETATM   12  N   UNK N   1      33.151  15.863   6.311  0.00  0.00    -0.352 N 
HETATM   13  C   UNK N   1      34.354  15.241   6.464  0.00  0.00     0.070 A 
ATOM     14  HN  UNK N   1      32.702  15.860   5.395  1.00  0.00     0.166 HD
HETATM   15  C   UNK N   1      34.967  15.201   7.740  0.00  0.00     0.026 A 
HETATM   16  C   UNK N   1      34.995  14.649   5.363  0.00  0.00     0.095 A 
HETATM   17  C   UNK N   1      36.192  14.549   7.902  0.00  0.00     0.019 A 
HETATM   18  C   UNK N   1      36.821  13.965   6.809  0.00  0.00     0.039 A 
HETATM   19  C   UNK N   1      36.242  14.023   5.539  0.00  0.00     0.092 A 
HETATM   20 Cl   UNK N   1      34.251  14.708   3.766  0.00  0.00    -0.079 Cl
BRANCH  11  21
HETATM   21  C   UNK N   1      31.217  17.108   7.176  0.00  0.00     0.067 A 
HETATM   22  C   UNK N   1      30.419  17.515   8.269  0.00  0.00     0.085 A 
HETATM   23  S   UNK N   1      28.986  17.985   7.593  0.00  0.00    -0.064 SA
HETATM   24  C   UNK N   1      29.359  17.680   6.017  0.00  0.00     0.145 A 
HETATM   25  N   UNK N   1      30.625  17.213   5.934  0.00  0.00    -0.335 N 
ATOM     26  HN  UNK N   1      31.088  16.968   5.058  1.00  0.00     0.168 HD
BRANCH  24  27
HETATM   27  N   UNK N   1      28.474  17.716   4.910  0.00  0.00    -0.367 N 
HETATM   28  H   UNK N   1      28.653  17.123   4.146  0.00  0.00     0.162 HD
BRANCH  27  29
HETATM   29  C   UNK N   1      27.315  18.584   4.853  0.00  0.00     0.075 C 
HETATM   30  C   UNK N   1      27.673  20.031   4.572  0.00  0.00     0.032 C 
HETATM   31  C   UNK N   1      26.373  18.090   3.777  0.00  0.00     0.032 C 
ENDBRANCH  27  29
ENDBRANCH  24  27
ENDBRANCH  11  21
BRANCH  19  32
HETATM   32  O   UNK N   1      36.896  13.479   4.492  0.00  0.00    -0.348 OA
BRANCH  32  33
HETATM   33  C   UNK N   1      37.691  12.369   4.667  0.00  0.00     0.206 C 
BRANCH  33  34
HETATM   34  C   UNK N   1      39.121  12.661   4.223  0.00  0.00     0.299 C 
BRANCH  34  35
HETATM   35  N   UNK N   1      39.934  13.162   5.324  0.00  0.00     0.094 N 
HETATM   36  C   UNK N   1      40.095  12.087   6.308  0.00  0.00     0.298 C 
HETATM   37  C   UNK N   1      41.104  12.522   7.371  0.00  0.00     0.198 C 
HETATM   38  O   UNK N   1      42.353  12.718   6.758  0.00  0.00    -0.388 OA
HETATM   39  C   UNK N   1      42.217  13.833   5.911  0.00  0.00     0.198 C 
HETATM   40  C   UNK N   1      41.249  13.497   4.771  0.00  0.00     0.298 C 
ENDBRANCH  34  35
ENDBRANCH  33  34
ENDBRANCH  32  33
ENDBRANCH  19  32
ENDBRANCH   8   9
ENDBRANCH   3   8
BRANCH   1  41
HETATM   41  C   UNK N   1      36.280  12.995  13.678  0.00  0.00     0.241 C 
HETATM   42  N   UNK N   1      35.408  13.316  14.664  0.00  0.00    -0.340 N 
HETATM   43  H   UNK N   1      34.465  13.490  14.438  0.00  0.00     0.163 HD
HETATM   44  O   UNK N   1      37.419  12.642  13.953  0.00  0.00    -0.271 OA
BRANCH  42  45
HETATM   45  C   UNK N   1      35.836  13.406  16.043  0.00  0.00     0.122 A 
HETATM   46  C   UNK N   1      34.704  13.160  17.018  0.00  0.00     0.050 A 
HETATM   47  C   UNK N   1      35.852  12.164  16.931  0.00  0.00     0.027 A 
BRANCH  47  48
HETATM   48  C   UNK N   1      35.313  10.915  16.256  0.00  0.00     0.003 C 
HETATM   49  C   UNK N   1      34.735   9.983  17.303  0.00  0.00     0.005 C 
ENDBRANCH  47  48
BRANCH  45  50
HETATM   50  C   UNK N   1      36.717  14.579  16.382  0.00  0.00     0.169 C 
HETATM   51  O   UNK N   1      36.485  15.282  17.352  0.00  0.00    -0.648 OA
BRANCH  50  52
HETATM   52  O   UNK N   1      37.762  14.873  15.583  0.00  0.00    -0.775 OA
HETATM   53  H   UNK N   1      38.007  15.178  14.732  0.00  0.00     0.167 HD
ENDBRANCH  50  52
ENDBRANCH  45  50
ENDBRANCH  42  45
ENDBRANCH   1  41
BRANCH   6  54
HETATM   54  C   UNK N   1      34.271  10.975   9.929  0.00  0.00     0.186 C 
BRANCH  54  55
HETATM   55  C   UNK N   1      35.417  10.451   8.985  0.00  0.00    -0.022 C 
HETATM   56  C   UNK N   1      35.075  10.666   7.518  0.00  0.00     0.017 C 
HETATM   57  C   UNK N   1      35.656   8.961   9.199  0.00  0.00     0.017 C 
HETATM   58  C   UNK N   1      36.759  11.089   9.254  0.00  0.00     0.017 C 
ENDBRANCH  54  55
BRANCH  54  59
HETATM   59  N   UNK N   1      33.298   9.962  10.307  0.00  0.00    -0.323 N 
HETATM   60  C   UNK N   1      32.170   9.558   9.652  0.00  0.00     0.361 C 
HETATM   61  O   UNK N   1      31.840  10.056   8.595  0.00  0.00    -0.238 OA
HETATM   62  H   UNK N   1      33.479   9.501  11.158  0.00  0.00     0.165 HD
BRANCH  60  63
HETATM   63  O   UNK N   1      31.435   8.534  10.151  0.00  0.00    -0.299 OA
BRANCH  63  64
HETATM   64  C   UNK N   1      31.536   7.241   9.682  0.00  0.00     0.134 C 
HETATM   65  C   UNK N   1      32.671   6.510  10.347  0.00  0.00     0.037 C 
HETATM   66  C   UNK N   1      32.332   5.037  10.163  0.00  0.00    -0.008 A 
HETATM   67  C   UNK N   1      31.397   4.569  11.260  0.00  0.00     0.010 A 
HETATM   68  C   UNK N   1      30.825   4.973   9.922  0.00  0.00    -0.008 A 
HETATM   69  C   UNK N   1      30.329   6.396  10.020  0.00  0.00     0.037 C 
ENDBRANCH  63  64
ENDBRANCH  60  63
ENDBRANCH  54  59
ENDBRANCH   6  54
TORSDOF 19
ENDMDL
MODEL 9
REMARK VINA RESULT:      -7.3      2.518      7.284
REMARK  19 active torsions:
REMARK  status: ('A' for Active; 'I' for Inactive)
REMARK    1  A    between atoms: C_3  and  C_2 
REMARK    2  A    between atoms: C_5  and  C_6 
REMARK    3  A    between atoms: C_5  and  N_9 
REMARK    4  A    between atoms: C_6  and  O_8 
REMARK       I    between atoms: N_9  and  C_10 
REMARK    5  A    between atoms: C_12  and  C_10 
REMARK    6  A    between atoms: C_14  and  O_34 
REMARK       I    between atoms: N_16  and  C_17 
REMARK    7  A    between atoms: C_17  and  C_19 
REMARK    8  A    between atoms: C_19  and  C_20 
REMARK    9  A    between atoms: C_19  and  N_24 
REMARK       I    between atoms: N_24  and  C_25 
REMARK   10  A    between atoms: C_25  and  O_27 
REMARK   11  A    between atoms: C_28  and  O_27 
REMARK   12  A    between atoms: O_34  and  C_35 
REMARK   13  A    between atoms: C_37  and  C_56 
REMARK   14  A    between atoms: C_44  and  O_47 
REMARK   15  A    between atoms: O_47  and  C_48 
REMARK   16  A    between atoms: C_48  and  C_49 
REMARK   17  A    between atoms: C_49  and  N_50 
REMARK   18  A    between atoms: C_59  and  N_62 
REMARK   19  A    between atoms: N_62  and  C_63 
ROOT
HETATM    1  C   UNK N   1      35.860  13.847  11.122  0.00  0.00     0.181 A 
HETATM    2  C   UNK N   1      35.816  15.244  10.539  0.00  0.00     0.069 A 
HETATM    3  C   UNK N   1      34.645  15.267   9.558  0.00  0.00     0.149 A 
HETATM    4  C   UNK N   1      33.956  13.903   9.656  0.00  0.00     0.159 A 
HETATM    5  N   UNK N   1      34.757  13.125  10.552  0.00  0.00    -0.334 N 
HETATM    6  C   UNK N   1      34.764  11.764  10.531  0.00  0.00     0.244 C 
HETATM    7  O   UNK N   1      35.468  11.148  11.321  0.00  0.00    -0.271 OA
ENDROOT
BRANCH   3   8
HETATM    8  O   UNK N   1      35.113  15.629   8.298  0.00  0.00    -0.343 OA
BRANCH   8   9
HETATM    9  C   UNK N   1      34.573  15.407   7.064  0.00  0.00     0.084 A 
HETATM   10  C   UNK N   1      33.312  15.888   6.705  0.00  0.00     0.069 A 
HETATM   11  C   UNK N   1      32.780  15.627   5.443  0.00  0.00     0.062 A 
HETATM   12  N   UNK N   1      33.501  14.909   4.541  0.00  0.00    -0.352 N 
HETATM   13  C   UNK N   1      34.752  14.452   4.832  0.00  0.00     0.070 A 
ATOM     14  HN  UNK N   1      33.098  14.707   3.626  1.00  0.00     0.166 HD
HETATM   15  C   UNK N   1      35.306  14.687   6.113  0.00  0.00     0.026 A 
HETATM   16  C   UNK N   1      35.499  13.758   3.865  0.00  0.00     0.095 A 
HETATM   17  C   UNK N   1      36.582  14.205   6.418  0.00  0.00     0.019 A 
HETATM   18  C   UNK N   1      37.316  13.519   5.458  0.00  0.00     0.039 A 
HETATM   19  C   UNK N   1      36.794  13.305   4.179  0.00  0.00     0.092 A 
HETATM   20 Cl   UNK N   1      34.829  13.474   2.260  0.00  0.00    -0.079 Cl
BRANCH  11  21
HETATM   21  C   UNK N   1      31.415  16.067   5.128  0.00  0.00     0.067 A 
HETATM   22  C   UNK N   1      30.811  15.827   3.874  0.00  0.00     0.085 A 
HETATM   23  S   UNK N   1      29.375  16.642   3.934  0.00  0.00    -0.064 SA
HETATM   24  C   UNK N   1      29.522  17.264   5.453  0.00  0.00     0.145 A 
HETATM   25  N   UNK N   1      30.689  16.854   5.999  0.00  0.00    -0.335 N 
ATOM     26  HN  UNK N   1      30.997  17.097   6.940  1.00  0.00     0.168 HD
BRANCH  24  27
HETATM   27  N   UNK N   1      28.675  18.221   6.067  0.00  0.00    -0.367 N 
HETATM   28  H   UNK N   1      28.691  18.301   7.047  0.00  0.00     0.162 HD
BRANCH  27  29
HETATM   29  C   UNK N   1      27.789  19.088   5.317  0.00  0.00     0.075 C 
HETATM   30  C   UNK N   1      26.391  18.520   5.166  0.00  0.00     0.032 C 
HETATM   31  C   UNK N   1      27.705  20.433   6.006  0.00  0.00     0.032 C 
ENDBRANCH  27  29
ENDBRANCH  24  27
ENDBRANCH  11  21
BRANCH  19  32
HETATM   32  O   UNK N   1      37.546  12.669   3.259  0.00  0.00    -0.348 OA
BRANCH  32  33
HETATM   33  C   UNK N   1      38.575  11.842   3.650  0.00  0.00     0.206 C 
BRANCH  33  34
HETATM   34  C   UNK N   1      39.763  11.984   2.703  0.00  0.00     0.299 C 
BRANCH  34  35
HETATM   35  N   UNK N   1      40.888  12.649   3.349  0.00  0.00     0.094 N 
HETATM   36  C   UNK N   1      40.815  14.082   3.048  0.00  0.00     0.298 C 
HETATM   37  C   UNK N   1      41.865  14.826   3.873  0.00  0.00     0.198 C 
HETATM   38  O   UNK N   1      41.565  14.670   5.237  0.00  0.00    -0.388 OA
HETATM   39  C   UNK N   1      41.763  13.310   5.541  0.00  0.00     0.198 C 
HETATM   40  C   UNK N   1      40.728  12.461   4.793  0.00  0.00     0.298 C 
ENDBRANCH  34  35
ENDBRANCH  33  34
ENDBRANCH  32  33
ENDBRANCH  19  32
ENDBRANCH   8   9
ENDBRANCH   3   8
BRANCH   1  41
HETATM   41  C   UNK N   1      36.061  13.835  12.603  0.00  0.00     0.241 C 
HETATM   42  N   UNK N   1      36.984  13.006  13.148  0.00  0.00    -0.340 N 
HETATM   43  H   UNK N   1      37.722  12.670  12.590  0.00  0.00     0.163 HD
HETATM   44  O   UNK N   1      35.219  14.371  13.310  0.00  0.00    -0.271 OA
BRANCH  42  45
HETATM   45  C   UNK N   1      36.904  12.606  14.536  0.00  0.00     0.122 A 
HETATM   46  C   UNK N   1      35.932  11.467  14.756  0.00  0.00     0.050 A 
HETATM   47  C   UNK N   1      37.420  11.239  14.978  0.00  0.00     0.027 A 
BRANCH  47  48
HETATM   48  C   UNK N   1      37.917  10.367  13.839  0.00  0.00     0.003 C 
HETATM   49  C   UNK N   1      38.897   9.343  14.374  0.00  0.00     0.005 C 
ENDBRANCH  47  48
BRANCH  45  50
HETATM   50  C   UNK N   1      36.800  13.726  15.537  0.00  0.00     0.169 C 
HETATM   51  O   UNK N   1      35.916  13.739  16.379  0.00  0.00    -0.648 OA
BRANCH  50  52
HETATM   52  O   UNK N   1      37.680  14.745  15.483  0.00  0.00    -0.775 OA
HETATM   53  H   UNK N   1      37.783  15.652  15.272  0.00  0.00     0.167 HD
ENDBRANCH  50  52
ENDBRANCH  45  50
ENDBRANCH  42  45
ENDBRANCH   1  41
BRANCH   6  54
HETATM   54  C   UNK N   1      34.127  11.006   9.375  0.00  0.00     0.186 C 
BRANCH  54  55
HETATM   55  C   UNK N   1      35.296  10.627   8.391  0.00  0.00    -0.022 C 
HETATM   56  C   UNK N   1      36.565  11.405   8.703  0.00  0.00     0.017 C 
HETATM   57  C   UNK N   1      34.906  10.921   6.947  0.00  0.00     0.017 C 
HETATM   58  C   UNK N   1      35.634   9.155   8.395  0.00  0.00     0.017 C 
ENDBRANCH  54  55
BRANCH  54  59
HETATM   59  N   UNK N   1      33.429   9.863   9.942  0.00  0.00    -0.323 N 
HETATM   60  C   UNK N   1      32.209   9.343   9.613  0.00  0.00     0.361 C 
HETATM   61  O   UNK N   1      31.527   9.835   8.737  0.00  0.00    -0.238 OA
HETATM   62  H   UNK N   1      33.904   9.396  10.666  0.00  0.00     0.165 HD
BRANCH  60  63
HETATM   63  O   UNK N   1      31.774   8.214  10.226  0.00  0.00    -0.299 OA
BRANCH  63  64
HETATM   64  C   UNK N   1      30.977   7.281   9.597  0.00  0.00     0.134 C 
HETATM   65  C   UNK N   1      31.536   5.893   9.760  0.00  0.00     0.037 C 
HETATM   66  C   UNK N   1      30.345   4.974   9.522  0.00  0.00    -0.008 A 
HETATM   67  C   UNK N   1      29.550   4.797  10.800  0.00  0.00     0.010 A 
HETATM   68  C   UNK N   1      29.098   5.817   9.782  0.00  0.00    -0.008 A 
HETATM   69  C   UNK N   1      29.598   7.177  10.208  0.00  0.00     0.037 C 
ENDBRANCH  63  64
ENDBRANCH  60  63
ENDBRANCH  54  59
ENDBRANCH   6  54
TORSDOF 19
ENDMDL
