MODEL 1
REMARK VINA RESULT:      -8.5      0.000      0.000
REMARK  5 active torsions:
REMARK  status: ('A' for Active; 'I' for Inactive)
REMARK    1  A    between atoms: C_3  and  N_9 
REMARK       I    between atoms: N_9  and  C_10 
REMARK       I    between atoms: C_10  and  N_12 
REMARK    2  A    between atoms: N_12  and  C_13 
REMARK    3  A    between atoms: C_17  and  S_20 
REMARK    4  A    between atoms: C_18  and  O_19 
REMARK    5  A    between atoms: S_20  and  N_23 
ROOT
HETATM    1  C   UNK N   1      36.567  13.860  10.652  0.00  0.00     0.071 A 
HETATM    2  C   UNK N   1      36.720  12.764   9.792  0.00  0.00     0.034 A 
HETATM    3  C   UNK N   1      36.245  12.839   8.477  0.00  0.00     0.028 A 
HETATM    4  C   UNK N   1      35.628  14.007   8.004  0.00  0.00     0.059 A 
HETATM    5  C   UNK N   1      35.470  15.113   8.866  0.00  0.00     0.131 A 
HETATM    6  C   UNK N   1      35.945  15.017  10.191  0.00  0.00     0.117 A 
HETATM    7 Cl   UNK N   1      35.084  14.052   6.338  0.00  0.00    -0.083 Cl
ENDROOT
BRANCH   1   8
HETATM    8  N   UNK N   1      37.040  13.865  11.993  0.00  0.00    -0.306 N 
HETATM    9  C   UNK N   1      36.305  13.907  13.127  0.00  0.00     0.325 C 
HETATM   10  N   UNK N   1      36.966  13.846  14.313  0.00  0.00    -0.307 N 
HETATM   11  O   UNK N   1      35.083  13.918  13.083  0.00  0.00    -0.247 OA
HETATM   12  H   UNK N   1      37.950  13.823  14.264  0.00  0.00     0.170 HD
HETATM   13  H   UNK N   1      38.017  13.834  12.109  0.00  0.00     0.171 HD
BRANCH  10  14
HETATM   14  C   UNK N   1      36.396  13.812  15.614  0.00  0.00     0.061 A 
HETATM   15  C   UNK N   1      35.643  12.715  16.063  0.00  0.00     0.031 A 
HETATM   16  C   UNK N   1      35.105  12.706  17.351  0.00  0.00     0.005 A 
HETATM   17  C   UNK N   1      35.321  13.789  18.206  0.00  0.00     0.044 A 
HETATM   18  C   UNK N   1      36.070  14.886  17.772  0.00  0.00     0.140 A 
HETATM   19  C   UNK N   1      36.606  14.903  16.478  0.00  0.00     0.099 A 
HETATM   20  F   UNK N   1      36.277  15.929  18.613  0.00  0.00    -0.204 F 
HETATM   21 Cl   UNK N   1      37.555  16.289  15.949  0.00  0.00    -0.079 Cl
ENDBRANCH  10  14
ENDBRANCH   1   8
BRANCH   6  22
HETATM   22  O   UNK N   1      35.819  16.060  11.034  0.00  0.00    -0.357 OA
HETATM   23  H   UNK N   1      35.035  16.164  11.536  0.00  0.00     0.217 HD
ENDBRANCH   6  22
BRANCH   5  24
HETATM   24  S   UNK N   1      34.725  16.686   8.332  0.00  0.00     0.248 S 
HETATM   25  O   UNK N   1      35.099  17.853   9.262  0.00  0.00    -0.206 OA
HETATM   26  O   UNK N   1      33.603  16.281   9.301  0.00  0.00    -0.206 OA
BRANCH  24  27
HETATM   27  N   UNK N   1      33.393  17.236   7.289  0.00  0.00    -0.203 NA
HETATM   28  C   UNK N   1      32.243  16.351   7.444  0.00  0.00     0.127 C 
HETATM   29  C   UNK N   1      31.125  16.817   6.505  0.00  0.00     0.129 C 
HETATM   30  N   UNK N   1      31.582  16.748   5.115  0.00  0.00    -0.419 N 
HETATM   31  C   UNK N   1      32.745  17.616   4.952  0.00  0.00     0.129 C 
HETATM   32  H   UNK N   1      31.154  16.187   4.378  0.00  0.00     0.153 HD
HETATM   33  C   UNK N   1      33.852  17.165   5.896  0.00  0.00     0.127 C 
ENDBRANCH  24  27
ENDBRANCH   5  24
TORSDOF 5
ENDMDL
MODEL 2
REMARK VINA RESULT:      -8.1      1.620      1.845
REMARK  5 active torsions:
REMARK  status: ('A' for Active; 'I' for Inactive)
REMARK    1  A    between atoms: C_3  and  N_9 
REMARK       I    between atoms: N_9  and  C_10 
REMARK       I    between atoms: C_10  and  N_12 
REMARK    2  A    between atoms: N_12  and  C_13 
REMARK    3  A    between atoms: C_17  and  S_20 
REMARK    4  A    between atoms: C_18  and  O_19 
REMARK    5  A    between atoms: S_20  and  N_23 
ROOT
HETATM    1  C   UNK N   1      36.708  13.738  11.109  0.00  0.00     0.071 A 
HETATM    2  C   UNK N   1      36.975  12.689  10.218  0.00  0.00     0.034 A 
HETATM    3  C   UNK N   1      36.574  12.792   8.881  0.00  0.00     0.028 A 
HETATM    4  C   UNK N   1      35.916  13.942   8.417  0.00  0.00     0.059 A 
HETATM    5  C   UNK N   1      35.642  14.999   9.310  0.00  0.00     0.131 A 
HETATM    6  C   UNK N   1      36.045  14.875  10.656  0.00  0.00     0.117 A 
HETATM    7 Cl   UNK N   1      35.467  14.025   6.724  0.00  0.00    -0.083 Cl
ENDROOT
BRANCH   1   8
HETATM    8  N   UNK N   1      37.102  13.714  12.475  0.00  0.00    -0.306 N 
HETATM    9  C   UNK N   1      36.310  13.555  13.560  0.00  0.00     0.325 C 
HETATM   10  N   UNK N   1      36.908  13.507  14.779  0.00  0.00    -0.307 N 
HETATM   11  O   UNK N   1      35.106  13.381  13.437  0.00  0.00    -0.247 OA
HETATM   12  H   UNK N   1      37.884  13.640  14.792  0.00  0.00     0.170 HD
HETATM   13  H   UNK N   1      38.063  13.825  12.651  0.00  0.00     0.171 HD
BRANCH  10  14
HETATM   14  C   UNK N   1      36.282  13.286  16.035  0.00  0.00     0.061 A 
HETATM   15  C   UNK N   1      35.933  14.348  16.884  0.00  0.00     0.031 A 
HETATM   16  C   UNK N   1      35.308  14.101  18.107  0.00  0.00     0.005 A 
HETATM   17  C   UNK N   1      35.019  12.789  18.491  0.00  0.00     0.044 A 
HETATM   18  C   UNK N   1      35.359  11.723  17.655  0.00  0.00     0.140 A 
HETATM   19  C   UNK N   1      35.992  11.966  16.430  0.00  0.00     0.099 A 
HETATM   20  F   UNK N   1      35.068  10.455  18.036  0.00  0.00    -0.204 F 
HETATM   21 Cl   UNK N   1      36.408  10.612  15.383  0.00  0.00    -0.079 Cl
ENDBRANCH  10  14
ENDBRANCH   1   8
BRANCH   6  22
HETATM   22  O   UNK N   1      35.809  15.873  11.530  0.00  0.00    -0.357 OA
HETATM   23  H   UNK N   1      35.051  15.844  12.080  0.00  0.00     0.217 HD
ENDBRANCH   6  22
BRANCH   5  24
HETATM   24  S   UNK N   1      34.837  16.547   8.793  0.00  0.00     0.248 S 
HETATM   25  O   UNK N   1      35.193  17.726   9.716  0.00  0.00    -0.206 OA
HETATM   26  O   UNK N   1      33.749  16.108   9.786  0.00  0.00    -0.206 OA
BRANCH  24  27
HETATM   27  N   UNK N   1      33.466  17.055   7.780  0.00  0.00    -0.203 NA
HETATM   28  C   UNK N   1      32.365  16.107   7.921  0.00  0.00     0.127 C 
HETATM   29  C   UNK N   1      31.215  16.539   7.006  0.00  0.00     0.129 C 
HETATM   30  N   UNK N   1      31.658  16.533   5.610  0.00  0.00    -0.419 N 
HETATM   31  C   UNK N   1      32.773  17.465   5.461  0.00  0.00     0.129 C 
HETATM   32  H   UNK N   1      31.252  15.971   4.862  0.00  0.00     0.153 HD
HETATM   33  C   UNK N   1      33.912  17.048   6.381  0.00  0.00     0.127 C 
ENDBRANCH  24  27
ENDBRANCH   5  24
TORSDOF 5
ENDMDL
MODEL 3
REMARK VINA RESULT:      -7.7     11.421     13.698
REMARK  5 active torsions:
REMARK  status: ('A' for Active; 'I' for Inactive)
REMARK    1  A    between atoms: C_3  and  N_9 
REMARK       I    between atoms: N_9  and  C_10 
REMARK       I    between atoms: C_10  and  N_12 
REMARK    2  A    between atoms: N_12  and  C_13 
REMARK    3  A    between atoms: C_17  and  S_20 
REMARK    4  A    between atoms: C_18  and  O_19 
REMARK    5  A    between atoms: S_20  and  N_23 
ROOT
HETATM    1  C   UNK N   1      22.217  16.924   4.679  0.00  0.00     0.071 A 
HETATM    2  C   UNK N   1      20.971  17.232   4.116  0.00  0.00     0.034 A 
HETATM    3  C   UNK N   1      20.793  18.443   3.437  0.00  0.00     0.028 A 
HETATM    4  C   UNK N   1      21.855  19.350   3.302  0.00  0.00     0.059 A 
HETATM    5  C   UNK N   1      23.111  19.047   3.868  0.00  0.00     0.131 A 
HETATM    6  C   UNK N   1      23.270  17.826   4.557  0.00  0.00     0.117 A 
HETATM    7 Cl   UNK N   1      21.579  20.837   2.412  0.00  0.00    -0.083 Cl
ENDROOT
BRANCH   1   8
HETATM    8  N   UNK N   1      22.478  15.707   5.365  0.00  0.00    -0.306 N 
HETATM    9  C   UNK N   1      22.255  15.430   6.670  0.00  0.00     0.325 C 
HETATM   10  N   UNK N   1      22.529  14.173   7.107  0.00  0.00    -0.307 N 
HETATM   11  O   UNK N   1      21.748  16.261   7.409  0.00  0.00    -0.247 OA
HETATM   12  H   UNK N   1      22.921  13.557   6.446  0.00  0.00     0.170 HD
HETATM   13  H   UNK N   1      22.867  14.980   4.827  0.00  0.00     0.171 HD
BRANCH  10  14
HETATM   14  C   UNK N   1      22.313  13.650   8.410  0.00  0.00     0.061 A 
HETATM   15  C   UNK N   1      21.026  13.536   8.957  0.00  0.00     0.031 A 
HETATM   16  C   UNK N   1      20.845  13.007  10.237  0.00  0.00     0.005 A 
HETATM   17  C   UNK N   1      21.948  12.581  10.979  0.00  0.00     0.044 A 
HETATM   18  C   UNK N   1      23.235  12.687  10.445  0.00  0.00     0.140 A 
HETATM   19  C   UNK N   1      23.422  13.223   9.165  0.00  0.00     0.099 A 
HETATM   20  F   UNK N   1      24.298  12.264  11.173  0.00  0.00    -0.204 F 
HETATM   21 Cl   UNK N   1      25.050  13.342   8.503  0.00  0.00    -0.079 Cl
ENDBRANCH  10  14
ENDBRANCH   1   8
BRANCH   6  22
HETATM   22  O   UNK N   1      24.460  17.502   5.098  0.00  0.00    -0.357 OA
HETATM   23  H   UNK N   1      24.729  16.605   5.135  0.00  0.00     0.217 HD
ENDBRANCH   6  22
BRANCH   5  24
HETATM   24  S   UNK N   1      24.560  20.137   3.705  0.00  0.00     0.248 S 
HETATM   25  O   UNK N   1      24.526  20.960   2.405  0.00  0.00    -0.206 OA
HETATM   26  O   UNK N   1      25.148  18.948   2.930  0.00  0.00    -0.206 OA
BRANCH  24  27
HETATM   27  N   UNK N   1      26.196  20.281   4.388  0.00  0.00    -0.203 NA
HETATM   28  C   UNK N   1      26.962  19.073   4.101  0.00  0.00     0.127 C 
HETATM   29  C   UNK N   1      28.350  19.200   4.737  0.00  0.00     0.129 C 
HETATM   30  N   UNK N   1      28.223  19.336   6.190  0.00  0.00    -0.419 N 
HETATM   31  C   UNK N   1      27.440  20.532   6.489  0.00  0.00     0.129 C 
HETATM   32  H   UNK N   1      28.619  18.698   6.881  0.00  0.00     0.153 HD
HETATM   33  C   UNK N   1      26.065  20.415   5.845  0.00  0.00     0.127 C 
ENDBRANCH  24  27
ENDBRANCH   5  24
TORSDOF 5
ENDMDL
MODEL 4
REMARK VINA RESULT:      -7.6      2.469      2.863
REMARK  5 active torsions:
REMARK  status: ('A' for Active; 'I' for Inactive)
REMARK    1  A    between atoms: C_3  and  N_9 
REMARK       I    between atoms: N_9  and  C_10 
REMARK       I    between atoms: C_10  and  N_12 
REMARK    2  A    between atoms: N_12  and  C_13 
REMARK    3  A    between atoms: C_17  and  S_20 
REMARK    4  A    between atoms: C_18  and  O_19 
REMARK    5  A    between atoms: S_20  and  N_23 
ROOT
HETATM    1  C   UNK N   1      35.404  12.608  11.778  0.00  0.00     0.071 A 
HETATM    2  C   UNK N   1      36.480  11.830  11.331  0.00  0.00     0.034 A 
HETATM    3  C   UNK N   1      37.089  12.124  10.105  0.00  0.00     0.028 A 
HETATM    4  C   UNK N   1      36.643  13.200   9.324  0.00  0.00     0.059 A 
HETATM    5  C   UNK N   1      35.559  13.986   9.769  0.00  0.00     0.131 A 
HETATM    6  C   UNK N   1      34.950  13.670  11.001  0.00  0.00     0.117 A 
HETATM    7 Cl   UNK N   1      37.469  13.538   7.814  0.00  0.00    -0.083 Cl
ENDROOT
BRANCH   1   8
HETATM    8  N   UNK N   1      34.748  12.382  13.019  0.00  0.00    -0.306 N 
HETATM    9  C   UNK N   1      35.292  12.403  14.257  0.00  0.00     0.325 C 
HETATM   10  N   UNK N   1      34.463  12.214  15.317  0.00  0.00    -0.307 N 
HETATM   11  O   UNK N   1      36.476  12.664  14.417  0.00  0.00    -0.247 OA
HETATM   12  H   UNK N   1      33.520  12.025  15.106  0.00  0.00     0.170 HD
HETATM   13  H   UNK N   1      33.784  12.188  12.972  0.00  0.00     0.171 HD
BRANCH  10  14
HETATM   14  C   UNK N   1      34.807  12.258  16.695  0.00  0.00     0.061 A 
HETATM   15  C   UNK N   1      34.880  13.470  17.401  0.00  0.00     0.031 A 
HETATM   16  C   UNK N   1      35.209  13.480  18.757  0.00  0.00     0.005 A 
HETATM   17  C   UNK N   1      35.461  12.279  19.424  0.00  0.00     0.044 A 
HETATM   18  C   UNK N   1      35.390  11.066  18.734  0.00  0.00     0.140 A 
HETATM   19  C   UNK N   1      35.067  11.051  17.371  0.00  0.00     0.099 A 
HETATM   20  F   UNK N   1      35.632   9.907  19.393  0.00  0.00    -0.204 F 
HETATM   21 Cl   UNK N   1      34.974   9.514  16.518  0.00  0.00    -0.079 Cl
ENDBRANCH  10  14
ENDBRANCH   1   8
BRANCH   6  22
HETATM   22  O   UNK N   1      33.921  14.409  11.459  0.00  0.00    -0.357 OA
HETATM   23  H   UNK N   1      34.075  15.087  12.087  0.00  0.00     0.217 HD
ENDBRANCH   6  22
BRANCH   5  24
HETATM   24  S   UNK N   1      34.940  15.429   8.849  0.00  0.00     0.248 S 
HETATM   25  O   UNK N   1      34.241  16.449   9.766  0.00  0.00    -0.206 OA
HETATM   26  O   UNK N   1      33.642  14.609   8.782  0.00  0.00    -0.206 OA
BRANCH  24  27
HETATM   27  N   UNK N   1      34.550  15.864   7.169  0.00  0.00    -0.203 NA
HETATM   28  C   UNK N   1      33.889  17.165   7.132  0.00  0.00     0.127 C 
HETATM   29  C   UNK N   1      33.522  17.497   5.682  0.00  0.00     0.129 C 
HETATM   30  N   UNK N   1      32.596  16.490   5.158  0.00  0.00    -0.419 N 
HETATM   31  C   UNK N   1      33.240  15.179   5.208  0.00  0.00     0.129 C 
HETATM   32  H   UNK N   1      31.654  16.674   4.813  0.00  0.00     0.153 HD
HETATM   33  C   UNK N   1      33.620  14.853   6.646  0.00  0.00     0.127 C 
ENDBRANCH  24  27
ENDBRANCH   5  24
TORSDOF 5
ENDMDL
MODEL 5
REMARK VINA RESULT:      -7.5      2.569      3.229
REMARK  5 active torsions:
REMARK  status: ('A' for Active; 'I' for Inactive)
REMARK    1  A    between atoms: C_3  and  N_9 
REMARK       I    between atoms: N_9  and  C_10 
REMARK       I    between atoms: C_10  and  N_12 
REMARK    2  A    between atoms: N_12  and  C_13 
REMARK    3  A    between atoms: C_17  and  S_20 
REMARK    4  A    between atoms: C_18  and  O_19 
REMARK    5  A    between atoms: S_20  and  N_23 
ROOT
HETATM    1  C   UNK N   1      35.444  14.927  10.403  0.00  0.00     0.071 A 
HETATM    2  C   UNK N   1      35.720  16.265  10.716  0.00  0.00     0.034 A 
HETATM    3  C   UNK N   1      35.106  17.291   9.989  0.00  0.00     0.028 A 
HETATM    4  C   UNK N   1      34.204  16.995   8.955  0.00  0.00     0.059 A 
HETATM    5  C   UNK N   1      33.924  15.649   8.635  0.00  0.00     0.131 A 
HETATM    6  C   UNK N   1      34.559  14.628   9.371  0.00  0.00     0.117 A 
HETATM    7 Cl   UNK N   1      33.442  18.324   8.102  0.00  0.00    -0.083 Cl
ENDROOT
BRANCH   1   8
HETATM    8  N   UNK N   1      36.014  13.832  11.110  0.00  0.00    -0.306 N 
HETATM    9  C   UNK N   1      35.566  13.264  12.253  0.00  0.00     0.325 C 
HETATM   10  N   UNK N   1      36.239  12.184  12.728  0.00  0.00    -0.307 N 
HETATM   11  O   UNK N   1      34.544  13.662  12.792  0.00  0.00    -0.247 OA
HETATM   12  H   UNK N   1      37.044  11.915  12.228  0.00  0.00     0.170 HD
HETATM   13  H   UNK N   1      36.830  13.443  10.722  0.00  0.00     0.171 HD
BRANCH  10  14
HETATM   14  C   UNK N   1      35.910  11.400  13.867  0.00  0.00     0.061 A 
HETATM   15  C   UNK N   1      35.325  10.130  13.747  0.00  0.00     0.031 A 
HETATM   16  C   UNK N   1      35.024   9.378  14.884  0.00  0.00     0.005 A 
HETATM   17  C   UNK N   1      35.312   9.886  16.153  0.00  0.00     0.044 A 
HETATM   18  C   UNK N   1      35.896  11.148  16.286  0.00  0.00     0.140 A 
HETATM   19  C   UNK N   1      36.194  11.908  15.149  0.00  0.00     0.099 A 
HETATM   20  F   UNK N   1      36.176  11.627  17.524  0.00  0.00    -0.204 F 
HETATM   21 Cl   UNK N   1      36.938  13.494  15.334  0.00  0.00    -0.079 Cl
ENDBRANCH  10  14
ENDBRANCH   1   8
BRANCH   6  22
HETATM   22  O   UNK N   1      34.304  13.334   9.097  0.00  0.00    -0.357 OA
HETATM   23  H   UNK N   1      34.230  12.714   9.796  0.00  0.00     0.217 HD
ENDBRANCH   6  22
BRANCH   5  24
HETATM   24  S   UNK N   1      32.735  15.167   7.344  0.00  0.00     0.248 S 
HETATM   25  O   UNK N   1      32.264  13.710   7.501  0.00  0.00    -0.206 OA
HETATM   26  O   UNK N   1      33.995  14.673   6.615  0.00  0.00    -0.206 OA
BRANCH  24  27
HETATM   27  N   UNK N   1      32.229  15.722   5.732  0.00  0.00    -0.203 NA
HETATM   28  C   UNK N   1      33.343  16.384   5.061  0.00  0.00     0.127 C 
HETATM   29  C   UNK N   1      32.872  16.894   3.695  0.00  0.00     0.129 C 
HETATM   30  N   UNK N   1      31.791  17.867   3.872  0.00  0.00    -0.419 N 
HETATM   31  C   UNK N   1      30.676  17.220   4.560  0.00  0.00     0.129 C 
HETATM   32  H   UNK N   1      31.813  18.838   3.562  0.00  0.00     0.153 HD
HETATM   33  C   UNK N   1      31.146  16.698   5.911  0.00  0.00     0.127 C 
ENDBRANCH  24  27
ENDBRANCH   5  24
TORSDOF 5
ENDMDL
MODEL 6
REMARK VINA RESULT:      -7.5      3.247      3.761
REMARK  5 active torsions:
REMARK  status: ('A' for Active; 'I' for Inactive)
REMARK    1  A    between atoms: C_3  and  N_9 
REMARK       I    between atoms: N_9  and  C_10 
REMARK       I    between atoms: C_10  and  N_12 
REMARK    2  A    between atoms: N_12  and  C_13 
REMARK    3  A    between atoms: C_17  and  S_20 
REMARK    4  A    between atoms: C_18  and  O_19 
REMARK    5  A    between atoms: S_20  and  N_23 
ROOT
HETATM    1  C   UNK N   1      35.806  15.603  10.102  0.00  0.00     0.071 A 
HETATM    2  C   UNK N   1      35.177  16.846  10.255  0.00  0.00     0.034 A 
HETATM    3  C   UNK N   1      34.460  17.399   9.187  0.00  0.00     0.028 A 
HETATM    4  C   UNK N   1      34.352  16.715   7.967  0.00  0.00     0.059 A 
HETATM    5  C   UNK N   1      34.984  15.464   7.807  0.00  0.00     0.131 A 
HETATM    6  C   UNK N   1      35.711  14.925   8.890  0.00  0.00     0.117 A 
HETATM    7 Cl   UNK N   1      33.413  17.445   6.677  0.00  0.00    -0.083 Cl
ENDROOT
BRANCH   1   8
HETATM    8  N   UNK N   1      36.534  14.970  11.147  0.00  0.00    -0.306 N 
HETATM    9  C   UNK N   1      36.037  14.313  12.219  0.00  0.00     0.325 C 
HETATM   10  N   UNK N   1      36.921  13.731  13.071  0.00  0.00    -0.307 N 
HETATM   11  O   UNK N   1      34.831  14.180  12.370  0.00  0.00    -0.247 OA
HETATM   12  H   UNK N   1      37.876  13.870  12.872  0.00  0.00     0.170 HD
HETATM   13  H   UNK N   1      37.515  15.015  11.081  0.00  0.00     0.171 HD
BRANCH  10  14
HETATM   14  C   UNK N   1      36.621  12.945  14.216  0.00  0.00     0.061 A 
HETATM   15  C   UNK N   1      36.007  13.497  15.351  0.00  0.00     0.031 A 
HETATM   16  C   UNK N   1      35.714  12.697  16.457  0.00  0.00     0.005 A 
HETATM   17  C   UNK N   1      36.025  11.336  16.436  0.00  0.00     0.044 A 
HETATM   18  C   UNK N   1      36.635  10.773  15.312  0.00  0.00     0.140 A 
HETATM   19  C   UNK N   1      36.937  11.573  14.203  0.00  0.00     0.099 A 
HETATM   20  F   UNK N   1      36.927   9.449  15.302  0.00  0.00    -0.204 F 
HETATM   21 Cl   UNK N   1      37.698  10.848  12.790  0.00  0.00    -0.079 Cl
ENDBRANCH  10  14
ENDBRANCH   1   8
BRANCH   6  22
HETATM   22  O   UNK N   1      36.315  13.728   8.773  0.00  0.00    -0.357 OA
HETATM   23  H   UNK N   1      36.764  13.505   7.981  0.00  0.00     0.217 HD
ENDBRANCH   6  22
BRANCH   5  24
HETATM   24  S   UNK N   1      34.862  14.481   6.280  0.00  0.00     0.248 S 
HETATM   25  O   UNK N   1      35.590  13.130   6.397  0.00  0.00    -0.206 OA
HETATM   26  O   UNK N   1      36.198  15.163   5.943  0.00  0.00    -0.206 OA
BRANCH  24  27
HETATM   27  N   UNK N   1      34.491  14.742   4.560  0.00  0.00    -0.203 NA
HETATM   28  C   UNK N   1      33.049  14.671   4.347  0.00  0.00     0.127 C 
HETATM   29  C   UNK N   1      32.757  14.853   2.854  0.00  0.00     0.129 C 
HETATM   30  N   UNK N   1      33.395  13.781   2.086  0.00  0.00    -0.419 N 
HETATM   31  C   UNK N   1      34.838  13.831   2.307  0.00  0.00     0.129 C 
HETATM   32  H   UNK N   1      32.909  13.110   1.491  0.00  0.00     0.153 HD
HETATM   33  C   UNK N   1      35.131  13.666   3.793  0.00  0.00     0.127 C 
ENDBRANCH  24  27
ENDBRANCH   5  24
TORSDOF 5
ENDMDL
MODEL 7
REMARK VINA RESULT:      -7.4      2.457      3.102
REMARK  5 active torsions:
REMARK  status: ('A' for Active; 'I' for Inactive)
REMARK    1  A    between atoms: C_3  and  N_9 
REMARK       I    between atoms: N_9  and  C_10 
REMARK       I    between atoms: C_10  and  N_12 
REMARK    2  A    between atoms: N_12  and  C_13 
REMARK    3  A    between atoms: C_17  and  S_20 
REMARK    4  A    between atoms: C_18  and  O_19 
REMARK    5  A    between atoms: S_20  and  N_23 
ROOT
HETATM    1  C   UNK N   1      36.446  12.034  12.383  0.00  0.00     0.071 A 
HETATM    2  C   UNK N   1      37.541  11.443  11.739  0.00  0.00     0.034 A 
HETATM    3  C   UNK N   1      38.122  12.073  10.632  0.00  0.00     0.028 A 
HETATM    4  C   UNK N   1      37.627  13.301  10.167  0.00  0.00     0.059 A 
HETATM    5  C   UNK N   1      36.524  13.901  10.810  0.00  0.00     0.131 A 
HETATM    6  C   UNK N   1      35.944  13.247  11.918  0.00  0.00     0.117 A 
HETATM    7 Cl   UNK N   1      38.419  14.058   8.796  0.00  0.00    -0.083 Cl
ENDROOT
BRANCH   1   8
HETATM    8  N   UNK N   1      35.816  11.464  13.523  0.00  0.00    -0.306 N 
HETATM    9  C   UNK N   1      36.235  11.512  14.808  0.00  0.00     0.325 C 
HETATM   10  N   UNK N   1      35.443  10.941  15.753  0.00  0.00    -0.307 N 
HETATM   11  O   UNK N   1      37.251  12.118  15.113  0.00  0.00    -0.247 OA
HETATM   12  H   UNK N   1      34.633  10.485  15.428  0.00  0.00     0.170 HD
HETATM   13  H   UNK N   1      34.977  10.977  13.357  0.00  0.00     0.171 HD
BRANCH  10  14
HETATM   14  C   UNK N   1      35.656  10.929  17.159  0.00  0.00     0.061 A 
HETATM   15  C   UNK N   1      36.273   9.846  17.804  0.00  0.00     0.031 A 
HETATM   16  C   UNK N   1      36.479   9.869  19.184  0.00  0.00     0.005 A 
HETATM   17  C   UNK N   1      36.076  10.977  19.932  0.00  0.00     0.044 A 
HETATM   18  C   UNK N   1      35.462  12.063  19.302  0.00  0.00     0.140 A 
HETATM   19  C   UNK N   1      35.248  12.042  17.918  0.00  0.00     0.099 A 
HETATM   20  F   UNK N   1      35.081  13.136  20.038  0.00  0.00    -0.204 F 
HETATM   21 Cl   UNK N   1      34.481  13.421  17.137  0.00  0.00    -0.079 Cl
ENDBRANCH  10  14
ENDBRANCH   1   8
BRANCH   6  22
HETATM   22  O   UNK N   1      34.898  13.799  12.560  0.00  0.00    -0.357 OA
HETATM   23  H   UNK N   1      34.077  13.899  12.119  0.00  0.00     0.217 HD
ENDBRANCH   6  22
BRANCH   5  24
HETATM   24  S   UNK N   1      35.842  15.512  10.309  0.00  0.00     0.248 S 
HETATM   25  O   UNK N   1      35.122  16.226  11.468  0.00  0.00    -0.206 OA
HETATM   26  O   UNK N   1      34.571  14.692  10.035  0.00  0.00    -0.206 OA
BRANCH  24  27
HETATM   27  N   UNK N   1      35.412  16.361   8.807  0.00  0.00    -0.203 NA
HETATM   28  C   UNK N   1      34.321  17.298   9.060  0.00  0.00     0.127 C 
HETATM   29  C   UNK N   1      33.937  17.983   7.744  0.00  0.00     0.129 C 
HETATM   30  N   UNK N   1      33.478  16.984   6.776  0.00  0.00    -0.419 N 
HETATM   31  C   UNK N   1      34.556  16.030   6.530  0.00  0.00     0.129 C 
HETATM   32  H   UNK N   1      32.555  16.960   6.343  0.00  0.00     0.153 HD
HETATM   33  C   UNK N   1      34.950  15.358   7.838  0.00  0.00     0.127 C 
ENDBRANCH  24  27
ENDBRANCH   5  24
TORSDOF 5
ENDMDL
MODEL 8
REMARK VINA RESULT:      -7.4      2.851      3.492
REMARK  5 active torsions:
REMARK  status: ('A' for Active; 'I' for Inactive)
REMARK    1  A    between atoms: C_3  and  N_9 
REMARK       I    between atoms: N_9  and  C_10 
REMARK       I    between atoms: C_10  and  N_12 
REMARK    2  A    between atoms: N_12  and  C_13 
REMARK    3  A    between atoms: C_17  and  S_20 
REMARK    4  A    between atoms: C_18  and  O_19 
REMARK    5  A    between atoms: S_20  and  N_23 
ROOT
HETATM    1  C   UNK N   1      34.282  13.574   9.041  0.00  0.00     0.071 A 
HETATM    2  C   UNK N   1      35.280  13.381   8.075  0.00  0.00     0.034 A 
HETATM    3  C   UNK N   1      35.219  14.078   6.863  0.00  0.00     0.028 A 
HETATM    4  C   UNK N   1      34.175  14.980   6.607  0.00  0.00     0.059 A 
HETATM    5  C   UNK N   1      33.167  15.177   7.575  0.00  0.00     0.131 A 
HETATM    6  C   UNK N   1      33.239  14.459   8.787  0.00  0.00     0.117 A 
HETATM    7 Cl   UNK N   1      34.172  15.848   5.083  0.00  0.00    -0.083 Cl
ENDROOT
BRANCH   1   8
HETATM    8  N   UNK N   1      34.287  12.917  10.302  0.00  0.00    -0.306 N 
HETATM    9  C   UNK N   1      34.897  13.319  11.440  0.00  0.00     0.325 C 
HETATM   10  N   UNK N   1      34.723  12.561  12.554  0.00  0.00    -0.307 N 
HETATM   11  O   UNK N   1      35.516  14.373  11.481  0.00  0.00    -0.247 OA
HETATM   12  H   UNK N   1      34.198  11.735  12.442  0.00  0.00     0.170 HD
HETATM   13  H   UNK N   1      33.788  12.070  10.352  0.00  0.00     0.171 HD
BRANCH  10  14
HETATM   14  C   UNK N   1      35.215  12.827  13.860  0.00  0.00     0.061 A 
HETATM   15  C   UNK N   1      36.168  13.829  14.101  0.00  0.00     0.031 A 
HETATM   16  C   UNK N   1      36.624  14.075  15.397  0.00  0.00     0.005 A 
HETATM   17  C   UNK N   1      36.127  13.326  16.466  0.00  0.00     0.044 A 
HETATM   18  C   UNK N   1      35.177  12.327  16.240  0.00  0.00     0.140 A 
HETATM   19  C   UNK N   1      34.721  12.072  14.941  0.00  0.00     0.099 A 
HETATM   20  F   UNK N   1      34.697  11.611  17.287  0.00  0.00    -0.204 F 
HETATM   21 Cl   UNK N   1      33.518  10.815  14.673  0.00  0.00    -0.079 Cl
ENDBRANCH  10  14
ENDBRANCH   1   8
BRANCH   6  22
HETATM   22  O   UNK N   1      32.298  14.634   9.735  0.00  0.00    -0.357 OA
HETATM   23  H   UNK N   1      31.973  15.493   9.920  0.00  0.00     0.217 HD
ENDBRANCH   6  22
BRANCH   5  24
HETATM   24  S   UNK N   1      31.800  16.358   7.354  0.00  0.00     0.248 S 
HETATM   25  O   UNK N   1      32.150  17.473   6.351  0.00  0.00    -0.206 OA
HETATM   26  O   UNK N   1      32.527  17.137   8.462  0.00  0.00    -0.206 OA
BRANCH  24  27
HETATM   27  N   UNK N   1      30.323  16.853   8.212  0.00  0.00    -0.203 NA
HETATM   28  C   UNK N   1      29.258  17.124   7.252  0.00  0.00     0.127 C 
HETATM   29  C   UNK N   1      28.011  17.592   8.009  0.00  0.00     0.129 C 
HETATM   30  N   UNK N   1      28.305  18.827   8.739  0.00  0.00    -0.419 N 
HETATM   31  C   UNK N   1      29.384  18.573   9.691  0.00  0.00     0.129 C 
HETATM   32  H   UNK N   1      27.831  19.721   8.607  0.00  0.00     0.153 HD
HETATM   33  C   UNK N   1      30.620  18.092   8.942  0.00  0.00     0.127 C 
ENDBRANCH  24  27
ENDBRANCH   5  24
TORSDOF 5
ENDMDL
MODEL 9
REMARK VINA RESULT:      -7.4      7.885     11.579
REMARK  5 active torsions:
REMARK  status: ('A' for Active; 'I' for Inactive)
REMARK    1  A    between atoms: C_3  and  N_9 
REMARK       I    between atoms: N_9  and  C_10 
REMARK       I    between atoms: C_10  and  N_12 
REMARK    2  A    between atoms: N_12  and  C_13 
REMARK    3  A    between atoms: C_17  and  S_20 
REMARK    4  A    between atoms: C_18  and  O_19 
REMARK    5  A    between atoms: S_20  and  N_23 
ROOT
HETATM    1  C   UNK N   1      27.436  18.628   5.366  0.00  0.00     0.071 A 
HETATM    2  C   UNK N   1      27.816  19.718   4.571  0.00  0.00     0.034 A 
HETATM    3  C   UNK N   1      26.876  20.329   3.733  0.00  0.00     0.028 A 
HETATM    4  C   UNK N   1      25.551  19.869   3.688  0.00  0.00     0.059 A 
HETATM    5  C   UNK N   1      25.164  18.771   4.485  0.00  0.00     0.131 A 
HETATM    6  C   UNK N   1      26.126  18.161   5.317  0.00  0.00     0.117 A 
HETATM    7 Cl   UNK N   1      24.412  20.696   2.642  0.00  0.00    -0.083 Cl
ENDROOT
BRANCH   1   8
HETATM    8  N   UNK N   1      28.329  17.970   6.256  0.00  0.00    -0.306 N 
HETATM    9  C   UNK N   1      29.407  17.217   5.937  0.00  0.00     0.325 C 
HETATM   10  N   UNK N   1      30.159  16.725   6.956  0.00  0.00    -0.307 N 
HETATM   11  O   UNK N   1      29.735  17.055   4.771  0.00  0.00    -0.247 OA
HETATM   12  H   UNK N   1      29.836  16.912   7.868  0.00  0.00     0.170 HD
HETATM   13  H   UNK N   1      28.141  18.074   7.216  0.00  0.00     0.171 HD
BRANCH  10  14
HETATM   14  C   UNK N   1      31.358  15.969   6.851  0.00  0.00     0.061 A 
HETATM   15  C   UNK N   1      31.382  14.700   6.251  0.00  0.00     0.031 A 
HETATM   16  C   UNK N   1      32.578  13.987   6.152  0.00  0.00     0.005 A 
HETATM   17  C   UNK N   1      33.762  14.537   6.647  0.00  0.00     0.044 A 
HETATM   18  C   UNK N   1      33.752  15.800   7.245  0.00  0.00     0.140 A 
HETATM   19  C   UNK N   1      32.554  16.516   7.352  0.00  0.00     0.099 A 
HETATM   20  F   UNK N   1      34.910  16.326   7.716  0.00  0.00    -0.204 F 
HETATM   21 Cl   UNK N   1      32.559  18.110   8.101  0.00  0.00    -0.079 Cl
ENDBRANCH  10  14
ENDBRANCH   1   8
BRANCH   6  22
HETATM   22  O   UNK N   1      25.785  17.118   6.098  0.00  0.00    -0.357 OA
HETATM   23  H   UNK N   1      24.882  16.900   6.219  0.00  0.00     0.217 HD
ENDBRANCH   6  22
BRANCH   5  24
HETATM   24  S   UNK N   1      23.460  18.133   4.530  0.00  0.00     0.248 S 
HETATM   25  O   UNK N   1      23.244  17.128   5.675  0.00  0.00    -0.206 OA
HETATM   26  O   UNK N   1      24.045  17.007   3.662  0.00  0.00    -0.206 OA
BRANCH  24  27
HETATM   27  N   UNK N   1      22.059  18.012   3.440  0.00  0.00    -0.203 NA
HETATM   28  C   UNK N   1      21.087  19.050   3.763  0.00  0.00     0.127 C 
HETATM   29  C   UNK N   1      19.871  18.898   2.843  0.00  0.00     0.129 C 
HETATM   30  N   UNK N   1      19.244  17.591   3.056  0.00  0.00    -0.419 N 
HETATM   31  C   UNK N   1      20.216  16.543   2.754  0.00  0.00     0.129 C 
HETATM   32  H   UNK N   1      18.284  17.438   3.364  0.00  0.00     0.153 HD
HETATM   33  C   UNK N   1      21.432  16.701   3.656  0.00  0.00     0.127 C 
ENDBRANCH  24  27
ENDBRANCH   5  24
TORSDOF 5
ENDMDL
