REMARK  5 active torsions:
REMARK  status: ('A' for Active; 'I' for Inactive)
REMARK    1  A    between atoms: C_7  and  C_5 
REMARK    2  A    between atoms: C_5  and  O_14 
REMARK    3  A    between atoms: C_6  and  C_9 
REMARK    4  A    between atoms: C_12  and  C_8 
REMARK    5  A    between atoms: O_17  and  C_12 
ROOT
HETATM    1  C   UNK N   1      -1.312   2.420  -0.748  0.00  0.00     0.130 A 
HETATM    2  C   UNK N   1       1.408   0.613  -0.002  0.00  0.00     0.108 C 
HETATM    3  C   UNK N   1       2.354   1.427  -0.522  0.00  0.00     0.037 C 
HETATM    4  C   UNK N   1      -0.974   1.031  -0.305  0.00  0.00     0.214 A 
HETATM    5  C   UNK N   1       0.145   2.701  -0.081  0.00  0.00     0.153 A 
HETATM    6  N   UNK N   1       0.202   1.310   0.184  0.00  0.00    -0.197 NA
HETATM    7  O   UNK N   1      -1.303  -0.038  -0.802  0.00  0.00    -0.279 OA
HETATM    8  S   UNK N   1       1.640   3.012  -1.085  0.00  0.00    -0.108 SA
ENDROOT
BRANCH   3   9
HETATM    9  C   UNK N   1       3.845   1.209  -0.726  0.00  0.00     0.163 C 
HETATM   10  C   UNK N   1       4.566   2.387  -0.102  0.00  0.00     0.039 C 
HETATM   11  C   UNK N   1       5.908   1.836   0.256  0.00  0.00     0.029 C 
HETATM   12  C   UNK N   1       5.711   0.342   0.157  0.00  0.00     0.168 C 
HETATM   13  O   UNK N   1       4.354   0.072  -0.090  0.00  0.00    -0.381 OA
ENDBRANCH   3   9
BRANCH   2  14
HETATM   14  C   UNK N   1       1.510  -0.831   0.388  0.00  0.00     0.189 C 
HETATM   15  O   UNK N   1       0.556  -1.370   0.924  0.00  0.00    -0.645 OA
BRANCH  14  16
HETATM   16  O   UNK N   1       2.580  -1.583   0.080  0.00  0.00    -0.772 OA
HETATM   17  H   UNK N   1       2.499  -2.491  -0.135  0.00  0.00     0.167 HD
ENDBRANCH  14  16
ENDBRANCH   2  14
BRANCH   1  18
HETATM   18  C   UNK N   1      -2.472   3.071   0.043  0.00  0.00     0.129 C 
HETATM   19  C   UNK N   1      -3.744   2.246  -0.030  0.00  0.00     0.040 C 
BRANCH  18  20
HETATM   20  O   UNK N   1      -2.164   3.334   1.379  0.00  0.00    -0.395 OA
HETATM   21  H   UNK N   1      -1.898   3.240   2.307  0.00  0.00     0.210 HD
ENDBRANCH  18  20
ENDBRANCH   1  18
TORSDOF 5
