MODEL 1
REMARK VINA RESULT:      -5.7      0.000      0.000
REMARK  3 active torsions:
REMARK  status: ('A' for Active; 'I' for Inactive)
REMARK    1  A    between atoms: O_12  and  C_6 
REMARK    2  A    between atoms: N_10  and  C_7 
REMARK    3  A    between atoms: S_15  and  C_8 
ROOT
HETATM    1  C   UNK N   1      35.861  14.504   9.711  0.00  0.00     0.031 A 
HETATM    2  C   UNK N   1      35.292  16.612  10.747  0.00  0.00     0.031 A 
HETATM    3  C   UNK N   1      35.316  14.951   8.505  0.00  0.00     0.027 A 
HETATM    4  C   UNK N   1      34.748  17.060   9.542  0.00  0.00     0.027 A 
HETATM    5  C   UNK N   1      35.846  15.324  10.845  0.00  0.00     0.033 A 
HETATM    6  C   UNK N   1      34.747  16.229   8.413  0.00  0.00     0.074 A 
ENDROOT
BRANCH   5   7
HETATM    7  N   UNK N   1      36.399  14.820  12.061  0.00  0.00    -0.341 N 
HETATM    8  C   UNK N   1      35.792  14.087  12.936  0.00  0.00     0.111 C 
HETATM    9  C   UNK N   1      36.527  13.656  14.157  0.00  0.00     0.097 C 
ATOM     10  HN  UNK N   1      37.370  15.062  12.257  1.00  0.00     0.167 HD
BRANCH   8  11
HETATM   11  O   UNK N   1      34.511  13.698  12.773  0.00  0.00    -0.350 OA
HETATM   12  H   UNK N   1      33.934  14.193  12.226  0.00  0.00     0.219 HD
ENDBRANCH   8  11
ENDBRANCH   5   7
BRANCH   6  13
HETATM   13  S   UNK N   1      33.949  16.781   6.884  0.00  0.00     0.262 S 
HETATM   14 Cl   UNK N   1      33.047  17.433   5.100  0.00  0.00     0.024 Cl
HETATM   15  O   UNK N   1      34.603  18.165   7.007  0.00  0.00    -0.206 OA
HETATM   16  O   UNK N   1      35.119  16.242   6.050  0.00  0.00    -0.206 OA
ENDBRANCH   6  13
TORSDOF 3
ENDMDL
MODEL 2
REMARK VINA RESULT:      -5.1     13.887     14.202
REMARK  3 active torsions:
REMARK  status: ('A' for Active; 'I' for Inactive)
REMARK    1  A    between atoms: O_12  and  C_6 
REMARK    2  A    between atoms: N_10  and  C_7 
REMARK    3  A    between atoms: S_15  and  C_8 
ROOT
HETATM    1  C   UNK N   1      21.471  14.124   9.602  0.00  0.00     0.031 A 
HETATM    2  C   UNK N   1      22.485  12.200   8.549  0.00  0.00     0.031 A 
HETATM    3  C   UNK N   1      20.828  14.440   8.402  0.00  0.00     0.027 A 
HETATM    4  C   UNK N   1      21.843  12.514   7.350  0.00  0.00     0.027 A 
HETATM    5  C   UNK N   1      22.313  13.009   9.685  0.00  0.00     0.033 A 
HETATM    6  C   UNK N   1      21.016  13.643   7.264  0.00  0.00     0.074 A 
ENDROOT
BRANCH   5   7
HETATM    7  N   UNK N   1      22.962  12.735  10.926  0.00  0.00    -0.341 N 
HETATM    8  C   UNK N   1      22.450  12.118  11.941  0.00  0.00     0.111 C 
HETATM    9  C   UNK N   1      23.276  11.927  13.165  0.00  0.00     0.097 C 
ATOM     10  HN  UNK N   1      23.924  13.057  11.022  1.00  0.00     0.167 HD
BRANCH   8  11
HETATM   11  O   UNK N   1      21.189  11.639  11.922  0.00  0.00    -0.350 OA
HETATM   12  H   UNK N   1      20.466  12.210  12.087  0.00  0.00     0.219 HD
ENDBRANCH   8  11
ENDBRANCH   5   7
BRANCH   6  13
HETATM   13  S   UNK N   1      20.269  14.097   5.679  0.00  0.00     0.262 S 
HETATM   14 Cl   UNK N   1      19.375  14.621   3.850  0.00  0.00     0.024 Cl
HETATM   15  O   UNK N   1      19.332  12.882   5.737  0.00  0.00    -0.206 OA
HETATM   16  O   UNK N   1      19.243  14.990   6.391  0.00  0.00    -0.206 OA
ENDBRANCH   6  13
TORSDOF 3
ENDMDL
MODEL 3
REMARK VINA RESULT:      -5.1     16.230     18.300
REMARK  3 active torsions:
REMARK  status: ('A' for Active; 'I' for Inactive)
REMARK    1  A    between atoms: O_12  and  C_6 
REMARK    2  A    between atoms: N_10  and  C_7 
REMARK    3  A    between atoms: S_15  and  C_8 
ROOT
HETATM    1  C   UNK N   1      28.110  24.023  -5.537  0.00  0.00     0.031 A 
HETATM    2  C   UNK N   1      27.388  24.197  -3.237  0.00  0.00     0.031 A 
HETATM    3  C   UNK N   1      29.244  23.317  -5.127  0.00  0.00     0.027 A 
HETATM    4  C   UNK N   1      28.520  23.491  -2.826  0.00  0.00     0.027 A 
HETATM    5  C   UNK N   1      27.177  24.478  -4.598  0.00  0.00     0.033 A 
HETATM    6  C   UNK N   1      29.463  23.054  -3.767  0.00  0.00     0.074 A 
ENDROOT
BRANCH   5   7
HETATM    7  N   UNK N   1      26.042  25.209  -5.061  0.00  0.00    -0.341 N 
HETATM    8  C   UNK N   1      25.948  26.493  -5.173  0.00  0.00     0.111 C 
HETATM    9  C   UNK N   1      24.677  27.087  -5.670  0.00  0.00     0.097 C 
ATOM     10  HN  UNK N   1      25.224  24.663  -5.331  1.00  0.00     0.167 HD
BRANCH   8  11
HETATM   11  O   UNK N   1      26.972  27.312  -4.855  0.00  0.00    -0.350 OA
HETATM   12  H   UNK N   1      26.814  28.097  -4.368  0.00  0.00     0.219 HD
ENDBRANCH   8  11
ENDBRANCH   5   7
BRANCH   6  13
HETATM   13  S   UNK N   1      30.977  22.229  -3.214  0.00  0.00     0.262 S 
HETATM   14 Cl   UNK N   1      32.744  21.295  -2.561  0.00  0.00     0.024 Cl
HETATM   15  O   UNK N   1      31.840  23.367  -3.777  0.00  0.00    -0.206 OA
HETATM   16  O   UNK N   1      30.877  22.910  -1.842  0.00  0.00    -0.206 OA
ENDBRANCH   6  13
TORSDOF 3
ENDMDL
MODEL 4
REMARK VINA RESULT:      -5.0     11.199     12.423
REMARK  3 active torsions:
REMARK  status: ('A' for Active; 'I' for Inactive)
REMARK    1  A    between atoms: O_12  and  C_6 
REMARK    2  A    between atoms: N_10  and  C_7 
REMARK    3  A    between atoms: S_15  and  C_8 
ROOT
HETATM    1  C   UNK N   1      26.200  19.768   3.731  0.00  0.00     0.031 A 
HETATM    2  C   UNK N   1      24.859  18.152   4.926  0.00  0.00     0.031 A 
HETATM    3  C   UNK N   1      25.050  20.265   3.113  0.00  0.00     0.027 A 
HETATM    4  C   UNK N   1      23.709  18.647   4.310  0.00  0.00     0.027 A 
HETATM    5  C   UNK N   1      26.119  18.702   4.634  0.00  0.00     0.033 A 
HETATM    6  C   UNK N   1      23.796  19.701   3.390  0.00  0.00     0.074 A 
ENDROOT
BRANCH   5   7
HETATM    7  N   UNK N   1      27.322  18.217   5.229  0.00  0.00    -0.341 N 
HETATM    8  C   UNK N   1      27.794  18.546   6.388  0.00  0.00     0.111 C 
HETATM    9  C   UNK N   1      29.075  17.943   6.846  0.00  0.00     0.097 C 
ATOM     10  HN  UNK N   1      27.864  17.546   4.686  1.00  0.00     0.167 HD
BRANCH   8  11
HETATM   11  O   UNK N   1      27.154  19.416   7.196  0.00  0.00    -0.350 OA
HETATM   12  H   UNK N   1      26.219  19.466   7.189  0.00  0.00     0.219 HD
ENDBRANCH   8  11
ENDBRANCH   5   7
BRANCH   6  13
HETATM   13  S   UNK N   1      22.311  20.269   2.522  0.00  0.00     0.262 S 
HETATM   14 Cl   UNK N   1      20.583  20.945   1.535  0.00  0.00     0.024 Cl
HETATM   15  O   UNK N   1      21.466  20.100   3.792  0.00  0.00    -0.206 OA
HETATM   16  O   UNK N   1      22.638  21.728   2.867  0.00  0.00    -0.206 OA
ENDBRANCH   6  13
TORSDOF 3
ENDMDL
MODEL 5
REMARK VINA RESULT:      -5.0     16.342     18.232
REMARK  3 active torsions:
REMARK  status: ('A' for Active; 'I' for Inactive)
REMARK    1  A    between atoms: O_12  and  C_6 
REMARK    2  A    between atoms: N_10  and  C_7 
REMARK    3  A    between atoms: S_15  and  C_8 
ROOT
HETATM    1  C   UNK N   1      29.502  25.635  -4.045  0.00  0.00     0.031 A 
HETATM    2  C   UNK N   1      27.329  24.717  -3.519  0.00  0.00     0.031 A 
HETATM    3  C   UNK N   1      28.975  26.926  -3.968  0.00  0.00     0.027 A 
HETATM    4  C   UNK N   1      26.801  26.007  -3.441  0.00  0.00     0.027 A 
HETATM    5  C   UNK N   1      28.684  24.519  -3.832  0.00  0.00     0.033 A 
HETATM    6  C   UNK N   1      27.617  27.122  -3.675  0.00  0.00     0.074 A 
ENDROOT
BRANCH   5   7
HETATM    7  N   UNK N   1      29.263  23.218  -3.936  0.00  0.00    -0.341 N 
HETATM    8  C   UNK N   1      30.015  22.638  -3.059  0.00  0.00     0.111 C 
HETATM    9  C   UNK N   1      30.540  21.274  -3.341  0.00  0.00     0.097 C 
ATOM     10  HN  UNK N   1      29.064  22.695  -4.788  1.00  0.00     0.167 HD
BRANCH   8  11
HETATM   11  O   UNK N   1      30.334  23.233  -1.891  0.00  0.00    -0.350 OA
HETATM   12  H   UNK N   1      30.602  24.130  -1.877  0.00  0.00     0.219 HD
ENDBRANCH   8  11
ENDBRANCH   5   7
BRANCH   6  13
HETATM   13  S   UNK N   1      26.900  28.785  -3.671  0.00  0.00     0.262 S 
HETATM   14 Cl   UNK N   1      26.056  30.710  -3.641  0.00  0.00     0.024 Cl
HETATM   15  O   UNK N   1      25.539  28.231  -3.226  0.00  0.00    -0.206 OA
HETATM   16  O   UNK N   1      27.348  29.002  -2.219  0.00  0.00    -0.206 OA
ENDBRANCH   6  13
TORSDOF 3
ENDMDL
MODEL 6
REMARK VINA RESULT:      -4.9      3.999      6.237
REMARK  3 active torsions:
REMARK  status: ('A' for Active; 'I' for Inactive)
REMARK    1  A    between atoms: O_12  and  C_6 
REMARK    2  A    between atoms: N_10  and  C_7 
REMARK    3  A    between atoms: S_15  and  C_8 
ROOT
HETATM    1  C   UNK N   1      34.980  16.964   9.830  0.00  0.00     0.031 A 
HETATM    2  C   UNK N   1      33.890  14.847   9.419  0.00  0.00     0.031 A 
HETATM    3  C   UNK N   1      35.556  16.442  10.990  0.00  0.00     0.027 A 
HETATM    4  C   UNK N   1      34.466  14.323  10.578  0.00  0.00     0.027 A 
HETATM    5  C   UNK N   1      34.134  16.177   9.039  0.00  0.00     0.033 A 
HETATM    6  C   UNK N   1      35.296  15.120  11.379  0.00  0.00     0.074 A 
ENDROOT
BRANCH   5   7
HETATM    7  N   UNK N   1      33.555  16.758   7.871  0.00  0.00    -0.341 N 
HETATM    8  C   UNK N   1      34.040  16.721   6.673  0.00  0.00     0.111 C 
HETATM    9  C   UNK N   1      33.299  17.393   5.570  0.00  0.00     0.097 C 
ATOM     10  HN  UNK N   1      32.671  17.251   7.994  1.00  0.00     0.167 HD
BRANCH   8  11
HETATM   11  O   UNK N   1      35.196  16.087   6.392  0.00  0.00    -0.350 OA
HETATM   12  H   UNK N   1      35.292  15.616   5.588  0.00  0.00     0.219 HD
ENDBRANCH   8  11
ENDBRANCH   5   7
BRANCH   6  13
HETATM   13  S   UNK N   1      35.956  14.463  12.932  0.00  0.00     0.262 S 
HETATM   14 Cl   UNK N   1      36.717  13.673  14.726  0.00  0.00     0.024 Cl
HETATM   15  O   UNK N   1      34.731  13.554  13.104  0.00  0.00    -0.206 OA
HETATM   16  O   UNK N   1      36.726  13.373  12.172  0.00  0.00    -0.206 OA
ENDBRANCH   6  13
TORSDOF 3
ENDMDL
MODEL 7
REMARK VINA RESULT:      -4.9      8.136     10.781
REMARK  3 active torsions:
REMARK  status: ('A' for Active; 'I' for Inactive)
REMARK    1  A    between atoms: O_12  and  C_6 
REMARK    2  A    between atoms: N_10  and  C_7 
REMARK    3  A    between atoms: S_15  and  C_8 
ROOT
HETATM    1  C   UNK N   1      35.450  11.268  16.523  0.00  0.00     0.031 A 
HETATM    2  C   UNK N   1      35.174  13.369  17.685  0.00  0.00     0.031 A 
HETATM    3  C   UNK N   1      35.449  10.592  17.746  0.00  0.00     0.027 A 
HETATM    4  C   UNK N   1      35.172  12.695  18.908  0.00  0.00     0.027 A 
HETATM    5  C   UNK N   1      35.323  12.662  16.480  0.00  0.00     0.033 A 
HETATM    6  C   UNK N   1      35.320  11.301  18.949  0.00  0.00     0.074 A 
ENDROOT
BRANCH   5   7
HETATM    7  N   UNK N   1      35.346  13.311  15.210  0.00  0.00    -0.341 N 
HETATM    8  C   UNK N   1      36.360  13.898  14.664  0.00  0.00     0.111 C 
HETATM    9  C   UNK N   1      36.198  14.534  13.328  0.00  0.00     0.097 C 
ATOM     10  HN  UNK N   1      34.475  13.311  14.680  1.00  0.00     0.167 HD
BRANCH   8  11
HETATM   11  O   UNK N   1      37.564  13.949  15.271  0.00  0.00    -0.350 OA
HETATM   12  H   UNK N   1      38.283  14.384  14.856  0.00  0.00     0.219 HD
ENDBRANCH   8  11
ENDBRANCH   5   7
BRANCH   6  13
HETATM   13  S   UNK N   1      35.418  10.449  20.543  0.00  0.00     0.262 S 
HETATM   14 Cl   UNK N   1      35.554   9.445  22.385  0.00  0.00     0.024 Cl
HETATM   15  O   UNK N   1      35.589   9.093  19.843  0.00  0.00    -0.206 OA
HETATM   16  O   UNK N   1      36.935  10.673  20.598  0.00  0.00    -0.206 OA
ENDBRANCH   6  13
TORSDOF 3
ENDMDL
MODEL 8
REMARK VINA RESULT:      -4.9      4.546      5.945
REMARK  3 active torsions:
REMARK  status: ('A' for Active; 'I' for Inactive)
REMARK    1  A    between atoms: O_12  and  C_6 
REMARK    2  A    between atoms: N_10  and  C_7 
REMARK    3  A    between atoms: S_15  and  C_8 
ROOT
HETATM    1  C   UNK N   1      31.695  15.859   9.023  0.00  0.00     0.031 A 
HETATM    2  C   UNK N   1      32.839  17.868   8.323  0.00  0.00     0.031 A 
HETATM    3  C   UNK N   1      32.917  15.292   9.392  0.00  0.00     0.027 A 
HETATM    4  C   UNK N   1      34.062  17.304   8.692  0.00  0.00     0.027 A 
HETATM    5  C   UNK N   1      31.644  17.146   8.476  0.00  0.00     0.033 A 
HETATM    6  C   UNK N   1      34.112  16.006   9.220  0.00  0.00     0.074 A 
ENDROOT
BRANCH   5   7
HETATM    7  N   UNK N   1      30.374  17.678   8.099  0.00  0.00    -0.341 N 
HETATM    8  C   UNK N   1      29.563  18.343   8.855  0.00  0.00     0.111 C 
HETATM    9  C   UNK N   1      28.270  18.817   8.292  0.00  0.00     0.097 C 
ATOM     10  HN  UNK N   1      30.078  17.518   7.136  1.00  0.00     0.167 HD
BRANCH   8  11
HETATM   11  O   UNK N   1      29.858  18.622  10.142  0.00  0.00    -0.350 OA
HETATM   12  H   UNK N   1      30.751  18.687  10.417  0.00  0.00     0.219 HD
ENDBRANCH   8  11
ENDBRANCH   5   7
BRANCH   6  13
HETATM   13  S   UNK N   1      35.710  15.246   9.601  0.00  0.00     0.262 S 
HETATM   14 Cl   UNK N   1      37.562  14.368  10.071  0.00  0.00     0.024 Cl
HETATM   15  O   UNK N   1      36.092  16.427  10.504  0.00  0.00    -0.206 OA
HETATM   16  O   UNK N   1      35.092  14.477  10.777  0.00  0.00    -0.206 OA
ENDBRANCH   6  13
TORSDOF 3
ENDMDL
MODEL 9
REMARK VINA RESULT:      -4.8      4.294      6.151
REMARK  3 active torsions:
REMARK  status: ('A' for Active; 'I' for Inactive)
REMARK    1  A    between atoms: O_12  and  C_6 
REMARK    2  A    between atoms: N_10  and  C_7 
REMARK    3  A    between atoms: S_15  and  C_8 
ROOT
HETATM    1  C   UNK N   1      34.276  14.578   9.797  0.00  0.00     0.031 A 
HETATM    2  C   UNK N   1      35.243  16.746  10.250  0.00  0.00     0.031 A 
HETATM    3  C   UNK N   1      34.758  14.108  11.021  0.00  0.00     0.027 A 
HETATM    4  C   UNK N   1      35.724  16.279  11.474  0.00  0.00     0.027 A 
HETATM    5  C   UNK N   1      34.522  15.896   9.394  0.00  0.00     0.033 A 
HETATM    6  C   UNK N   1      35.494  14.952  11.865  0.00  0.00     0.074 A 
ENDROOT
BRANCH   5   7
HETATM    7  N   UNK N   1      34.024  16.327   8.128  0.00  0.00    -0.341 N 
HETATM    8  C   UNK N   1      32.929  16.980   7.914  0.00  0.00     0.111 C 
HETATM    9  C   UNK N   1      32.561  17.343   6.518  0.00  0.00     0.097 C 
ATOM     10  HN  UNK N   1      34.589  16.097   7.311  1.00  0.00     0.167 HD
BRANCH   8  11
HETATM   11  O   UNK N   1      32.111  17.347   8.922  0.00  0.00    -0.350 OA
HETATM   12  H   UNK N   1      31.191  17.445   8.771  0.00  0.00     0.219 HD
ENDBRANCH   8  11
ENDBRANCH   5   7
BRANCH   6  13
HETATM   13  S   UNK N   1      36.209  14.328  13.408  0.00  0.00     0.262 S 
HETATM   14 Cl   UNK N   1      37.030  13.576  15.191  0.00  0.00     0.024 Cl
HETATM   15  O   UNK N   1      34.927  13.542  13.719  0.00  0.00    -0.206 OA
HETATM   16  O   UNK N   1      36.826  13.134  12.667  0.00  0.00    -0.206 OA
ENDBRANCH   6  13
TORSDOF 3
ENDMDL
