MODEL 1
REMARK VINA RESULT:      -6.9      0.000      0.000
REMARK  10 active torsions:
REMARK  status: ('A' for Active; 'I' for Inactive)
REMARK    1  A    between atoms: C_3  and  S_33 
REMARK    2  A    between atoms: C_7  and  C_6 
REMARK    3  A    between atoms: C_7  and  C_16 
REMARK    4  A    between atoms: C_9  and  C_10 
REMARK       I    between atoms: C_16  and  N_18 
REMARK    5  A    between atoms: N_18  and  C_19 
REMARK    6  A    between atoms: C_23  and  S_25 
REMARK    7  A    between atoms: S_25  and  C_26 
REMARK    8  A    between atoms: C_26  and  C_27 
REMARK    9  A    between atoms: C_27  and  N_28 
REMARK   10  A    between atoms: S_33  and  C_36 
ROOT
HETATM    1  C   UNK N   1      26.164  15.909   4.717  0.00  0.00     0.073 A 
HETATM    2  C   UNK N   1      27.430  15.218   4.179  0.00  0.00     0.031 A 
HETATM    3  C   UNK N   1      26.382  15.689   3.212  0.00  0.00     0.013 A 
ENDROOT
BRANCH   1   4
HETATM    4  C   UNK N   1      25.306  14.907   5.486  0.00  0.00    -0.040 A 
HETATM    5  C   UNK N   1      23.926  14.853   5.241  0.00  0.00     0.010 A 
HETATM    6  C   UNK N   1      23.122  13.937   5.928  0.00  0.00     0.024 A 
HETATM    7  C   UNK N   1      23.692  13.066   6.862  0.00  0.00     0.059 A 
HETATM    8  C   UNK N   1      25.064  13.112   7.110  0.00  0.00     0.024 A 
HETATM    9  C   UNK N   1      25.866  14.024   6.429  0.00  0.00     0.010 A 
BRANCH   7  10
HETATM   10  S   UNK N   1      22.669  11.899   7.746  0.00  0.00     0.179 S 
HETATM   11  O   UNK N   1      23.354  10.532   7.594  0.00  0.00    -0.222 OA
HETATM   12  O   UNK N   1      21.425  11.622   6.886  0.00  0.00    -0.222 OA
BRANCH  10  13
HETATM   13  C   UNK N   1      22.179  12.023   9.498  0.00  0.00     0.113 A 
HETATM   14  C   UNK N   1      21.242  13.195   9.712  0.00  0.00     0.022 A 
HETATM   15  C   UNK N   1      22.705  13.327  10.065  0.00  0.00     0.022 A 
ENDBRANCH  10  13
ENDBRANCH   7  10
ENDBRANCH   1   4
BRANCH   1  16
HETATM   16  C   UNK N   1      26.625  17.149   5.501  0.00  0.00     0.237 C 
HETATM   17  O   UNK N   1      27.665  17.061   6.133  0.00  0.00    -0.272 OA
HETATM   18  N   UNK N   1      25.997  18.362   5.486  0.00  0.00    -0.306 N 
HETATM   19  H   UNK N   1      26.478  19.102   5.923  0.00  0.00     0.171 HD
BRANCH  18  20
HETATM   20  C   UNK N   1      24.742  18.686   4.919  0.00  0.00     0.152 A 
HETATM   21  N   UNK N   1      23.564  18.253   5.437  0.00  0.00    -0.345 N 
HETATM   22  C   UNK N   1      22.479  18.701   4.715  0.00  0.00     0.116 A 
ATOM     23  HN  UNK N   1      23.491  17.665   6.267  1.00  0.00     0.167 HD
HETATM   24  C   UNK N   1      22.815  19.459   3.585  0.00  0.00     0.060 A 
HETATM   25  S   UNK N   1      24.462  19.541   3.531  0.00  0.00    -0.046 SA
BRANCH  24  26
HETATM   26  S   UNK N   1      21.670  20.338   2.532  0.00  0.00    -0.119 SA
BRANCH  26  27
HETATM   27  C   UNK N   1      20.192  19.556   3.283  0.00  0.00     0.110 C 
BRANCH  27  28
HETATM   28  C   UNK N   1      19.550  18.451   2.422  0.00  0.00     0.283 C 
BRANCH  28  29
HETATM   29  N   UNK N   1      20.473  17.446   1.887  0.00  0.00     0.089 N 
HETATM   30  C   UNK N   1      20.009  16.959   0.592  0.00  0.00     0.272 C 
HETATM   31  C   UNK N   1      19.871  15.454   0.682  0.00  0.00     0.032 C 
HETATM   32  C   UNK N   1      20.645  15.067   1.913  0.00  0.00     0.032 C 
HETATM   33  C   UNK N   1      20.603  16.301   2.780  0.00  0.00     0.272 C 
ENDBRANCH  28  29
ENDBRANCH  27  28
ENDBRANCH  26  27
ENDBRANCH  24  26
ENDBRANCH  18  20
ENDBRANCH   1  16
BRANCH   3  34
HETATM   34  C   UNK N   1      25.564  14.531   2.648  0.00  0.00    -0.009 C 
HETATM   35  C   UNK N   1      26.433  13.286   2.454  0.00  0.00     0.005 C 
HETATM   36  C   UNK N   1      25.766  12.206   1.587  0.00  0.00     0.000 C 
HETATM   37  C   UNK N   1      24.271  12.453   1.389  0.00  0.00     0.000 C 
HETATM   38  C   UNK N   1      24.018  13.829   0.761  0.00  0.00     0.000 C 
HETATM   39  C   UNK N   1      24.923  14.936   1.321  0.00  0.00     0.005 C 
ENDBRANCH   3  34
TORSDOF 10
ENDMDL
MODEL 2
REMARK VINA RESULT:      -6.7     11.539     13.726
REMARK  10 active torsions:
REMARK  status: ('A' for Active; 'I' for Inactive)
REMARK    1  A    between atoms: C_3  and  S_33 
REMARK    2  A    between atoms: C_7  and  C_6 
REMARK    3  A    between atoms: C_7  and  C_16 
REMARK    4  A    between atoms: C_9  and  C_10 
REMARK       I    between atoms: C_16  and  N_18 
REMARK    5  A    between atoms: N_18  and  C_19 
REMARK    6  A    between atoms: C_23  and  S_25 
REMARK    7  A    between atoms: S_25  and  C_26 
REMARK    8  A    between atoms: C_26  and  C_27 
REMARK    9  A    between atoms: C_27  and  N_28 
REMARK   10  A    between atoms: S_33  and  C_36 
ROOT
HETATM    1  C   UNK N   1      35.913  13.255  12.468  0.00  0.00     0.073 A 
HETATM    2  C   UNK N   1      37.171  12.886  11.662  0.00  0.00     0.031 A 
HETATM    3  C   UNK N   1      35.818  12.535  11.114  0.00  0.00     0.013 A 
ENDROOT
BRANCH   1   4
HETATM    4  C   UNK N   1      35.846  12.422  13.746  0.00  0.00    -0.040 A 
HETATM    5  C   UNK N   1      34.596  12.122  14.305  0.00  0.00     0.010 A 
HETATM    6  C   UNK N   1      34.509  11.352  15.471  0.00  0.00     0.024 A 
HETATM    7  C   UNK N   1      35.672  10.877  16.084  0.00  0.00     0.059 A 
HETATM    8  C   UNK N   1      36.921  11.169  15.533  0.00  0.00     0.024 A 
HETATM    9  C   UNK N   1      37.009  11.936  14.374  0.00  0.00     0.010 A 
BRANCH   7  10
HETATM   10  S   UNK N   1      35.569   9.899  17.576  0.00  0.00     0.179 S 
HETATM   11  O   UNK N   1      36.971   9.312  17.798  0.00  0.00    -0.222 OA
HETATM   12  O   UNK N   1      34.833   8.595  17.230  0.00  0.00    -0.222 OA
BRANCH  10  13
HETATM   13  C   UNK N   1      35.011  10.497  19.205  0.00  0.00     0.113 A 
HETATM   14  C   UNK N   1      35.386  11.953  19.401  0.00  0.00     0.022 A 
HETATM   15  C   UNK N   1      36.223  10.868  20.036  0.00  0.00     0.022 A 
ENDBRANCH  10  13
ENDBRANCH   7  10
ENDBRANCH   1   4
BRANCH   1  16
HETATM   16  C   UNK N   1      35.929  14.782  12.654  0.00  0.00     0.237 C 
HETATM   17  O   UNK N   1      36.509  15.225  13.631  0.00  0.00    -0.272 OA
HETATM   18  N   UNK N   1      35.404  15.683  11.770  0.00  0.00    -0.306 N 
HETATM   19  H   UNK N   1      35.607  16.629  11.949  0.00  0.00     0.171 HD
BRANCH  18  20
HETATM   20  C   UNK N   1      34.607  15.422  10.631  0.00  0.00     0.152 A 
HETATM   21  N   UNK N   1      33.333  14.961  10.712  0.00  0.00    -0.345 N 
HETATM   22  C   UNK N   1      32.759  14.787   9.471  0.00  0.00     0.116 A 
ATOM     23  HN  UNK N   1      32.854  14.766  11.591  1.00  0.00     0.167 HD
HETATM   24  C   UNK N   1      33.615  15.073   8.399  0.00  0.00     0.060 A 
HETATM   25  S   UNK N   1      35.062  15.533   9.045  0.00  0.00    -0.046 SA
BRANCH  24  26
HETATM   26  S   UNK N   1      33.154  15.127   6.673  0.00  0.00    -0.119 SA
BRANCH  26  27
HETATM   27  C   UNK N   1      32.396  16.791   6.805  0.00  0.00     0.110 C 
BRANCH  27  28
HETATM   28  C   UNK N   1      30.860  16.802   6.685  0.00  0.00     0.283 C 
BRANCH  28  29
HETATM   29  N   UNK N   1      30.125  16.914   7.949  0.00  0.00     0.089 N 
HETATM   30  C   UNK N   1      28.774  17.410   7.715  0.00  0.00     0.272 C 
HETATM   31  C   UNK N   1      28.583  18.657   8.553  0.00  0.00     0.032 C 
HETATM   32  C   UNK N   1      29.702  18.622   9.559  0.00  0.00     0.032 C 
HETATM   33  C   UNK N   1      30.785  17.821   8.880  0.00  0.00     0.272 C 
ENDBRANCH  28  29
ENDBRANCH  27  28
ENDBRANCH  26  27
ENDBRANCH  24  26
ENDBRANCH  18  20
ENDBRANCH   1  16
BRANCH   3  34
HETATM   34  C   UNK N   1      35.517  11.045  11.244  0.00  0.00    -0.009 C 
HETATM   35  C   UNK N   1      36.464  10.214  10.374  0.00  0.00     0.005 C 
HETATM   36  C   UNK N   1      36.006   8.758  10.195  0.00  0.00     0.000 C 
HETATM   37  C   UNK N   1      34.910   8.361  11.184  0.00  0.00     0.000 C 
HETATM   38  C   UNK N   1      33.695   9.288  11.059  0.00  0.00     0.000 C 
HETATM   39  C   UNK N   1      34.066  10.765  10.858  0.00  0.00     0.005 C 
ENDBRANCH   3  34
TORSDOF 10
ENDMDL
MODEL 3
REMARK VINA RESULT:      -6.7      9.654     12.137
REMARK  10 active torsions:
REMARK  status: ('A' for Active; 'I' for Inactive)
REMARK    1  A    between atoms: C_3  and  S_33 
REMARK    2  A    between atoms: C_7  and  C_6 
REMARK    3  A    between atoms: C_7  and  C_16 
REMARK    4  A    between atoms: C_9  and  C_10 
REMARK       I    between atoms: C_16  and  N_18 
REMARK    5  A    between atoms: N_18  and  C_19 
REMARK    6  A    between atoms: C_23  and  S_25 
REMARK    7  A    between atoms: S_25  and  C_26 
REMARK    8  A    between atoms: C_26  and  C_27 
REMARK    9  A    between atoms: C_27  and  N_28 
REMARK   10  A    between atoms: S_33  and  C_36 
ROOT
HETATM    1  C   UNK N   1      35.244  15.136   9.640  0.00  0.00     0.073 A 
HETATM    2  C   UNK N   1      36.234  14.939   8.477  0.00  0.00     0.031 A 
HETATM    3  C   UNK N   1      34.817  14.466   8.324  0.00  0.00     0.013 A 
ENDROOT
BRANCH   1   4
HETATM    4  C   UNK N   1      35.637  14.248  10.818  0.00  0.00    -0.040 A 
HETATM    5  C   UNK N   1      34.727  14.057  11.868  0.00  0.00     0.010 A 
HETATM    6  C   UNK N   1      35.062  13.241  12.954  0.00  0.00     0.024 A 
HETATM    7  C   UNK N   1      36.309  12.609  12.998  0.00  0.00     0.059 A 
HETATM    8  C   UNK N   1      37.220  12.792  11.957  0.00  0.00     0.024 A 
HETATM    9  C   UNK N   1      36.889  13.605  10.875  0.00  0.00     0.010 A 
BRANCH   7  10
HETATM   10  S   UNK N   1      36.745  11.572  14.385  0.00  0.00     0.179 S 
HETATM   11  O   UNK N   1      36.672  12.471  15.629  0.00  0.00    -0.222 OA
HETATM   12  O   UNK N   1      38.268  11.362  14.351  0.00  0.00    -0.222 OA
BRANCH  10  13
HETATM   13  C   UNK N   1      35.928  10.009  14.846  0.00  0.00     0.113 A 
HETATM   14  C   UNK N   1      34.999   9.542  13.742  0.00  0.00     0.022 A 
HETATM   15  C   UNK N   1      34.435  10.246  14.955  0.00  0.00     0.022 A 
ENDBRANCH  10  13
ENDBRANCH   7  10
ENDBRANCH   1   4
BRANCH   1  16
HETATM   16  C   UNK N   1      35.173  16.645   9.921  0.00  0.00     0.237 C 
HETATM   17  O   UNK N   1      36.053  17.132  10.612  0.00  0.00    -0.272 OA
HETATM   18  N   UNK N   1      34.239  17.496   9.399  0.00  0.00    -0.306 N 
HETATM   19  H   UNK N   1      34.395  18.455   9.554  0.00  0.00     0.171 HD
BRANCH  18  20
HETATM   20  C   UNK N   1      33.076  17.166   8.663  0.00  0.00     0.152 A 
HETATM   21  N   UNK N   1      32.056  16.435   9.182  0.00  0.00    -0.345 N 
HETATM   22  C   UNK N   1      31.034  16.247   8.278  0.00  0.00     0.116 A 
ATOM     23  HN  UNK N   1      32.048  16.067  10.134  1.00  0.00     0.167 HD
HETATM   24  C   UNK N   1      31.277  16.801   7.014  0.00  0.00     0.060 A 
HETATM   25  S   UNK N   1      32.767  17.506   7.074  0.00  0.00    -0.046 SA
BRANCH  24  26
HETATM   26  S   UNK N   1      30.106  16.900   5.668  0.00  0.00    -0.119 SA
BRANCH  26  27
HETATM   27  C   UNK N   1      31.388  17.313   4.425  0.00  0.00     0.110 C 
BRANCH  27  28
HETATM   28  C   UNK N   1      31.382  16.407   3.178  0.00  0.00     0.283 C 
BRANCH  28  29
HETATM   29  N   UNK N   1      32.377  15.330   3.172  0.00  0.00     0.089 N 
HETATM   30  C   UNK N   1      31.856  14.146   3.846  0.00  0.00     0.272 C 
HETATM   31  C   UNK N   1      32.816  13.782   4.959  0.00  0.00     0.032 C 
HETATM   32  C   UNK N   1      34.079  14.538   4.643  0.00  0.00     0.032 C 
HETATM   33  C   UNK N   1      33.608  15.727   3.843  0.00  0.00     0.272 C 
ENDBRANCH  28  29
ENDBRANCH  27  28
ENDBRANCH  26  27
ENDBRANCH  24  26
ENDBRANCH  18  20
ENDBRANCH   1  16
BRANCH   3  34
HETATM   34  C   UNK N   1      34.709  12.947   8.429  0.00  0.00    -0.009 C 
HETATM   35  C   UNK N   1      35.307  12.266   7.196  0.00  0.00     0.005 C 
HETATM   36  C   UNK N   1      34.933  10.779   7.079  0.00  0.00     0.000 C 
HETATM   37  C   UNK N   1      34.338  10.220   8.372  0.00  0.00     0.000 C 
HETATM   38  C   UNK N   1      33.101  11.018   8.799  0.00  0.00     0.000 C 
HETATM   39  C   UNK N   1      33.248  12.534   8.601  0.00  0.00     0.005 C 
ENDBRANCH   3  34
TORSDOF 10
ENDMDL
MODEL 4
REMARK VINA RESULT:      -6.6      9.745     11.740
REMARK  10 active torsions:
REMARK  status: ('A' for Active; 'I' for Inactive)
REMARK    1  A    between atoms: C_3  and  S_33 
REMARK    2  A    between atoms: C_7  and  C_6 
REMARK    3  A    between atoms: C_7  and  C_16 
REMARK    4  A    between atoms: C_9  and  C_10 
REMARK       I    between atoms: C_16  and  N_18 
REMARK    5  A    between atoms: N_18  and  C_19 
REMARK    6  A    between atoms: C_23  and  S_25 
REMARK    7  A    between atoms: S_25  and  C_26 
REMARK    8  A    between atoms: C_26  and  C_27 
REMARK    9  A    between atoms: C_27  and  N_28 
REMARK   10  A    between atoms: S_33  and  C_36 
ROOT
HETATM    1  C   UNK N   1      35.453  14.741   9.866  0.00  0.00     0.073 A 
HETATM    2  C   UNK N   1      36.386  14.515   8.662  0.00  0.00     0.031 A 
HETATM    3  C   UNK N   1      34.937  14.135   8.551  0.00  0.00     0.013 A 
ENDROOT
BRANCH   1   4
HETATM    4  C   UNK N   1      35.831  13.799  11.006  0.00  0.00    -0.040 A 
HETATM    5  C   UNK N   1      34.862  13.445  11.956  0.00  0.00     0.010 A 
HETATM    6  C   UNK N   1      35.185  12.576  13.005  0.00  0.00     0.024 A 
HETATM    7  C   UNK N   1      36.477  12.054  13.110  0.00  0.00     0.059 A 
HETATM    8  C   UNK N   1      37.447  12.399  12.168  0.00  0.00     0.024 A 
HETATM    9  C   UNK N   1      37.129  13.265  11.124  0.00  0.00     0.010 A 
BRANCH   7  10
HETATM   10  S   UNK N   1      36.896  10.949  14.450  0.00  0.00     0.179 S 
HETATM   11  O   UNK N   1      38.430  10.864  14.468  0.00  0.00    -0.222 OA
HETATM   12  O   UNK N   1      36.599   9.515  13.984  0.00  0.00    -0.222 OA
BRANCH  10  13
HETATM   13  C   UNK N   1      36.384  11.141  16.189  0.00  0.00     0.113 A 
HETATM   14  C   UNK N   1      34.872  11.192  16.302  0.00  0.00     0.022 A 
HETATM   15  C   UNK N   1      35.675  12.471  16.350  0.00  0.00     0.022 A 
ENDBRANCH  10  13
ENDBRANCH   7  10
ENDBRANCH   1   4
BRANCH   1  16
HETATM   16  C   UNK N   1      35.488  16.244  10.187  0.00  0.00     0.237 C 
HETATM   17  O   UNK N   1      36.383  16.644  10.913  0.00  0.00    -0.272 OA
HETATM   18  N   UNK N   1      34.635  17.176   9.665  0.00  0.00    -0.306 N 
HETATM   19  H   UNK N   1      34.859  18.116   9.851  0.00  0.00     0.171 HD
BRANCH  18  20
HETATM   20  C   UNK N   1      33.472  16.954   8.891  0.00  0.00     0.152 A 
HETATM   21  N   UNK N   1      32.368  16.334   9.379  0.00  0.00    -0.345 N 
HETATM   22  C   UNK N   1      31.363  16.239   8.441  0.00  0.00     0.116 A 
ATOM     23  HN  UNK N   1      32.290  15.979  10.333  1.00  0.00     0.167 HD
HETATM   24  C   UNK N   1      31.704  16.751   7.182  0.00  0.00     0.060 A 
HETATM   25  S   UNK N   1      33.254  17.307   7.290  0.00  0.00    -0.046 SA
BRANCH  24  26
HETATM   26  S   UNK N   1      30.596  16.951   5.794  0.00  0.00    -0.119 SA
BRANCH  26  27
HETATM   27  C   UNK N   1      29.100  17.046   6.849  0.00  0.00     0.110 C 
BRANCH  27  28
HETATM   28  C   UNK N   1      27.864  17.643   6.149  0.00  0.00     0.283 C 
BRANCH  28  29
HETATM   29  N   UNK N   1      28.088  18.901   5.430  0.00  0.00     0.089 N 
HETATM   30  C   UNK N   1      27.599  20.032   6.210  0.00  0.00     0.272 C 
HETATM   31  C   UNK N   1      26.599  20.788   5.360  0.00  0.00     0.032 C 
HETATM   32  C   UNK N   1      26.835  20.298   3.957  0.00  0.00     0.032 C 
HETATM   33  C   UNK N   1      27.409  18.914   4.140  0.00  0.00     0.272 C 
ENDBRANCH  28  29
ENDBRANCH  27  28
ENDBRANCH  26  27
ENDBRANCH  24  26
ENDBRANCH  18  20
ENDBRANCH   1  16
BRANCH   3  34
HETATM   34  C   UNK N   1      34.736  12.624   8.622  0.00  0.00    -0.009 C 
HETATM   35  C   UNK N   1      35.199  11.945   7.330  0.00  0.00     0.005 C 
HETATM   36  C   UNK N   1      34.720  10.491   7.201  0.00  0.00     0.000 C 
HETATM   37  C   UNK N   1      34.183   9.930   8.518  0.00  0.00     0.000 C 
HETATM   38  C   UNK N   1      33.035  10.791   9.055  0.00  0.00     0.000 C 
HETATM   39  C   UNK N   1      33.267  12.300   8.888  0.00  0.00     0.005 C 
ENDBRANCH   3  34
TORSDOF 10
ENDMDL
MODEL 5
REMARK VINA RESULT:      -6.6      4.287      7.921
REMARK  10 active torsions:
REMARK  status: ('A' for Active; 'I' for Inactive)
REMARK    1  A    between atoms: C_3  and  S_33 
REMARK    2  A    between atoms: C_7  and  C_6 
REMARK    3  A    between atoms: C_7  and  C_16 
REMARK    4  A    between atoms: C_9  and  C_10 
REMARK       I    between atoms: C_16  and  N_18 
REMARK    5  A    between atoms: N_18  and  C_19 
REMARK    6  A    between atoms: C_23  and  S_25 
REMARK    7  A    between atoms: S_25  and  C_26 
REMARK    8  A    between atoms: C_26  and  C_27 
REMARK    9  A    between atoms: C_27  and  N_28 
REMARK   10  A    between atoms: S_33  and  C_36 
ROOT
HETATM    1  C   UNK N   1      28.032  16.824   4.690  0.00  0.00     0.073 A 
HETATM    2  C   UNK N   1      28.190  16.818   3.159  0.00  0.00     0.031 A 
HETATM    3  C   UNK N   1      27.714  15.575   3.854  0.00  0.00     0.013 A 
ENDROOT
BRANCH   1   4
HETATM    4  C   UNK N   1      29.401  16.928   5.358  0.00  0.00    -0.040 A 
HETATM    5  C   UNK N   1      30.520  17.263   4.583  0.00  0.00     0.010 A 
HETATM    6  C   UNK N   1      31.783  17.373   5.175  0.00  0.00     0.024 A 
HETATM    7  C   UNK N   1      31.936  17.149   6.547  0.00  0.00     0.059 A 
HETATM    8  C   UNK N   1      30.827  16.817   7.326  0.00  0.00     0.024 A 
HETATM    9  C   UNK N   1      29.569  16.706   6.739  0.00  0.00     0.010 A 
BRANCH   7  10
HETATM   10  S   UNK N   1      33.547  17.281   7.308  0.00  0.00     0.179 S 
HETATM   11  O   UNK N   1      33.458  18.458   8.292  0.00  0.00    -0.222 OA
HETATM   12  O   UNK N   1      34.498  17.919   6.282  0.00  0.00    -0.222 OA
BRANCH  10  13
HETATM   13  C   UNK N   1      34.419  15.949   8.195  0.00  0.00     0.113 A 
HETATM   14  C   UNK N   1      33.498  15.277   9.195  0.00  0.00     0.022 A 
HETATM   15  C   UNK N   1      34.499  16.306   9.666  0.00  0.00     0.022 A 
ENDBRANCH  10  13
ENDBRANCH   7  10
ENDBRANCH   1   4
BRANCH   1  16
HETATM   16  C   UNK N   1      27.023  17.932   5.035  0.00  0.00     0.237 C 
HETATM   17  O   UNK N   1      27.386  19.088   4.898  0.00  0.00    -0.272 OA
HETATM   18  N   UNK N   1      25.728  17.719   5.417  0.00  0.00    -0.306 N 
HETATM   19  H   UNK N   1      25.158  18.520   5.473  0.00  0.00     0.171 HD
BRANCH  18  20
HETATM   20  C   UNK N   1      25.106  16.490   5.740  0.00  0.00     0.152 A 
HETATM   21  N   UNK N   1      25.484  15.727   6.797  0.00  0.00    -0.345 N 
HETATM   22  C   UNK N   1      24.729  14.580   6.911  0.00  0.00     0.116 A 
ATOM     23  HN  UNK N   1      26.240  15.976   7.435  1.00  0.00     0.167 HD
HETATM   24  C   UNK N   1      23.775  14.419   5.898  0.00  0.00     0.060 A 
HETATM   25  S   UNK N   1      23.910  15.721   4.894  0.00  0.00    -0.046 SA
BRANCH  24  26
HETATM   26  S   UNK N   1      22.517  13.151   5.832  0.00  0.00    -0.119 SA
BRANCH  26  27
HETATM   27  C   UNK N   1      22.848  12.566   7.537  0.00  0.00     0.110 C 
BRANCH  27  28
HETATM   28  C   UNK N   1      21.738  12.902   8.552  0.00  0.00     0.283 C 
BRANCH  28  29
HETATM   29  N   UNK N   1      22.189  13.173   9.920  0.00  0.00     0.089 N 
HETATM   30  C   UNK N   1      23.639  13.047  10.017  0.00  0.00     0.272 C 
HETATM   31  C   UNK N   1      23.949  12.030  11.095  0.00  0.00     0.032 C 
HETATM   32  C   UNK N   1      22.667  11.887  11.872  0.00  0.00     0.032 C 
HETATM   33  C   UNK N   1      21.591  12.253  10.880  0.00  0.00     0.272 C 
ENDBRANCH  28  29
ENDBRANCH  27  28
ENDBRANCH  26  27
ENDBRANCH  24  26
ENDBRANCH  18  20
ENDBRANCH   1  16
BRANCH   3  34
HETATM   34  C   UNK N   1      28.804  14.509   3.926  0.00  0.00    -0.009 C 
HETATM   35  C   UNK N   1      29.514  14.356   2.578  0.00  0.00     0.005 C 
HETATM   36  C   UNK N   1      30.375  13.087   2.484  0.00  0.00     0.000 C 
HETATM   37  C   UNK N   1      30.610  12.434   3.846  0.00  0.00     0.000 C 
HETATM   38  C   UNK N   1      29.281  12.090   4.528  0.00  0.00     0.000 C 
HETATM   39  C   UNK N   1      28.204  13.172   4.358  0.00  0.00     0.005 C 
ENDBRANCH   3  34
TORSDOF 10
ENDMDL
MODEL 6
REMARK VINA RESULT:      -6.6      8.999     12.848
REMARK  10 active torsions:
REMARK  status: ('A' for Active; 'I' for Inactive)
REMARK    1  A    between atoms: C_3  and  S_33 
REMARK    2  A    between atoms: C_7  and  C_6 
REMARK    3  A    between atoms: C_7  and  C_16 
REMARK    4  A    between atoms: C_9  and  C_10 
REMARK       I    between atoms: C_16  and  N_18 
REMARK    5  A    between atoms: N_18  and  C_19 
REMARK    6  A    between atoms: C_23  and  S_25 
REMARK    7  A    between atoms: S_25  and  C_26 
REMARK    8  A    between atoms: C_26  and  C_27 
REMARK    9  A    between atoms: C_27  and  N_28 
REMARK   10  A    between atoms: S_33  and  C_36 
ROOT
HETATM    1  C   UNK N   1      34.111  17.370   7.552  0.00  0.00     0.073 A 
HETATM    2  C   UNK N   1      34.671  15.939   7.455  0.00  0.00     0.031 A 
HETATM    3  C   UNK N   1      34.697  16.822   6.241  0.00  0.00     0.013 A 
ENDROOT
BRANCH   1   4
HETATM    4  C   UNK N   1      32.598  17.328   7.750  0.00  0.00    -0.040 A 
HETATM    5  C   UNK N   1      31.973  18.346   8.485  0.00  0.00     0.010 A 
HETATM    6  C   UNK N   1      30.586  18.333   8.672  0.00  0.00     0.024 A 
HETATM    7  C   UNK N   1      29.814  17.304   8.124  0.00  0.00     0.059 A 
HETATM    8  C   UNK N   1      30.428  16.288   7.390  0.00  0.00     0.024 A 
HETATM    9  C   UNK N   1      31.808  16.298   7.204  0.00  0.00     0.010 A 
BRANCH   7  10
HETATM   10  S   UNK N   1      28.044  17.278   8.365  0.00  0.00     0.179 S 
HETATM   11  O   UNK N   1      27.614  18.745   8.518  0.00  0.00    -0.222 OA
HETATM   12  O   UNK N   1      27.775  16.815   9.806  0.00  0.00    -0.222 OA
BRANCH  10  13
HETATM   13  C   UNK N   1      26.827  16.512   7.245  0.00  0.00     0.113 A 
HETATM   14  C   UNK N   1      27.523  15.720   6.155  0.00  0.00     0.022 A 
HETATM   15  C   UNK N   1      26.992  17.104   5.859  0.00  0.00     0.022 A 
ENDBRANCH  10  13
ENDBRANCH   7  10
ENDBRANCH   1   4
BRANCH   1  16
HETATM   16  C   UNK N   1      34.918  18.097   8.640  0.00  0.00     0.237 C 
HETATM   17  O   UNK N   1      35.248  19.251   8.421  0.00  0.00    -0.272 OA
HETATM   18  N   UNK N   1      35.233  17.572   9.862  0.00  0.00    -0.306 N 
HETATM   19  H   UNK N   1      35.634  18.197  10.509  0.00  0.00     0.171 HD
BRANCH  18  20
HETATM   20  C   UNK N   1      35.054  16.243  10.312  0.00  0.00     0.152 A 
HETATM   21  N   UNK N   1      33.841  15.735  10.649  0.00  0.00    -0.345 N 
HETATM   22  C   UNK N   1      33.918  14.420  11.052  0.00  0.00     0.116 A 
ATOM     23  HN  UNK N   1      32.971  16.267  10.607  1.00  0.00     0.167 HD
HETATM   24  C   UNK N   1      35.220  13.903  11.077  0.00  0.00     0.060 A 
HETATM   25  S   UNK N   1      36.230  15.114  10.591  0.00  0.00    -0.046 SA
BRANCH  24  26
HETATM   26  S   UNK N   1      35.669  12.199  11.374  0.00  0.00    -0.119 SA
BRANCH  26  27
HETATM   27  C   UNK N   1      37.085  12.635  12.454  0.00  0.00     0.110 C 
BRANCH  27  28
HETATM   28  C   UNK N   1      37.467  11.545  13.473  0.00  0.00     0.283 C 
BRANCH  28  29
HETATM   29  N   UNK N   1      37.024  11.781  14.851  0.00  0.00     0.089 N 
HETATM   30  C   UNK N   1      35.738  11.138  15.096  0.00  0.00     0.272 C 
HETATM   31  C   UNK N   1      34.769  12.198  15.574  0.00  0.00     0.032 C 
HETATM   32  C   UNK N   1      35.636  13.362  15.975  0.00  0.00     0.032 C 
HETATM   33  C   UNK N   1      36.879  13.204  15.136  0.00  0.00     0.272 C 
ENDBRANCH  28  29
ENDBRANCH  27  28
ENDBRANCH  26  27
ENDBRANCH  24  26
ENDBRANCH  18  20
ENDBRANCH   1  16
BRANCH   3  34
HETATM   34  C   UNK N   1      33.630  16.426   5.224  0.00  0.00    -0.009 C 
HETATM   35  C   UNK N   1      34.080  15.219   4.397  0.00  0.00     0.005 C 
HETATM   36  C   UNK N   1      33.217  14.982   3.147  0.00  0.00     0.000 C 
HETATM   37  C   UNK N   1      31.911  15.776   3.175  0.00  0.00     0.000 C 
HETATM   38  C   UNK N   1      32.183  17.278   3.321  0.00  0.00     0.000 C 
HETATM   39  C   UNK N   1      33.316  17.605   4.305  0.00  0.00     0.005 C 
ENDBRANCH   3  34
TORSDOF 10
ENDMDL
MODEL 7
REMARK VINA RESULT:      -6.4     13.107     15.757
REMARK  10 active torsions:
REMARK  status: ('A' for Active; 'I' for Inactive)
REMARK    1  A    between atoms: C_3  and  S_33 
REMARK    2  A    between atoms: C_7  and  C_6 
REMARK    3  A    between atoms: C_7  and  C_16 
REMARK    4  A    between atoms: C_9  and  C_10 
REMARK       I    between atoms: C_16  and  N_18 
REMARK    5  A    between atoms: N_18  and  C_19 
REMARK    6  A    between atoms: C_23  and  S_25 
REMARK    7  A    between atoms: S_25  and  C_26 
REMARK    8  A    between atoms: C_26  and  C_27 
REMARK    9  A    between atoms: C_27  and  N_28 
REMARK   10  A    between atoms: S_33  and  C_36 
ROOT
HETATM    1  C   UNK N   1      30.618  22.591  -4.191  0.00  0.00     0.073 A 
HETATM    2  C   UNK N   1      29.818  21.317  -4.516  0.00  0.00     0.031 A 
HETATM    3  C   UNK N   1      30.746  21.885  -5.550  0.00  0.00     0.013 A 
ENDROOT
BRANCH   1   4
HETATM    4  C   UNK N   1      29.676  23.787  -4.074  0.00  0.00    -0.040 A 
HETATM    5  C   UNK N   1      28.328  23.570  -3.752  0.00  0.00     0.010 A 
HETATM    6  C   UNK N   1      27.448  24.652  -3.631  0.00  0.00     0.024 A 
HETATM    7  C   UNK N   1      27.910  25.957  -3.830  0.00  0.00     0.059 A 
HETATM    8  C   UNK N   1      29.249  26.181  -4.150  0.00  0.00     0.024 A 
HETATM    9  C   UNK N   1      30.127  25.106  -4.272  0.00  0.00     0.010 A 
BRANCH   7  10
HETATM   10  S   UNK N   1      26.790  27.341  -3.684  0.00  0.00     0.179 S 
HETATM   11  O   UNK N   1      27.634  28.521  -3.179  0.00  0.00    -0.222 OA
HETATM   12  O   UNK N   1      25.937  27.121  -2.423  0.00  0.00    -0.222 OA
BRANCH  10  13
HETATM   13  C   UNK N   1      25.740  28.009  -5.017  0.00  0.00     0.113 A 
HETATM   14  C   UNK N   1      24.817  26.936  -5.562  0.00  0.00     0.022 A 
HETATM   15  C   UNK N   1      26.077  27.298  -6.313  0.00  0.00     0.022 A 
ENDBRANCH  10  13
ENDBRANCH   7  10
ENDBRANCH   1   4
BRANCH   1  16
HETATM   16  C   UNK N   1      31.477  22.281  -2.954  0.00  0.00     0.237 C 
HETATM   17  O   UNK N   1      31.027  22.592  -1.864  0.00  0.00    -0.272 OA
HETATM   18  N   UNK N   1      32.673  21.620  -2.978  0.00  0.00    -0.306 N 
HETATM   19  H   UNK N   1      33.045  21.371  -2.101  0.00  0.00     0.171 HD
BRANCH  18  20
HETATM   20  C   UNK N   1      33.442  21.251  -4.108  0.00  0.00     0.152 A 
HETATM   21  N   UNK N   1      34.066  22.156  -4.903  0.00  0.00    -0.345 N 
HETATM   22  C   UNK N   1      34.755  21.557  -5.935  0.00  0.00     0.116 A 
ATOM     23  HN  UNK N   1      34.031  23.165  -4.753  1.00  0.00     0.167 HD
HETATM   24  C   UNK N   1      34.629  20.163  -5.976  0.00  0.00     0.060 A 
HETATM   25  S   UNK N   1      33.658  19.728  -4.716  0.00  0.00    -0.046 SA
BRANCH  24  26
HETATM   26  S   UNK N   1      35.522  19.059  -7.061  0.00  0.00    -0.119 SA
BRANCH  26  27
HETATM   27  C   UNK N   1      33.997  18.310  -7.751  0.00  0.00     0.110 C 
BRANCH  27  28
HETATM   28  C   UNK N   1      33.501  18.963  -9.055  0.00  0.00     0.283 C 
BRANCH  28  29
HETATM   29  N   UNK N   1      32.235  19.695  -8.957  0.00  0.00     0.089 N 
HETATM   30  C   UNK N   1      31.388  19.119  -7.918  0.00  0.00     0.272 C 
HETATM   31  C   UNK N   1      30.064  18.743  -8.551  0.00  0.00     0.032 C 
HETATM   32  C   UNK N   1      30.038  19.483  -9.862  0.00  0.00     0.032 C 
HETATM   33  C   UNK N   1      31.494  19.667 -10.212  0.00  0.00     0.272 C 
ENDBRANCH  28  29
ENDBRANCH  27  28
ENDBRANCH  26  27
ENDBRANCH  24  26
ENDBRANCH  18  20
ENDBRANCH   1  16
BRANCH   3  34
HETATM   34  C   UNK N   1      29.989  22.593  -6.670  0.00  0.00    -0.009 C 
HETATM   35  C   UNK N   1      28.722  21.822  -7.051  0.00  0.00     0.005 C 
HETATM   36  C   UNK N   1      28.103  22.287  -8.379  0.00  0.00     0.000 C 
HETATM   37  C   UNK N   1      28.673  23.622  -8.858  0.00  0.00     0.000 C 
HETATM   38  C   UNK N   1      30.197  23.545  -9.014  0.00  0.00     0.000 C 
HETATM   39  C   UNK N   1      30.891  22.758  -7.893  0.00  0.00     0.005 C 
ENDBRANCH   3  34
TORSDOF 10
ENDMDL
MODEL 8
REMARK VINA RESULT:      -6.4     11.634     13.827
REMARK  10 active torsions:
REMARK  status: ('A' for Active; 'I' for Inactive)
REMARK    1  A    between atoms: C_3  and  S_33 
REMARK    2  A    between atoms: C_7  and  C_6 
REMARK    3  A    between atoms: C_7  and  C_16 
REMARK    4  A    between atoms: C_9  and  C_10 
REMARK       I    between atoms: C_16  and  N_18 
REMARK    5  A    between atoms: N_18  and  C_19 
REMARK    6  A    between atoms: C_23  and  S_25 
REMARK    7  A    between atoms: S_25  and  C_26 
REMARK    8  A    between atoms: C_26  and  C_27 
REMARK    9  A    between atoms: C_27  and  N_28 
REMARK   10  A    between atoms: S_33  and  C_36 
ROOT
HETATM    1  C   UNK N   1      35.753  12.979  12.611  0.00  0.00     0.073 A 
HETATM    2  C   UNK N   1      36.946  12.507  11.759  0.00  0.00     0.031 A 
HETATM    3  C   UNK N   1      35.549  12.202  11.301  0.00  0.00     0.013 A 
ENDROOT
BRANCH   1   4
HETATM    4  C   UNK N   1      35.715  12.212  13.930  0.00  0.00    -0.040 A 
HETATM    5  C   UNK N   1      34.477  11.927  14.523  0.00  0.00     0.010 A 
HETATM    6  C   UNK N   1      34.417  11.217  15.728  0.00  0.00     0.024 A 
HETATM    7  C   UNK N   1      35.595  10.786  16.347  0.00  0.00     0.059 A 
HETATM    8  C   UNK N   1      36.831  11.064  15.762  0.00  0.00     0.024 A 
HETATM    9  C   UNK N   1      36.893  11.772  14.564  0.00  0.00     0.010 A 
BRANCH   7  10
HETATM   10  S   UNK N   1      35.526   9.886  17.888  0.00  0.00     0.179 S 
HETATM   11  O   UNK N   1      36.928   9.296  18.100  0.00  0.00    -0.222 OA
HETATM   12  O   UNK N   1      34.769   8.573  17.629  0.00  0.00    -0.222 OA
BRANCH  10  13
HETATM   13  C   UNK N   1      35.019  10.569  19.500  0.00  0.00     0.113 A 
HETATM   14  C   UNK N   1      35.380  12.039  19.599  0.00  0.00     0.022 A 
HETATM   15  C   UNK N   1      36.256  11.002  20.263  0.00  0.00     0.022 A 
ENDBRANCH  10  13
ENDBRANCH   7  10
ENDBRANCH   1   4
BRANCH   1  16
HETATM   16  C   UNK N   1      35.854  14.510  12.719  0.00  0.00     0.237 C 
HETATM   17  O   UNK N   1      36.437  14.969  13.687  0.00  0.00    -0.272 OA
HETATM   18  N   UNK N   1      35.403  15.392  11.777  0.00  0.00    -0.306 N 
HETATM   19  H   UNK N   1      35.656  16.333  11.913  0.00  0.00     0.171 HD
BRANCH  18  20
HETATM   20  C   UNK N   1      34.617  15.118  10.633  0.00  0.00     0.152 A 
HETATM   21  N   UNK N   1      33.272  14.946  10.684  0.00  0.00    -0.345 N 
HETATM   22  C   UNK N   1      32.729  14.694   9.443  0.00  0.00     0.116 A 
ATOM     23  HN  UNK N   1      32.725  14.999  11.544  1.00  0.00     0.167 HD
HETATM   24  C   UNK N   1      33.671  14.620   8.409  0.00  0.00     0.060 A 
HETATM   25  S   UNK N   1      35.153  14.874   9.087  0.00  0.00    -0.046 SA
BRANCH  24  26
HETATM   26  S   UNK N   1      33.307  14.487   6.665  0.00  0.00    -0.119 SA
BRANCH  26  27
HETATM   27  C   UNK N   1      31.636  15.221   6.835  0.00  0.00     0.110 C 
BRANCH  27  28
HETATM   28  C   UNK N   1      30.722  15.013   5.612  0.00  0.00     0.283 C 
BRANCH  28  29
HETATM   29  N   UNK N   1      30.818  16.035   4.566  0.00  0.00     0.089 N 
HETATM   30  C   UNK N   1      31.573  15.533   3.424  0.00  0.00     0.272 C 
HETATM   31  C   UNK N   1      32.729  16.480   3.176  0.00  0.00     0.032 C 
HETATM   32  C   UNK N   1      32.376  17.728   3.939  0.00  0.00     0.032 C 
HETATM   33  C   UNK N   1      31.477  17.243   5.048  0.00  0.00     0.272 C 
ENDBRANCH  28  29
ENDBRANCH  27  28
ENDBRANCH  26  27
ENDBRANCH  24  26
ENDBRANCH  18  20
ENDBRANCH   1  16
BRANCH   3  34
HETATM   34  C   UNK N   1      35.183  10.737  11.521  0.00  0.00    -0.009 C 
HETATM   35  C   UNK N   1      36.372   9.821  11.215  0.00  0.00     0.005 C 
HETATM   36  C   UNK N   1      35.982   8.339  11.089  0.00  0.00     0.000 C 
HETATM   37  C   UNK N   1      34.578   8.054  11.623  0.00  0.00     0.000 C 
HETATM   38  C   UNK N   1      33.530   8.912  10.904  0.00  0.00     0.000 C 
HETATM   39  C   UNK N   1      33.988  10.355  10.649  0.00  0.00     0.005 C 
ENDBRANCH   3  34
TORSDOF 10
ENDMDL
MODEL 9
REMARK VINA RESULT:      -6.4      5.695      9.614
REMARK  10 active torsions:
REMARK  status: ('A' for Active; 'I' for Inactive)
REMARK    1  A    between atoms: C_3  and  S_33 
REMARK    2  A    between atoms: C_7  and  C_6 
REMARK    3  A    between atoms: C_7  and  C_16 
REMARK    4  A    between atoms: C_9  and  C_10 
REMARK       I    between atoms: C_16  and  N_18 
REMARK    5  A    between atoms: N_18  and  C_19 
REMARK    6  A    between atoms: C_23  and  S_25 
REMARK    7  A    between atoms: S_25  and  C_26 
REMARK    8  A    between atoms: C_26  and  C_27 
REMARK    9  A    between atoms: C_27  and  N_28 
REMARK   10  A    between atoms: S_33  and  C_36 
ROOT
HETATM    1  C   UNK N   1      28.290  16.074   4.665  0.00  0.00     0.073 A 
HETATM    2  C   UNK N   1      28.393  16.955   3.406  0.00  0.00     0.031 A 
HETATM    3  C   UNK N   1      28.884  17.490   4.720  0.00  0.00     0.013 A 
ENDROOT
BRANCH   1   4
HETATM    4  C   UNK N   1      26.825  15.880   5.050  0.00  0.00    -0.040 A 
HETATM    5  C   UNK N   1      26.505  15.490   6.359  0.00  0.00     0.010 A 
HETATM    6  C   UNK N   1      25.169  15.315   6.737  0.00  0.00     0.024 A 
HETATM    7  C   UNK N   1      24.144  15.530   5.810  0.00  0.00     0.059 A 
HETATM    8  C   UNK N   1      24.454  15.920   4.506  0.00  0.00     0.024 A 
HETATM    9  C   UNK N   1      25.783  16.094   4.127  0.00  0.00     0.010 A 
BRANCH   7  10
HETATM   10  S   UNK N   1      22.437  15.301   6.285  0.00  0.00     0.179 S 
HETATM   11  O   UNK N   1      22.466  14.659   7.680  0.00  0.00    -0.222 OA
HETATM   12  O   UNK N   1      21.890  14.100   5.497  0.00  0.00    -0.222 OA
BRANCH  10  13
HETATM   13  C   UNK N   1      21.167  16.607   6.359  0.00  0.00     0.113 A 
HETATM   14  C   UNK N   1      21.040  17.310   5.021  0.00  0.00     0.022 A 
HETATM   15  C   UNK N   1      21.830  17.952   6.137  0.00  0.00     0.022 A 
ENDBRANCH  10  13
ENDBRANCH   7  10
ENDBRANCH   1   4
BRANCH   1  16
HETATM   16  C   UNK N   1      29.093  14.794   4.386  0.00  0.00     0.237 C 
HETATM   17  O   UNK N   1      28.495  13.847   3.901  0.00  0.00    -0.272 OA
HETATM   18  N   UNK N   1      30.440  14.658   4.574  0.00  0.00    -0.306 N 
HETATM   19  H   UNK N   1      30.843  13.830   4.226  0.00  0.00     0.171 HD
BRANCH  18  20
HETATM   20  C   UNK N   1      31.326  15.562   5.208  0.00  0.00     0.152 A 
HETATM   21  N   UNK N   1      32.259  16.278   4.530  0.00  0.00    -0.345 N 
HETATM   22  C   UNK N   1      32.999  17.092   5.361  0.00  0.00     0.116 A 
ATOM     23  HN  UNK N   1      32.396  16.221   3.521  1.00  0.00     0.167 HD
HETATM   24  C   UNK N   1      32.671  16.976   6.718  0.00  0.00     0.060 A 
HETATM   25  S   UNK N   1      31.464  15.857   6.830  0.00  0.00    -0.046 SA
BRANCH  24  26
HETATM   26  S   UNK N   1      33.298  18.000   8.041  0.00  0.00    -0.119 SA
BRANCH  26  27
HETATM   27  C   UNK N   1      33.714  16.571   9.111  0.00  0.00     0.110 C 
BRANCH  27  28
HETATM   28  C   UNK N   1      34.931  15.753   8.636  0.00  0.00     0.283 C 
BRANCH  28  29
HETATM   29  N   UNK N   1      35.731  15.132   9.697  0.00  0.00     0.089 N 
HETATM   30  C   UNK N   1      35.052  13.958  10.233  0.00  0.00     0.272 C 
HETATM   31  C   UNK N   1      34.895  14.151  11.727  0.00  0.00     0.032 C 
HETATM   32  C   UNK N   1      35.851  15.261  12.075  0.00  0.00     0.032 C 
HETATM   33  C   UNK N   1      35.978  16.054  10.798  0.00  0.00     0.272 C 
ENDBRANCH  28  29
ENDBRANCH  27  28
ENDBRANCH  26  27
ENDBRANCH  24  26
ENDBRANCH  18  20
ENDBRANCH   1  16
BRANCH   3  34
HETATM   34  C   UNK N   1      27.927  18.522   5.310  0.00  0.00    -0.009 C 
HETATM   35  C   UNK N   1      27.817  19.752   4.404  0.00  0.00     0.005 C 
HETATM   36  C   UNK N   1      27.148  20.954   5.088  0.00  0.00     0.000 C 
HETATM   37  C   UNK N   1      26.438  20.572   6.387  0.00  0.00     0.000 C 
HETATM   38  C   UNK N   1      27.410  19.910   7.371  0.00  0.00     0.000 C 
HETATM   39  C   UNK N   1      28.394  18.937   6.704  0.00  0.00     0.005 C 
ENDBRANCH   3  34
TORSDOF 10
ENDMDL
