MODEL 1
REMARK VINA RESULT:      -5.3      0.000      0.000
REMARK  3 active torsions:
REMARK  status: ('A' for Active; 'I' for Inactive)
REMARK    1  A    between atoms: C_2  and  N_9 
REMARK    2  A    between atoms: C_2  and  N_12 
REMARK       I    between atoms: N_4  and  C_5 
REMARK    3  A    between atoms: C_5  and  C_7 
ROOT
HETATM    1  C   UNK N   1      32.087  17.990   8.715  0.00  0.00     0.194 A 
HETATM    2  C   UNK N   1      33.423  17.243   8.412  0.00  0.00     0.261 A 
HETATM    3  C   UNK N   1      32.634  16.292   7.463  0.00  0.00     0.194 A 
HETATM    4  N   UNK N   1      31.514  17.100   7.774  0.00  0.00    -0.342 N 
HETATM    5  C   UNK N   1      30.270  17.078   7.235  0.00  0.00     0.230 C 
HETATM    6  O   UNK N   1      29.981  16.233   6.402  0.00  0.00    -0.273 OA
ENDROOT
BRANCH   2   7
HETATM    7  N   UNK N   1      33.981  16.539   9.569  0.00  0.00    -0.114 N 
HETATM    8  O   UNK N   1      33.667  15.406   9.780  0.00  0.00    -0.534 OA
HETATM    9  O   UNK N   1      34.888  17.101  10.339  0.00  0.00    -0.534 OA
ENDBRANCH   2   7
BRANCH   2  10
HETATM   10  N   UNK N   1      34.345  18.104   7.670  0.00  0.00    -0.114 N 
HETATM   11  O   UNK N   1      34.531  17.903   6.507  0.00  0.00    -0.534 OA
HETATM   12  O   UNK N   1      34.929  19.137   8.236  0.00  0.00    -0.534 OA
ENDBRANCH   2  10
BRANCH   5  13
HETATM   13  C   UNK N   1      29.255  18.103   7.625  0.00  0.00     0.188 C 
HETATM   14 Br   UNK N   1      28.308  17.509   9.212  0.00  0.00    -0.087 Br
ENDBRANCH   5  13
TORSDOF 3
ENDMDL
MODEL 2
REMARK VINA RESULT:      -5.2      3.777      5.228
REMARK  3 active torsions:
REMARK  status: ('A' for Active; 'I' for Inactive)
REMARK    1  A    between atoms: C_2  and  N_9 
REMARK    2  A    between atoms: C_2  and  N_12 
REMARK       I    between atoms: N_4  and  C_5 
REMARK    3  A    between atoms: C_5  and  C_7 
ROOT
HETATM    1  C   UNK N   1      34.728  15.612   8.115  0.00  0.00     0.194 A 
HETATM    2  C   UNK N   1      33.997  16.930   8.521  0.00  0.00     0.261 A 
HETATM    3  C   UNK N   1      34.659  16.821   9.927  0.00  0.00     0.194 A 
HETATM    4  N   UNK N   1      35.310  15.677   9.405  0.00  0.00    -0.342 N 
HETATM    5  C   UNK N   1      36.291  14.925   9.961  0.00  0.00     0.230 C 
HETATM    6  O   UNK N   1      36.678  15.168  11.093  0.00  0.00    -0.273 OA
ENDROOT
BRANCH   2   7
HETATM    7  N   UNK N   1      32.540  16.803   8.579  0.00  0.00    -0.114 N 
HETATM    8  O   UNK N   1      32.040  15.719   8.571  0.00  0.00    -0.534 OA
HETATM    9  O   UNK N   1      31.767  17.859   8.721  0.00  0.00    -0.534 OA
ENDBRANCH   2   7
BRANCH   2  10
HETATM   10  N   UNK N   1      34.520  18.070   7.765  0.00  0.00    -0.114 N 
HETATM   11  O   UNK N   1      34.429  18.077   6.575  0.00  0.00    -0.534 OA
HETATM   12  O   UNK N   1      35.032  19.120   8.370  0.00  0.00    -0.534 OA
ENDBRANCH   2  10
BRANCH   5  13
HETATM   13  C   UNK N   1      36.931  13.818   9.187  0.00  0.00     0.188 C 
HETATM   14 Br   UNK N   1      38.481  13.161  10.153  0.00  0.00    -0.087 Br
ENDBRANCH   5  13
TORSDOF 3
ENDMDL
MODEL 3
REMARK VINA RESULT:      -5.2      3.328      5.063
REMARK  3 active torsions:
REMARK  status: ('A' for Active; 'I' for Inactive)
REMARK    1  A    between atoms: C_2  and  N_9 
REMARK    2  A    between atoms: C_2  and  N_12 
REMARK       I    between atoms: N_4  and  C_5 
REMARK    3  A    between atoms: C_5  and  C_7 
ROOT
HETATM    1  C   UNK N   1      34.823  16.725   9.920  0.00  0.00     0.194 A 
HETATM    2  C   UNK N   1      34.086  16.922   8.559  0.00  0.00     0.261 A 
HETATM    3  C   UNK N   1      34.714  15.584   8.066  0.00  0.00     0.194 A 
HETATM    4  N   UNK N   1      35.267  15.498   9.367  0.00  0.00    -0.342 N 
HETATM    5  C   UNK N   1      35.945  14.474   9.940  0.00  0.00     0.230 C 
HETATM    6  O   UNK N   1      36.207  13.475   9.288  0.00  0.00    -0.273 OA
ENDROOT
BRANCH   2   7
HETATM    7  N   UNK N   1      34.558  18.076   7.793  0.00  0.00    -0.114 N 
HETATM    8  O   UNK N   1      34.432  18.089   6.605  0.00  0.00    -0.534 OA
HETATM    9  O   UNK N   1      35.049  19.141   8.392  0.00  0.00    -0.534 OA
ENDBRANCH   2   7
BRANCH   2  10
HETATM   10  N   UNK N   1      32.636  16.806   8.730  0.00  0.00    -0.114 N 
HETATM   11  O   UNK N   1      31.960  17.789   8.698  0.00  0.00    -0.534 OA
HETATM   12  O   UNK N   1      32.049  15.636   8.856  0.00  0.00    -0.534 OA
ENDBRANCH   2  10
BRANCH   5  13
HETATM   13  C   UNK N   1      36.346  14.539  11.378  0.00  0.00     0.188 C 
HETATM   14 Br   UNK N   1      35.227  13.344  12.420  0.00  0.00    -0.087 Br
ENDBRANCH   5  13
TORSDOF 3
ENDMDL
MODEL 4
REMARK VINA RESULT:      -5.2     12.500     13.517
REMARK  3 active torsions:
REMARK  status: ('A' for Active; 'I' for Inactive)
REMARK    1  A    between atoms: C_2  and  N_9 
REMARK    2  A    between atoms: C_2  and  N_12 
REMARK       I    between atoms: N_4  and  C_5 
REMARK    3  A    between atoms: C_5  and  C_7 
ROOT
HETATM    1  C   UNK N   1      21.458  18.068   2.948  0.00  0.00     0.194 A 
HETATM    2  C   UNK N   1      20.637  19.234   2.316  0.00  0.00     0.261 A 
HETATM    3  C   UNK N   1      19.342  18.588   2.894  0.00  0.00     0.194 A 
HETATM    4  N   UNK N   1      20.214  17.632   3.468  0.00  0.00    -0.342 N 
HETATM    5  C   UNK N   1      19.934  16.642   4.350  0.00  0.00     0.230 C 
HETATM    6  O   UNK N   1      18.781  16.446   4.701  0.00  0.00    -0.273 OA
ENDROOT
BRANCH   2   7
HETATM    7  N   UNK N   1      20.650  19.241   0.852  0.00  0.00    -0.114 N 
HETATM    8  O   UNK N   1      20.912  20.249   0.267  0.00  0.00    -0.534 OA
HETATM    9  O   UNK N   1      20.458  18.137   0.161  0.00  0.00    -0.534 OA
ENDBRANCH   2   7
BRANCH   2  10
HETATM   10  N   UNK N   1      20.945  20.506   2.973  0.00  0.00    -0.114 N 
HETATM   11  O   UNK N   1      20.164  20.974   3.744  0.00  0.00    -0.534 OA
HETATM   12  O   UNK N   1      22.094  21.117   2.784  0.00  0.00    -0.534 OA
ENDBRANCH   2  10
BRANCH   5  13
HETATM   13  C   UNK N   1      21.030  15.806   4.929  0.00  0.00     0.188 C 
HETATM   14 Br   UNK N   1      21.466  16.448   6.708  0.00  0.00    -0.087 Br
ENDBRANCH   5  13
TORSDOF 3
ENDMDL
MODEL 5
REMARK VINA RESULT:      -4.8     13.150     14.198
REMARK  3 active torsions:
REMARK  status: ('A' for Active; 'I' for Inactive)
REMARK    1  A    between atoms: C_2  and  N_9 
REMARK    2  A    between atoms: C_2  and  N_12 
REMARK       I    between atoms: N_4  and  C_5 
REMARK    3  A    between atoms: C_5  and  C_7 
ROOT
HETATM    1  C   UNK N   1      29.767  24.834  -3.656  0.00  0.00     0.194 A 
HETATM    2  C   UNK N   1      29.949  23.290  -3.527  0.00  0.00     0.261 A 
HETATM    3  C   UNK N   1      28.408  23.159  -3.344  0.00  0.00     0.194 A 
HETATM    4  N   UNK N   1      28.381  24.560  -3.545  0.00  0.00    -0.342 N 
HETATM    5  C   UNK N   1      27.313  25.381  -3.691  0.00  0.00     0.230 C 
HETATM    6  O   UNK N   1      26.181  24.934  -3.587  0.00  0.00    -0.273 OA
ENDROOT
BRANCH   2   7
HETATM    7  N   UNK N   1      30.690  22.880  -2.332  0.00  0.00    -0.114 N 
HETATM    8  O   UNK N   1      30.255  23.138  -1.250  0.00  0.00    -0.534 OA
HETATM    9  O   UNK N   1      31.788  22.161  -2.421  0.00  0.00    -0.534 OA
ENDBRANCH   2   7
BRANCH   2  10
HETATM   10  N   UNK N   1      30.393  22.710  -4.796  0.00  0.00    -0.114 N 
HETATM   11  O   UNK N   1      29.872  21.716  -5.203  0.00  0.00    -0.534 OA
HETATM   12  O   UNK N   1      31.313  23.292  -5.534  0.00  0.00    -0.534 OA
ENDBRANCH   2  10
BRANCH   5  13
HETATM   13  C   UNK N   1      27.505  26.828  -4.015  0.00  0.00     0.188 C 
HETATM   14 Br   UNK N   1      25.839  27.783  -3.735  0.00  0.00    -0.087 Br
ENDBRANCH   5  13
TORSDOF 3
ENDMDL
MODEL 6
REMARK VINA RESULT:      -4.8     13.408     14.606
REMARK  3 active torsions:
REMARK  status: ('A' for Active; 'I' for Inactive)
REMARK    1  A    between atoms: C_2  and  N_9 
REMARK    2  A    between atoms: C_2  and  N_12 
REMARK       I    between atoms: N_4  and  C_5 
REMARK    3  A    between atoms: C_5  and  C_7 
ROOT
HETATM    1  C   UNK N   1      28.347  24.003  -4.147  0.00  0.00     0.194 A 
HETATM    2  C   UNK N   1      29.679  23.545  -3.474  0.00  0.00     0.261 A 
HETATM    3  C   UNK N   1      30.185  25.016  -3.558  0.00  0.00     0.194 A 
HETATM    4  N   UNK N   1      28.907  25.304  -4.096  0.00  0.00    -0.342 N 
HETATM    5  C   UNK N   1      28.352  26.506  -4.382  0.00  0.00     0.230 C 
HETATM    6  O   UNK N   1      29.005  27.529  -4.240  0.00  0.00    -0.273 OA
ENDROOT
BRANCH   2   7
HETATM    7  N   UNK N   1      30.475  22.634  -4.300  0.00  0.00    -0.114 N 
HETATM    8  O   UNK N   1      31.482  23.024  -4.808  0.00  0.00    -0.534 OA
HETATM    9  O   UNK N   1      30.146  21.366  -4.430  0.00  0.00    -0.534 OA
ENDBRANCH   2   7
BRANCH   2  10
HETATM   10  N   UNK N   1      29.449  23.132  -2.089  0.00  0.00    -0.114 N 
HETATM   11  O   UNK N   1      30.381  22.984  -1.357  0.00  0.00    -0.534 OA
HETATM   12  O   UNK N   1      28.234  22.980  -1.609  0.00  0.00    -0.534 OA
ENDBRANCH   2  10
BRANCH   5  13
HETATM   13  C   UNK N   1      26.932  26.599  -4.838  0.00  0.00     0.188 C 
HETATM   14 Br   UNK N   1      25.919  27.690  -3.594  0.00  0.00    -0.087 Br
ENDBRANCH   5  13
TORSDOF 3
ENDMDL
MODEL 7
REMARK VINA RESULT:      -4.8      3.992      5.673
REMARK  3 active torsions:
REMARK  status: ('A' for Active; 'I' for Inactive)
REMARK    1  A    between atoms: C_2  and  N_9 
REMARK    2  A    between atoms: C_2  and  N_12 
REMARK       I    between atoms: N_4  and  C_5 
REMARK    3  A    between atoms: C_5  and  C_7 
ROOT
HETATM    1  C   UNK N   1      35.030  14.267  10.545  0.00  0.00     0.194 A 
HETATM    2  C   UNK N   1      36.216  14.269  11.559  0.00  0.00     0.261 A 
HETATM    3  C   UNK N   1      36.499  15.751  11.170  0.00  0.00     0.194 A 
HETATM    4  N   UNK N   1      35.358  15.630  10.340  0.00  0.00    -0.342 N 
HETATM    5  C   UNK N   1      34.712  16.588   9.632  0.00  0.00     0.230 C 
HETATM    6  O   UNK N   1      35.150  17.728   9.608  0.00  0.00    -0.273 OA
ENDROOT
BRANCH   2   7
HETATM    7  N   UNK N   1      37.314  13.375  11.186  0.00  0.00    -0.114 N 
HETATM    8  O   UNK N   1      37.416  12.311  11.718  0.00  0.00    -0.534 OA
HETATM    9  O   UNK N   1      38.149  13.685  10.217  0.00  0.00    -0.534 OA
ENDBRANCH   2   7
BRANCH   2  10
HETATM   10  N   UNK N   1      35.727  14.157  12.935  0.00  0.00    -0.114 N 
HETATM   11  O   UNK N   1      34.699  13.588  13.148  0.00  0.00    -0.534 OA
HETATM   12  O   UNK N   1      36.423  14.612  13.953  0.00  0.00    -0.534 OA
ENDBRANCH   2  10
BRANCH   5  13
HETATM   13  C   UNK N   1      33.445  16.272   8.905  0.00  0.00     0.188 C 
HETATM   14 Br   UNK N   1      32.767  17.878   8.052  0.00  0.00    -0.087 Br
ENDBRANCH   5  13
TORSDOF 3
ENDMDL
MODEL 8
REMARK VINA RESULT:      -4.7     11.680     12.978
REMARK  3 active torsions:
REMARK  status: ('A' for Active; 'I' for Inactive)
REMARK    1  A    between atoms: C_2  and  N_9 
REMARK    2  A    between atoms: C_2  and  N_12 
REMARK       I    between atoms: N_4  and  C_5 
REMARK    3  A    between atoms: C_5  and  C_7 
ROOT
HETATM    1  C   UNK N   1      20.877  15.843   8.544  0.00  0.00     0.194 A 
HETATM    2  C   UNK N   1      19.734  16.839   8.175  0.00  0.00     0.261 A 
HETATM    3  C   UNK N   1      19.917  16.440   6.681  0.00  0.00     0.194 A 
HETATM    4  N   UNK N   1      20.886  15.528   7.163  0.00  0.00    -0.342 N 
HETATM    5  C   UNK N   1      21.554  14.558   6.491  0.00  0.00     0.230 C 
HETATM    6  O   UNK N   1      21.398  14.431   5.287  0.00  0.00    -0.273 OA
ENDROOT
BRANCH   2   7
HETATM    7  N   UNK N   1      20.071  18.243   8.423  0.00  0.00    -0.114 N 
HETATM    8  O   UNK N   1      19.810  18.736   9.479  0.00  0.00    -0.534 OA
HETATM    9  O   UNK N   1      20.730  18.955   7.534  0.00  0.00    -0.534 OA
ENDBRANCH   2   7
BRANCH   2  10
HETATM   10  N   UNK N   1      18.449  16.378   8.703  0.00  0.00    -0.114 N 
HETATM   11  O   UNK N   1      17.435  16.820   8.253  0.00  0.00    -0.534 OA
HETATM   12  O   UNK N   1      18.379  15.438   9.621  0.00  0.00    -0.534 OA
ENDBRANCH   2  10
BRANCH   5  13
HETATM   13  C   UNK N   1      22.459  13.616   7.218  0.00  0.00     0.188 C 
HETATM   14 Br   UNK N   1      21.918  11.788   6.857  0.00  0.00    -0.087 Br
ENDBRANCH   5  13
TORSDOF 3
ENDMDL
MODEL 9
REMARK VINA RESULT:      -4.7      1.867      3.187
REMARK  3 active torsions:
REMARK  status: ('A' for Active; 'I' for Inactive)
REMARK    1  A    between atoms: C_2  and  N_9 
REMARK    2  A    between atoms: C_2  and  N_12 
REMARK       I    between atoms: N_4  and  C_5 
REMARK    3  A    between atoms: C_5  and  C_7 
ROOT
HETATM    1  C   UNK N   1      31.207  16.964   6.668  0.00  0.00     0.194 A 
HETATM    2  C   UNK N   1      32.612  16.978   7.347  0.00  0.00     0.261 A 
HETATM    3  C   UNK N   1      31.998  17.801   8.518  0.00  0.00     0.194 A 
HETATM    4  N   UNK N   1      30.772  17.652   7.827  0.00  0.00    -0.342 N 
HETATM    5  C   UNK N   1      29.521  17.990   8.225  0.00  0.00     0.230 C 
HETATM    6  O   UNK N   1      29.354  18.562   9.291  0.00  0.00    -0.273 OA
ENDROOT
BRANCH   2   7
HETATM    7  N   UNK N   1      33.621  17.735   6.602  0.00  0.00    -0.114 N 
HETATM    8  O   UNK N   1      34.544  18.220   7.183  0.00  0.00    -0.534 OA
HETATM    9  O   UNK N   1      33.576  17.826   5.290  0.00  0.00    -0.534 OA
ENDBRANCH   2   7
BRANCH   2  10
HETATM   10  N   UNK N   1      32.997  15.632   7.777  0.00  0.00    -0.114 N 
HETATM   11  O   UNK N   1      33.162  15.410   8.938  0.00  0.00    -0.534 OA
HETATM   12  O   UNK N   1      33.106  14.641   6.920  0.00  0.00    -0.534 OA
ENDBRANCH   2  10
BRANCH   5  13
HETATM   13  C   UNK N   1      28.335  17.638   7.386  0.00  0.00     0.188 C 
HETATM   14 Br   UNK N   1      27.789  19.186   6.351  0.00  0.00    -0.087 Br
ENDBRANCH   5  13
TORSDOF 3
ENDMDL
