REMARK  28 active torsions:
REMARK  status: ('A' for Active; 'I' for Inactive)
REMARK    1  A    between atoms: C_2  and  C_3 
REMARK    2  A    between atoms: C_3  and  C_5 
REMARK    3  A    between atoms: C_5  and  C_6 
REMARK    4  A    between atoms: C_5  and  N_32 
REMARK       I    between atoms: C_6  and  N_8 
REMARK    5  A    between atoms: C_9  and  N_8 
REMARK    6  A    between atoms: C_9  and  C_10 
REMARK    7  A    between atoms: C_9  and  C_17 
REMARK    8  A    between atoms: C_10  and  C_11 
REMARK       I    between atoms: C_17  and  N_19 
REMARK    9  A    between atoms: C_23  and  C_24 
REMARK       I    between atoms: C_24  and  N_26 
REMARK   10  A    between atoms: N_26  and  C_27 
REMARK   11  A    between atoms: C_27  and  C_29 
REMARK   12  A    between atoms: C_29  and  O_31 
REMARK       I    between atoms: N_32  and  C_33 
REMARK   13  A    between atoms: C_33  and  C_35 
REMARK   14  A    between atoms: C_35  and  C_36 
REMARK   15  A    between atoms: C_35  and  N_44 
REMARK   16  A    between atoms: C_36  and  C_37 
REMARK   17  A    between atoms: C_40  and  O_43 
REMARK       I    between atoms: N_44  and  C_45 
REMARK   18  A    between atoms: C_45  and  C_47 
REMARK   19  A    between atoms: C_47  and  C_48 
REMARK   20  A    between atoms: C_47  and  N_51 
REMARK       I    between atoms: N_51  and  C_52 
REMARK   21  A    between atoms: C_52  and  C_54 
REMARK   22  A    between atoms: C_54  and  C_55 
REMARK   23  A    between atoms: C_54  and  N_63 
REMARK   24  A    between atoms: C_55  and  C_56 
REMARK   25  A    between atoms: C_56  and  C_57 
REMARK   26  A    between atoms: C_57  and  N_58 
REMARK       I    between atoms: N_58  and  C_59 
REMARK       I    between atoms: C_59  and  N_62 
REMARK       I    between atoms: N_63  and  C_64 
REMARK   27  A    between atoms: C_64  and  C_66 
REMARK   28  A    between atoms: C_66  and  N_67 
ROOT
HETATM    1  C   UNK N   1       7.897  -7.797  -0.135  0.00  0.00     0.180 C 
ENDROOT
BRANCH   1   2
HETATM    2  C   UNK N   1       7.072  -6.662   0.422  0.00  0.00     0.241 C 
HETATM    3  N   UNK N   1       6.585  -5.717  -0.417  0.00  0.00    -0.346 N 
HETATM    4  H   UNK N   1       6.736  -5.839  -1.383  0.00  0.00     0.163 HD
HETATM    5  O   UNK N   1       6.880  -6.593   1.624  0.00  0.00    -0.271 OA
BRANCH   3   6
HETATM    6  C   UNK N   1       5.860  -4.543   0.007  0.00  0.00     0.180 C 
BRANCH   6   7
HETATM    7  C   UNK N   1       4.516  -4.651   0.738  0.00  0.00     0.013 C 
HETATM    8  C   UNK N   1       4.656  -4.955   2.214  0.00  0.00     0.012 C 
BRANCH   7   9
HETATM    9  C   UNK N   1       3.524  -5.581   0.068  0.00  0.00     0.002 C 
HETATM   10  C   UNK N   1       3.090  -5.023  -1.276  0.00  0.00     0.005 C 
ENDBRANCH   7   9
ENDBRANCH   6   7
BRANCH   6  11
HETATM   11  C   UNK N   1       6.670  -3.328   0.268  0.00  0.00     0.241 C 
HETATM   12  O   UNK N   1       6.876  -2.954   1.411  0.00  0.00    -0.271 OA
HETATM   13  N   UNK N   1       6.914  -2.538  -0.797  0.00  0.00    -0.346 N 
HETATM   14  H   UNK N   1       6.994  -2.998  -1.664  0.00  0.00     0.163 HD
BRANCH  13  15
HETATM   15  C   UNK N   1       7.074  -1.103  -0.828  0.00  0.00     0.182 C 
BRANCH  15  16
HETATM   16  C   UNK N   1       7.276  -0.438   0.540  0.00  0.00     0.093 C 
BRANCH  16  17
HETATM   17  C   UNK N   1       8.002   0.862   0.461  0.00  0.00     0.028 A 
HETATM   18  C   UNK N   1       7.582   1.999  -0.181  0.00  0.00     0.114 A 
HETATM   19  N   UNK N   1       8.522   2.944   0.005  0.00  0.00    -0.360 N 
HETATM   20  C   UNK N   1       9.486   2.367   0.754  0.00  0.00     0.180 A 
ATOM     21  HN  UNK N   1       8.509   3.901  -0.347  1.00  0.00     0.166 HD
HETATM   22  N   UNK N   1       9.187   1.087   1.050  0.00  0.00    -0.354 N 
HETATM   23  H   UNK N   1       9.721   0.454   1.582  0.00  0.00     0.166 HD
ENDBRANCH  16  17
ENDBRANCH  15  16
BRANCH  15  24
HETATM   24  C   UNK N   1       5.831  -0.696  -1.581  0.00  0.00     0.243 C 
HETATM   25  O   UNK N   1       5.948  -0.355  -2.743  0.00  0.00    -0.271 OA
HETATM   26  N   UNK N   1       4.585  -0.930  -1.051  0.00  0.00    -0.337 N 
HETATM   27  C   UNK N   1       3.406  -0.950  -1.878  0.00  0.00     0.127 C 
HETATM   28  C   UNK N   1       4.320  -1.099   0.355  0.00  0.00     0.179 C 
HETATM   29  C   UNK N   1       2.269  -1.325  -0.936  0.00  0.00     0.022 C 
HETATM   30  C   UNK N   1       2.917  -1.681   0.400  0.00  0.00     0.037 C 
BRANCH  28  31
HETATM   31  C   UNK N   1       4.279   0.299   0.924  0.00  0.00     0.241 C 
HETATM   32  O   UNK N   1       4.852   0.568   1.969  0.00  0.00    -0.271 OA
HETATM   33  N   UNK N   1       3.706   1.270   0.169  0.00  0.00    -0.345 N 
HETATM   34  H   UNK N   1       3.237   0.988  -0.649  0.00  0.00     0.163 HD
BRANCH  33  35
HETATM   35  C   UNK N   1       3.728   2.673   0.465  0.00  0.00     0.178 C 
HETATM   36  C   UNK N   1       4.621   3.353  -0.557  0.00  0.00     0.043 C 
BRANCH  35  37
HETATM   37  C   UNK N   1       2.341   3.203   0.307  0.00  0.00     0.163 C 
HETATM   38  O   UNK N   1       1.815   3.810   1.223  0.00  0.00    -0.648 OA
BRANCH  37  39
HETATM   39  O   UNK N   1       1.668   3.013  -0.847  0.00  0.00    -0.775 OA
HETATM   40  H   UNK N   1       1.320   3.352  -1.648  0.00  0.00     0.167 HD
ENDBRANCH  37  39
ENDBRANCH  35  37
ENDBRANCH  33  35
ENDBRANCH  28  31
ENDBRANCH  15  24
ENDBRANCH  13  15
ENDBRANCH   6  11
ENDBRANCH   3   6
ENDBRANCH   1   2
BRANCH   1  41
HETATM   41  C   UNK N   1       7.137  -8.563  -1.222  0.00  0.00     0.073 C 
BRANCH  41  42
HETATM   42  C   UNK N   1       5.768  -8.939  -0.755  0.00  0.00    -0.056 A 
HETATM   43  C   UNK N   1       5.597  -9.802   0.335  0.00  0.00     0.010 A 
HETATM   44  C   UNK N   1       4.313 -10.071   0.816  0.00  0.00     0.037 A 
HETATM   45  C   UNK N   1       3.201  -9.474   0.214  0.00  0.00     0.065 A 
HETATM   46  C   UNK N   1       3.371  -8.624  -0.882  0.00  0.00     0.037 A 
HETATM   47  C   UNK N   1       4.654  -8.354  -1.364  0.00  0.00     0.010 A 
BRANCH  45  48
HETATM   48  O   UNK N   1       1.969  -9.715   0.690  0.00  0.00    -0.361 OA
HETATM   49  H   UNK N   1       1.394  -9.054   1.022  0.00  0.00     0.217 HD
ENDBRANCH  45  48
ENDBRANCH  41  42
ENDBRANCH   1  41
BRANCH   1  50
HETATM   50  N   UNK N   1       9.222  -7.413  -0.621  0.00  0.00    -0.346 N 
HETATM   51  C   UNK N   1       9.835  -6.208  -0.442  0.00  0.00     0.241 C 
HETATM   52  O   UNK N   1       9.258  -5.296   0.132  0.00  0.00    -0.271 OA
HETATM   53  H   UNK N   1       9.721  -8.093  -1.129  0.00  0.00     0.163 HD
BRANCH  51  54
HETATM   54  C   UNK N   1      11.262  -5.983  -0.921  0.00  0.00     0.180 C 
BRANCH  54  55
HETATM   55  C   UNK N   1      12.255  -7.041  -0.415  0.00  0.00     0.009 C 
HETATM   56  C   UNK N   1      13.668  -6.697  -0.852  0.00  0.00     0.012 C 
HETATM   57  C   UNK N   1      11.924  -8.409  -0.987  0.00  0.00     0.012 C 
ENDBRANCH  54  55
BRANCH  54  58
HETATM   58  N   UNK N   1      11.679  -4.641  -0.541  0.00  0.00    -0.346 N 
HETATM   59  C   UNK N   1      11.747  -4.205   0.750  0.00  0.00     0.241 C 
HETATM   60  O   UNK N   1      11.568  -4.973   1.685  0.00  0.00    -0.271 OA
HETATM   61  H   UNK N   1      11.925  -4.012  -1.257  0.00  0.00     0.163 HD
BRANCH  59  62
HETATM   62  C   UNK N   1      11.835  -2.736   1.012  0.00  0.00     0.176 C 
BRANCH  62  63
HETATM   63  C   UNK N   1      13.249  -2.147   0.928  0.00  0.00     0.036 C 
BRANCH  63  64
HETATM   64  C   UNK N   1      14.282  -2.987   0.176  0.00  0.00     0.023 C 
BRANCH  64  65
HETATM   65  C   UNK N   1      14.844  -2.270  -1.050  0.00  0.00     0.138 C 
BRANCH  65  66
HETATM   66  N   UNK N   1      15.062  -0.860  -0.806  0.00  0.00    -0.227 N 
HETATM   67  C   UNK N   1      15.940  -0.363   0.193  0.00  0.00     0.665 C 
HETATM   68  N   UNK N   1      16.655  -1.163   0.896  0.00  0.00    -0.235 N 
HETATM   69  N   UNK N   1      15.974   1.022   0.460  0.00  0.00    -0.235 N 
HETATM   70  H   UNK N   1      16.397  -1.945   1.436  0.00  0.00     0.174 HD
ATOM     71  HN  UNK N   1      17.653  -0.955   0.896  1.00  0.00     0.174 HD
HETATM   72  H   UNK N   1      16.822   1.485   0.647  0.00  0.00     0.174 HD
HETATM   73  H   UNK N   1      15.133   1.535   0.460  0.00  0.00     0.174 HD
HETATM   74  H   UNK N   1      14.575  -0.210  -1.362  0.00  0.00     0.177 HD
ENDBRANCH  65  66
ENDBRANCH  64  65
ENDBRANCH  63  64
ENDBRANCH  62  63
BRANCH  62  75
HETATM   75  N   UNK N   1      10.794  -2.094   0.217  0.00  0.00    -0.346 N 
HETATM   76  C   UNK N   1      10.879  -1.088  -0.696  0.00  0.00     0.235 C 
HETATM   77  O   UNK N   1       9.893  -0.810  -1.353  0.00  0.00    -0.272 OA
HETATM   78  H   UNK N   1       9.886  -2.443   0.365  0.00  0.00     0.163 HD
BRANCH  76  79
HETATM   79  C   UNK N   1      12.122  -0.311  -0.954  0.00  0.00     0.216 C 
BRANCH  79  80
HETATM   80  N   UNK N   1      12.355   0.615   0.139  0.00  0.00    -0.417 N 
HETATM   81  C   UNK N   1      12.804   1.856  -0.463  0.00  0.00     0.140 C 
HETATM   82  H   UNK N   1      12.229   0.430   1.135  0.00  0.00     0.153 HD
ENDBRANCH  79  80
ENDBRANCH  76  79
ENDBRANCH  62  75
ENDBRANCH  59  62
ENDBRANCH  54  58
ENDBRANCH  51  54
ENDBRANCH   1  50
TORSDOF 28
