MODEL 1
REMARK VINA RESULT:      -7.9      0.000      0.000
REMARK  9 active torsions:
REMARK  status: ('A' for Active; 'I' for Inactive)
REMARK    1  A    between atoms: C_5  and  O_9 
REMARK    2  A    between atoms: O_9  and  C_10 
REMARK    3  A    between atoms: C_13  and  N_17 
REMARK    4  A    between atoms: N_17  and  C_18 
REMARK    5  A    between atoms: C_21  and  C_30 
REMARK    6  A    between atoms: C_31  and  C_32 
REMARK    7  A    between atoms: C_32  and  N_33 
REMARK       I    between atoms: N_33  and  C_34 
REMARK    8  A    between atoms: C_34  and  C_36 
REMARK    9  A    between atoms: C_36  and  O_37 
ROOT
HETATM    1  C   UNK N   1      21.396  17.134   3.359  0.00  0.00     0.119 A 
HETATM    2  C   UNK N   1      21.910  18.416   3.200  0.00  0.00     0.035 A 
HETATM    3  C   UNK N   1      23.223  18.693   3.523  0.00  0.00     0.029 A 
HETATM    4  C   UNK N   1      23.734  19.972   3.368  0.00  0.00    -0.035 A 
HETATM    5  C   UNK N   1      22.932  21.010   2.880  0.00  0.00     0.013 A 
HETATM    6  C   UNK N   1      21.595  20.741   2.546  0.00  0.00     0.031 A 
HETATM    7  C   UNK N   1      21.086  19.446   2.706  0.00  0.00     0.047 A 
HETATM    8  N   UNK N   1      19.792  19.176   2.387  0.00  0.00    -0.352 N 
ATOM      9  HN  UNK N   1      19.192  19.919   2.028  1.00  0.00     0.166 HD
HETATM   10  C   UNK N   1      19.295  17.925   2.544  0.00  0.00     0.182 A 
HETATM   11  N   UNK N   1      20.084  16.932   3.021  0.00  0.00    -0.338 N 
ATOM     12  HN  UNK N   1      19.686  16.001   3.133  1.00  0.00     0.168 HD
ENDROOT
BRANCH   1  13
HETATM   13  N   UNK N   1      22.207  16.053   3.866  0.00  0.00    -0.342 N 
HETATM   14  H   UNK N   1      23.060  15.853   3.415  0.00  0.00     0.167 HD
BRANCH  13  15
HETATM   15  C   UNK N   1      21.829  15.262   4.994  0.00  0.00     0.034 A 
HETATM   16  C   UNK N   1      21.819  13.862   4.983  0.00  0.00     0.032 A 
HETATM   17  C   UNK N   1      21.458  13.162   6.159  0.00  0.00     0.040 A 
HETATM   18  C   UNK N   1      21.102  13.848   7.350  0.00  0.00     0.082 A 
HETATM   19  C   UNK N   1      21.098  15.277   7.298  0.00  0.00    -0.026 A 
HETATM   20  C   UNK N   1      21.458  15.905   6.148  0.00  0.00     0.039 A 
HETATM   21  C   UNK N   1      20.714  16.246   8.343  0.00  0.00     0.051 C 
BRANCH  18  22
HETATM   22  O   UNK N   1      20.768  13.074   8.441  0.00  0.00    -0.309 OA
BRANCH  22  23
HETATM   23  C   UNK N   1      21.383  12.769   9.628  0.00  0.00     0.091 A 
HETATM   24  C   UNK N   1      22.779  12.823   9.710  0.00  0.00     0.040 A 
HETATM   25  C   UNK N   1      23.430  12.482  10.904  0.00  0.00     0.027 A 
HETATM   26  C   UNK N   1      22.671  12.085  12.009  0.00  0.00     0.005 A 
HETATM   27  C   UNK N   1      23.329  11.686  13.280  0.00  0.00     0.068 C 
HETATM   28  N   UNK N   1      21.322  12.067  11.926  0.00  0.00    -0.367 N 
HETATM   29  C   UNK N   1      20.687  12.414  10.781  0.00  0.00     0.125 A 
ATOM     30  HN  UNK N   1      20.772  11.787  12.739  1.00  0.00     0.165 HD
ENDBRANCH  22  23
ENDBRANCH  18  22
ENDBRANCH  13  15
ENDBRANCH   1  13
BRANCH   4  31
HETATM   31  C   UNK N   1      25.118  20.100   3.749  0.00  0.00     0.009 C 
HETATM   32  C   UNK N   1      26.243  19.469   3.416  0.00  0.00    -0.007 C 
BRANCH  32  33
HETATM   33  C   UNK N   1      27.503  19.969   4.100  0.00  0.00     0.149 C 
BRANCH  33  34
HETATM   34  N   UNK N   1      27.793  19.080   5.213  0.00  0.00    -0.356 N 
HETATM   35  C   UNK N   1      27.793  19.370   6.524  0.00  0.00     0.241 C 
HETATM   36  O   UNK N   1      27.529  20.494   6.921  0.00  0.00    -0.271 OA
HETATM   37  H   UNK N   1      28.017  18.151   4.977  0.00  0.00     0.162 HD
BRANCH  35  38
HETATM   38  C   UNK N   1      28.131  18.259   7.472  0.00  0.00     0.269 C 
BRANCH  38  39
HETATM   39  O   UNK N   1      27.976  18.621   8.806  0.00  0.00    -0.387 OA
HETATM   40  C   UNK N   1      28.940  17.862   9.470  0.00  0.00     0.202 C 
ENDBRANCH  38  39
ENDBRANCH  35  38
ENDBRANCH  33  34
ENDBRANCH  32  33
ENDBRANCH   4  31
TORSDOF 9
ENDMDL
MODEL 2
REMARK VINA RESULT:      -7.9      3.227      8.457
REMARK  9 active torsions:
REMARK  status: ('A' for Active; 'I' for Inactive)
REMARK    1  A    between atoms: C_5  and  O_9 
REMARK    2  A    between atoms: O_9  and  C_10 
REMARK    3  A    between atoms: C_13  and  N_17 
REMARK    4  A    between atoms: N_17  and  C_18 
REMARK    5  A    between atoms: C_21  and  C_30 
REMARK    6  A    between atoms: C_31  and  C_32 
REMARK    7  A    between atoms: C_32  and  N_33 
REMARK       I    between atoms: N_33  and  C_34 
REMARK    8  A    between atoms: C_34  and  C_36 
REMARK    9  A    between atoms: C_36  and  O_37 
ROOT
HETATM    1  C   UNK N   1      26.175  18.698   4.964  0.00  0.00     0.119 A 
HETATM    2  C   UNK N   1      24.843  18.828   4.588  0.00  0.00     0.035 A 
HETATM    3  C   UNK N   1      23.865  18.057   5.182  0.00  0.00     0.029 A 
HETATM    4  C   UNK N   1      22.538  18.185   4.805  0.00  0.00    -0.035 A 
HETATM    5  C   UNK N   1      22.160  19.098   3.813  0.00  0.00     0.013 A 
HETATM    6  C   UNK N   1      23.145  19.889   3.201  0.00  0.00     0.031 A 
HETATM    7  C   UNK N   1      24.485  19.754   3.589  0.00  0.00     0.047 A 
HETATM    8  N   UNK N   1      25.446  20.515   3.001  0.00  0.00    -0.352 N 
ATOM      9  HN  UNK N   1      25.189  21.187   2.278  1.00  0.00     0.166 HD
HETATM   10  C   UNK N   1      26.743  20.384   3.371  0.00  0.00     0.182 A 
HETATM   11  N   UNK N   1      27.093  19.493   4.329  0.00  0.00    -0.338 N 
ATOM     12  HN  UNK N   1      28.075  19.411   4.588  1.00  0.00     0.168 HD
ENDROOT
BRANCH   1  13
HETATM   13  N   UNK N   1      26.584  17.758   5.980  0.00  0.00    -0.342 N 
HETATM   14  H   UNK N   1      25.892  17.220   6.430  0.00  0.00     0.167 HD
BRANCH  13  15
HETATM   15  C   UNK N   1      27.948  17.571   6.362  0.00  0.00     0.034 A 
HETATM   16  C   UNK N   1      28.874  16.864   5.584  0.00  0.00     0.032 A 
HETATM   17  C   UNK N   1      30.213  16.755   6.029  0.00  0.00     0.040 A 
HETATM   18  C   UNK N   1      30.639  17.344   7.248  0.00  0.00     0.082 A 
HETATM   19  C   UNK N   1      29.647  18.027   8.020  0.00  0.00    -0.026 A 
HETATM   20  C   UNK N   1      28.375  18.110   7.549  0.00  0.00     0.039 A 
HETATM   21  C   UNK N   1      29.776  18.671   9.341  0.00  0.00     0.051 C 
BRANCH  18  22
HETATM   22  O   UNK N   1      31.965  17.182   7.591  0.00  0.00    -0.309 OA
BRANCH  22  23
HETATM   23  C   UNK N   1      32.625  16.507   8.586  0.00  0.00     0.091 A 
HETATM   24  C   UNK N   1      33.921  16.900   8.937  0.00  0.00     0.040 A 
HETATM   25  C   UNK N   1      34.627  16.201   9.928  0.00  0.00     0.027 A 
HETATM   26  C   UNK N   1      34.023  15.108  10.557  0.00  0.00     0.005 A 
HETATM   27  C   UNK N   1      34.753  14.326  11.587  0.00  0.00     0.068 C 
HETATM   28  N   UNK N   1      32.759  14.758  10.229  0.00  0.00    -0.367 N 
HETATM   29  C   UNK N   1      32.066  15.442   9.287  0.00  0.00     0.125 A 
ATOM     30  HN  UNK N   1      32.319  13.966  10.699  1.00  0.00     0.165 HD
ENDBRANCH  22  23
ENDBRANCH  18  22
ENDBRANCH  13  15
ENDBRANCH   1  13
BRANCH   4  31
HETATM   31  C   UNK N   1      21.640  17.312   5.516  0.00  0.00     0.009 C 
HETATM   32  C   UNK N   1      21.273  17.181   6.790  0.00  0.00    -0.007 C 
BRANCH  32  33
HETATM   33  C   UNK N   1      20.266  16.082   7.075  0.00  0.00     0.149 C 
BRANCH  33  34
HETATM   34  N   UNK N   1      20.655  15.425   8.311  0.00  0.00    -0.356 N 
HETATM   35  C   UNK N   1      20.700  14.109   8.570  0.00  0.00     0.241 C 
HETATM   36  O   UNK N   1      20.392  13.289   7.720  0.00  0.00    -0.271 OA
HETATM   37  H   UNK N   1      20.919  16.020   9.051  0.00  0.00     0.162 HD
BRANCH  35  38
HETATM   38  C   UNK N   1      21.140  13.694   9.942  0.00  0.00     0.269 C 
BRANCH  38  39
HETATM   39  O   UNK N   1      22.520  13.554  10.046  0.00  0.00    -0.387 OA
HETATM   40  C   UNK N   1      22.680  12.486  10.930  0.00  0.00     0.202 C 
ENDBRANCH  38  39
ENDBRANCH  35  38
ENDBRANCH  33  34
ENDBRANCH  32  33
ENDBRANCH   4  31
TORSDOF 9
ENDMDL
MODEL 3
REMARK VINA RESULT:      -7.7      9.742     15.318
REMARK  9 active torsions:
REMARK  status: ('A' for Active; 'I' for Inactive)
REMARK    1  A    between atoms: C_5  and  O_9 
REMARK    2  A    between atoms: O_9  and  C_10 
REMARK    3  A    between atoms: C_13  and  N_17 
REMARK    4  A    between atoms: N_17  and  C_18 
REMARK    5  A    between atoms: C_21  and  C_30 
REMARK    6  A    between atoms: C_31  and  C_32 
REMARK    7  A    between atoms: C_32  and  N_33 
REMARK       I    between atoms: N_33  and  C_34 
REMARK    8  A    between atoms: C_34  and  C_36 
REMARK    9  A    between atoms: C_36  and  O_37 
ROOT
HETATM    1  C   UNK N   1      36.427  13.990  13.394  0.00  0.00     0.119 A 
HETATM    2  C   UNK N   1      35.679  12.949  13.934  0.00  0.00     0.035 A 
HETATM    3  C   UNK N   1      35.103  11.999  13.115  0.00  0.00     0.029 A 
HETATM    4  C   UNK N   1      34.355  10.964  13.653  0.00  0.00    -0.035 A 
HETATM    5  C   UNK N   1      34.168  10.858  15.036  0.00  0.00     0.013 A 
HETATM    6  C   UNK N   1      34.748  11.818  15.880  0.00  0.00     0.031 A 
HETATM    7  C   UNK N   1      35.503  12.862  15.328  0.00  0.00     0.047 A 
HETATM    8  N   UNK N   1      36.069  13.797  16.137  0.00  0.00    -0.352 N 
ATOM      9  HN  UNK N   1      35.945  13.736  17.148  1.00  0.00     0.166 HD
HETATM   10  C   UNK N   1      36.796  14.810  15.607  0.00  0.00     0.182 A 
HETATM   11  N   UNK N   1      36.966  14.900  14.266  0.00  0.00    -0.338 N 
ATOM     12  HN  UNK N   1      37.515  15.673  13.892  1.00  0.00     0.168 HD
ENDROOT
BRANCH   1  13
HETATM   13  N   UNK N   1      36.626  14.118  11.971  0.00  0.00    -0.342 N 
HETATM   14  H   UNK N   1      37.404  13.673  11.562  0.00  0.00     0.167 HD
BRANCH  13  15
HETATM   15  C   UNK N   1      35.742  14.859  11.126  0.00  0.00     0.034 A 
HETATM   16  C   UNK N   1      35.813  16.248  10.972  0.00  0.00     0.032 A 
HETATM   17  C   UNK N   1      34.913  16.894  10.090  0.00  0.00     0.040 A 
HETATM   18  C   UNK N   1      33.938  16.164   9.360  0.00  0.00     0.082 A 
HETATM   19  C   UNK N   1      33.889  14.751   9.579  0.00  0.00    -0.026 A 
HETATM   20  C   UNK N   1      34.777  14.176  10.432  0.00  0.00     0.039 A 
HETATM   21  C   UNK N   1      32.953  13.754   9.022  0.00  0.00     0.051 C 
BRANCH  18  22
HETATM   22  O   UNK N   1      33.111  16.886   8.526  0.00  0.00    -0.309 OA
BRANCH  22  23
HETATM   23  C   UNK N   1      32.843  16.861   7.181  0.00  0.00     0.091 A 
HETATM   24  C   UNK N   1      33.743  17.460   6.293  0.00  0.00     0.040 A 
HETATM   25  C   UNK N   1      33.472  17.477   4.917  0.00  0.00     0.027 A 
HETATM   26  C   UNK N   1      32.293  16.893   4.444  0.00  0.00     0.005 A 
HETATM   27  C   UNK N   1      31.958  16.922   2.997  0.00  0.00     0.068 C 
HETATM   28  N   UNK N   1      31.447  16.292   5.310  0.00  0.00    -0.367 N 
HETATM   29  C   UNK N   1      31.714  16.255   6.638  0.00  0.00     0.125 A 
ATOM     30  HN  UNK N   1      30.592  15.858   4.958  1.00  0.00     0.165 HD
ENDBRANCH  22  23
ENDBRANCH  18  22
ENDBRANCH  13  15
ENDBRANCH   1  13
BRANCH   4  31
HETATM   31  C   UNK N   1      33.821  10.055  12.670  0.00  0.00     0.009 C 
HETATM   32  C   UNK N   1      34.266   9.553  11.519  0.00  0.00    -0.007 C 
BRANCH  32  33
HETATM   33  C   UNK N   1      33.319   8.603  10.807  0.00  0.00     0.149 C 
BRANCH  33  34
HETATM   34  N   UNK N   1      33.436   8.841   9.378  0.00  0.00    -0.356 N 
HETATM   35  C   UNK N   1      32.599   9.526   8.584  0.00  0.00     0.241 C 
HETATM   36  O   UNK N   1      31.591  10.049   9.031  0.00  0.00    -0.271 OA
HETATM   37  H   UNK N   1      34.226   8.450   8.939  0.00  0.00     0.162 HD
BRANCH  35  38
HETATM   38  C   UNK N   1      32.957   9.620   7.130  0.00  0.00     0.269 C 
BRANCH  38  39
HETATM   39  O   UNK N   1      32.350  10.698   6.494  0.00  0.00    -0.387 OA
HETATM   40  C   UNK N   1      31.771  10.130   5.358  0.00  0.00     0.202 C 
ENDBRANCH  38  39
ENDBRANCH  35  38
ENDBRANCH  33  34
ENDBRANCH  32  33
ENDBRANCH   4  31
TORSDOF 9
ENDMDL
MODEL 4
REMARK VINA RESULT:      -7.6     10.239     15.131
REMARK  9 active torsions:
REMARK  status: ('A' for Active; 'I' for Inactive)
REMARK    1  A    between atoms: C_5  and  O_9 
REMARK    2  A    between atoms: O_9  and  C_10 
REMARK    3  A    between atoms: C_13  and  N_17 
REMARK    4  A    between atoms: N_17  and  C_18 
REMARK    5  A    between atoms: C_21  and  C_30 
REMARK    6  A    between atoms: C_31  and  C_32 
REMARK    7  A    between atoms: C_32  and  N_33 
REMARK       I    between atoms: N_33  and  C_34 
REMARK    8  A    between atoms: C_34  and  C_36 
REMARK    9  A    between atoms: C_36  and  O_37 
ROOT
HETATM    1  C   UNK N   1      37.137  13.437  11.328  0.00  0.00     0.119 A 
HETATM    2  C   UNK N   1      36.714  13.610  10.014  0.00  0.00     0.035 A 
HETATM    3  C   UNK N   1      35.888  14.661   9.674  0.00  0.00     0.029 A 
HETATM    4  C   UNK N   1      35.465  14.832   8.365  0.00  0.00    -0.035 A 
HETATM    5  C   UNK N   1      35.866  13.942   7.361  0.00  0.00     0.013 A 
HETATM    6  C   UNK N   1      36.706  12.869   7.694  0.00  0.00     0.031 A 
HETATM    7  C   UNK N   1      37.130  12.704   9.020  0.00  0.00     0.047 A 
HETATM    8  N   UNK N   1      37.944  11.667   9.353  0.00  0.00    -0.352 N 
ATOM      9  HN  UNK N   1      38.247  11.009   8.634  1.00  0.00     0.166 HD
HETATM   10  C   UNK N   1      38.352  11.501  10.634  0.00  0.00     0.182 A 
HETATM   11  N   UNK N   1      37.953  12.369  11.595  0.00  0.00    -0.338 N 
ATOM     12  HN  UNK N   1      38.271  12.221  12.552  1.00  0.00     0.168 HD
ENDROOT
BRANCH   1  13
HETATM   13  N   UNK N   1      36.729  14.341  12.377  0.00  0.00    -0.342 N 
HETATM   14  H   UNK N   1      36.749  15.309  12.198  0.00  0.00     0.167 HD
BRANCH  13  15
HETATM   15  C   UNK N   1      36.295  13.893  13.663  0.00  0.00     0.034 A 
HETATM   16  C   UNK N   1      36.787  14.415  14.865  0.00  0.00     0.032 A 
HETATM   17  C   UNK N   1      36.276  13.929  16.092  0.00  0.00     0.040 A 
HETATM   18  C   UNK N   1      35.277  12.921  16.132  0.00  0.00     0.082 A 
HETATM   19  C   UNK N   1      34.833  12.399  14.877  0.00  0.00    -0.026 A 
HETATM   20  C   UNK N   1      35.350  12.901  13.724  0.00  0.00     0.039 A 
HETATM   21  C   UNK N   1      33.868  11.315  14.608  0.00  0.00     0.051 C 
BRANCH  18  22
HETATM   22  O   UNK N   1      34.845  12.518  17.378  0.00  0.00    -0.309 OA
BRANCH  22  23
HETATM   23  C   UNK N   1      35.408  11.805  18.406  0.00  0.00     0.091 A 
HETATM   24  C   UNK N   1      36.025  10.579  18.133  0.00  0.00     0.040 A 
HETATM   25  C   UNK N   1      36.576   9.818  19.174  0.00  0.00     0.027 A 
HETATM   26  C   UNK N   1      36.498  10.295  20.486  0.00  0.00     0.005 A 
HETATM   27  C   UNK N   1      37.041   9.500  21.617  0.00  0.00     0.068 C 
HETATM   28  N   UNK N   1      35.926  11.495  20.732  0.00  0.00    -0.367 N 
HETATM   29  C   UNK N   1      35.410  12.243  19.728  0.00  0.00     0.125 A 
ATOM     30  HN  UNK N   1      35.881  11.843  21.691  1.00  0.00     0.165 HD
ENDBRANCH  22  23
ENDBRANCH  18  22
ENDBRANCH  13  15
ENDBRANCH   1  13
BRANCH   4  31
HETATM   31  C   UNK N   1      34.608  15.973   8.171  0.00  0.00     0.009 C 
HETATM   32  C   UNK N   1      34.035  16.863   8.980  0.00  0.00    -0.007 C 
BRANCH  32  33
HETATM   33  C   UNK N   1      33.189  17.923   8.297  0.00  0.00     0.149 C 
BRANCH  33  34
HETATM   34  N   UNK N   1      31.865  17.895   8.896  0.00  0.00    -0.356 N 
HETATM   35  C   UNK N   1      30.826  17.111   8.568  0.00  0.00     0.241 C 
HETATM   36  O   UNK N   1      30.914  16.291   7.667  0.00  0.00    -0.271 OA
HETATM   37  H   UNK N   1      31.711  18.530   9.633  0.00  0.00     0.162 HD
BRANCH  35  38
HETATM   38  C   UNK N   1      29.560  17.287   9.352  0.00  0.00     0.269 C 
BRANCH  38  39
HETATM   39  O   UNK N   1      29.176  18.619   9.465  0.00  0.00    -0.387 OA
HETATM   40  C   UNK N   1      28.178  18.761   8.501  0.00  0.00     0.202 C 
ENDBRANCH  38  39
ENDBRANCH  35  38
ENDBRANCH  33  34
ENDBRANCH  32  33
ENDBRANCH   4  31
TORSDOF 9
ENDMDL
MODEL 5
REMARK VINA RESULT:      -7.6      1.527      2.181
REMARK  9 active torsions:
REMARK  status: ('A' for Active; 'I' for Inactive)
REMARK    1  A    between atoms: C_5  and  O_9 
REMARK    2  A    between atoms: O_9  and  C_10 
REMARK    3  A    between atoms: C_13  and  N_17 
REMARK    4  A    between atoms: N_17  and  C_18 
REMARK    5  A    between atoms: C_21  and  C_30 
REMARK    6  A    between atoms: C_31  and  C_32 
REMARK    7  A    between atoms: C_32  and  N_33 
REMARK       I    between atoms: N_33  and  C_34 
REMARK    8  A    between atoms: C_34  and  C_36 
REMARK    9  A    between atoms: C_36  and  O_37 
ROOT
HETATM    1  C   UNK N   1      21.533  17.652   3.442  0.00  0.00     0.119 A 
HETATM    2  C   UNK N   1      22.684  18.433   3.452  0.00  0.00     0.035 A 
HETATM    3  C   UNK N   1      23.913  17.870   3.730  0.00  0.00     0.029 A 
HETATM    4  C   UNK N   1      25.060  18.648   3.743  0.00  0.00    -0.035 A 
HETATM    5  C   UNK N   1      24.997  20.021   3.475  0.00  0.00     0.013 A 
HETATM    6  C   UNK N   1      23.753  20.606   3.191  0.00  0.00     0.031 A 
HETATM    7  C   UNK N   1      22.598  19.811   3.179  0.00  0.00     0.047 A 
HETATM    8  N   UNK N   1      21.388  20.369   2.906  0.00  0.00    -0.352 N 
ATOM      9  HN  UNK N   1      21.323  21.367   2.707  1.00  0.00     0.166 HD
HETATM   10  C   UNK N   1      20.269  19.605   2.898  0.00  0.00     0.182 A 
HETATM   11  N   UNK N   1      20.347  18.278   3.163  0.00  0.00    -0.338 N 
ATOM     12  HN  UNK N   1      19.490  17.726   3.153  1.00  0.00     0.168 HD
ENDROOT
BRANCH   1  13
HETATM   13  N   UNK N   1      21.579  16.237   3.721  0.00  0.00    -0.342 N 
HETATM   14  H   UNK N   1      21.826  15.621   2.993  0.00  0.00     0.167 HD
BRANCH  13  15
HETATM   15  C   UNK N   1      21.283  15.689   5.008  0.00  0.00     0.034 A 
HETATM   16  C   UNK N   1      21.174  16.467   6.167  0.00  0.00     0.032 A 
HETATM   17  C   UNK N   1      20.849  15.840   7.394  0.00  0.00     0.040 A 
HETATM   18  C   UNK N   1      20.635  14.438   7.476  0.00  0.00     0.082 A 
HETATM   19  C   UNK N   1      20.790  13.687   6.269  0.00  0.00    -0.026 A 
HETATM   20  C   UNK N   1      21.098  14.335   5.114  0.00  0.00     0.039 A 
HETATM   21  C   UNK N   1      20.698  12.229   6.061  0.00  0.00     0.051 C 
BRANCH  18  22
HETATM   22  O   UNK N   1      20.322  13.926   8.717  0.00  0.00    -0.309 OA
BRANCH  22  23
HETATM   23  C   UNK N   1      21.047  13.356   9.732  0.00  0.00     0.091 A 
HETATM   24  C   UNK N   1      20.376  12.673  10.753  0.00  0.00     0.040 A 
HETATM   25  C   UNK N   1      21.096  12.113  11.819  0.00  0.00     0.027 A 
HETATM   26  C   UNK N   1      22.487  12.247  11.852  0.00  0.00     0.005 A 
HETATM   27  C   UNK N   1      23.277  11.695  12.982  0.00  0.00     0.068 C 
HETATM   28  N   UNK N   1      23.125  12.883  10.844  0.00  0.00    -0.367 N 
HETATM   29  C   UNK N   1      22.436  13.409   9.802  0.00  0.00     0.125 A 
ATOM     30  HN  UNK N   1      24.142  12.969  10.867  1.00  0.00     0.165 HD
ENDBRANCH  22  23
ENDBRANCH  18  22
ENDBRANCH  13  15
ENDBRANCH   1  13
BRANCH   4  31
HETATM   31  C   UNK N   1      26.262  17.915   4.049  0.00  0.00     0.009 C 
HETATM   32  C   UNK N   1      26.759  16.735   3.682  0.00  0.00    -0.007 C 
BRANCH  32  33
HETATM   33  C   UNK N   1      28.104  16.373   4.284  0.00  0.00     0.149 C 
BRANCH  33  34
HETATM   34  N   UNK N   1      28.069  16.707   5.698  0.00  0.00    -0.356 N 
HETATM   35  C   UNK N   1      29.050  17.232   6.448  0.00  0.00     0.241 C 
HETATM   36  O   UNK N   1      30.141  17.492   5.966  0.00  0.00    -0.271 OA
HETATM   37  H   UNK N   1      27.220  16.525   6.163  0.00  0.00     0.162 HD
BRANCH  35  38
HETATM   38  C   UNK N   1      28.748  17.481   7.895  0.00  0.00     0.269 C 
BRANCH  38  39
HETATM   39  O   UNK N   1      29.855  17.294   8.717  0.00  0.00    -0.387 OA
HETATM   40  C   UNK N   1      30.081  18.559   9.262  0.00  0.00     0.202 C 
ENDBRANCH  38  39
ENDBRANCH  35  38
ENDBRANCH  33  34
ENDBRANCH  32  33
ENDBRANCH   4  31
TORSDOF 9
ENDMDL
MODEL 6
REMARK VINA RESULT:      -7.5      3.787      8.697
REMARK  9 active torsions:
REMARK  status: ('A' for Active; 'I' for Inactive)
REMARK    1  A    between atoms: C_5  and  O_9 
REMARK    2  A    between atoms: O_9  and  C_10 
REMARK    3  A    between atoms: C_13  and  N_17 
REMARK    4  A    between atoms: N_17  and  C_18 
REMARK    5  A    between atoms: C_21  and  C_30 
REMARK    6  A    between atoms: C_31  and  C_32 
REMARK    7  A    between atoms: C_32  and  N_33 
REMARK       I    between atoms: N_33  and  C_34 
REMARK    8  A    between atoms: C_34  and  C_36 
REMARK    9  A    between atoms: C_36  and  O_37 
ROOT
HETATM    1  C   UNK N   1      25.245  15.409   6.767  0.00  0.00     0.119 A 
HETATM    2  C   UNK N   1      23.907  15.293   6.405  0.00  0.00     0.035 A 
HETATM    3  C   UNK N   1      23.297  16.266   5.640  0.00  0.00     0.029 A 
HETATM    4  C   UNK N   1      21.964  16.152   5.283  0.00  0.00    -0.035 A 
HETATM    5  C   UNK N   1      21.205  15.047   5.689  0.00  0.00     0.013 A 
HETATM    6  C   UNK N   1      21.813  14.049   6.466  0.00  0.00     0.031 A 
HETATM    7  C   UNK N   1      23.163  14.172   6.823  0.00  0.00     0.047 A 
HETATM    8  N   UNK N   1      23.761  13.212   7.577  0.00  0.00    -0.352 N 
ATOM      9  HN  UNK N   1      23.225  12.398   7.881  1.00  0.00     0.166 HD
HETATM   10  C   UNK N   1      25.064  13.329   7.928  0.00  0.00     0.182 A 
HETATM   11  N   UNK N   1      25.783  14.407   7.530  0.00  0.00    -0.338 N 
ATOM     12  HN  UNK N   1      26.761  14.473   7.809  1.00  0.00     0.168 HD
ENDROOT
BRANCH   1  13
HETATM   13  N   UNK N   1      26.040  16.543   6.362  0.00  0.00    -0.342 N 
HETATM   14  H   UNK N   1      25.578  17.349   6.033  0.00  0.00     0.167 HD
BRANCH  13  15
HETATM   15  C   UNK N   1      27.468  16.551   6.419  0.00  0.00     0.034 A 
HETATM   16  C   UNK N   1      28.275  15.785   5.570  0.00  0.00     0.032 A 
HETATM   17  C   UNK N   1      29.683  15.879   5.681  0.00  0.00     0.040 A 
HETATM   18  C   UNK N   1      30.296  16.732   6.637  0.00  0.00     0.082 A 
HETATM   19  C   UNK N   1      29.425  17.468   7.501  0.00  0.00    -0.026 A 
HETATM   20  C   UNK N   1      28.080  17.348   7.353  0.00  0.00     0.039 A 
HETATM   21  C   UNK N   1      29.767  18.370   8.618  0.00  0.00     0.051 C 
BRANCH  18  22
HETATM   22  O   UNK N   1      31.674  16.753   6.663  0.00  0.00    -0.309 OA
BRANCH  22  23
HETATM   23  C   UNK N   1      32.618  16.699   7.657  0.00  0.00     0.091 A 
HETATM   24  C   UNK N   1      32.754  15.526   8.409  0.00  0.00     0.040 A 
HETATM   25  C   UNK N   1      33.688  15.461   9.453  0.00  0.00     0.027 A 
HETATM   26  C   UNK N   1      34.478  16.580   9.736  0.00  0.00     0.005 A 
HETATM   27  C   UNK N   1      35.454  16.557  10.855  0.00  0.00     0.068 C 
HETATM   28  N   UNK N   1      34.357  17.696   8.983  0.00  0.00    -0.367 N 
HETATM   29  C   UNK N   1      33.470  17.757   7.961  0.00  0.00     0.125 A 
ATOM     30  HN  UNK N   1      34.943  18.506   9.187  1.00  0.00     0.165 HD
ENDBRANCH  22  23
ENDBRANCH  18  22
ENDBRANCH  13  15
ENDBRANCH   1  13
BRANCH   4  31
HETATM   31  C   UNK N   1      21.475  17.247   4.486  0.00  0.00     0.009 C 
HETATM   32  C   UNK N   1      20.346  17.492   3.821  0.00  0.00    -0.007 C 
BRANCH  32  33
HETATM   33  C   UNK N   1      20.284  18.828   3.102  0.00  0.00     0.149 C 
BRANCH  33  34
HETATM   34  N   UNK N   1      21.563  19.494   3.279  0.00  0.00    -0.356 N 
HETATM   35  C   UNK N   1      22.148  20.388   2.468  0.00  0.00     0.241 C 
HETATM   36  O   UNK N   1      21.612  20.743   1.430  0.00  0.00    -0.271 OA
HETATM   37  H   UNK N   1      22.061  19.261   4.096  0.00  0.00     0.162 HD
BRANCH  35  38
HETATM   38  C   UNK N   1      23.483  20.926   2.889  0.00  0.00     0.269 C 
BRANCH  38  39
HETATM   39  O   UNK N   1      24.486  20.670   1.960  0.00  0.00    -0.387 OA
HETATM   40  C   UNK N   1      25.648  20.621   2.731  0.00  0.00     0.202 C 
ENDBRANCH  38  39
ENDBRANCH  35  38
ENDBRANCH  33  34
ENDBRANCH  32  33
ENDBRANCH   4  31
TORSDOF 9
ENDMDL
MODEL 7
REMARK VINA RESULT:      -7.4      6.172     12.028
REMARK  9 active torsions:
REMARK  status: ('A' for Active; 'I' for Inactive)
REMARK    1  A    between atoms: C_5  and  O_9 
REMARK    2  A    between atoms: O_9  and  C_10 
REMARK    3  A    between atoms: C_13  and  N_17 
REMARK    4  A    between atoms: N_17  and  C_18 
REMARK    5  A    between atoms: C_21  and  C_30 
REMARK    6  A    between atoms: C_31  and  C_32 
REMARK    7  A    between atoms: C_32  and  N_33 
REMARK       I    between atoms: N_33  and  C_34 
REMARK    8  A    between atoms: C_34  and  C_36 
REMARK    9  A    between atoms: C_36  and  O_37 
ROOT
HETATM    1  C   UNK N   1      34.613  16.879   9.136  0.00  0.00     0.119 A 
HETATM    2  C   UNK N   1      35.112  15.715   8.561  0.00  0.00     0.035 A 
HETATM    3  C   UNK N   1      34.988  15.491   7.205  0.00  0.00     0.029 A 
HETATM    4  C   UNK N   1      35.483  14.330   6.633  0.00  0.00    -0.035 A 
HETATM    5  C   UNK N   1      36.119  13.360   7.416  0.00  0.00     0.013 A 
HETATM    6  C   UNK N   1      36.253  13.576   8.797  0.00  0.00     0.031 A 
HETATM    7  C   UNK N   1      35.750  14.753   9.367  0.00  0.00     0.047 A 
HETATM    8  N   UNK N   1      35.874  14.971  10.704  0.00  0.00    -0.352 N 
ATOM      9  HN  UNK N   1      36.336  14.276  11.291  1.00  0.00     0.166 HD
HETATM   10  C   UNK N   1      35.385  16.106  11.260  0.00  0.00     0.182 A 
HETATM   11  N   UNK N   1      34.768  17.033  10.488  0.00  0.00    -0.338 N 
ATOM     12  HN  UNK N   1      34.407  17.877  10.931  1.00  0.00     0.168 HD
ENDROOT
BRANCH   1  13
HETATM   13  N   UNK N   1      33.949  17.887   8.345  0.00  0.00    -0.342 N 
HETATM   14  H   UNK N   1      34.437  18.716   8.132  0.00  0.00     0.167 HD
BRANCH  13  15
HETATM   15  C   UNK N   1      32.616  17.735   7.853  0.00  0.00     0.034 A 
HETATM   16  C   UNK N   1      32.319  17.263   6.569  0.00  0.00     0.032 A 
HETATM   17  C   UNK N   1      30.966  17.118   6.180  0.00  0.00     0.040 A 
HETATM   18  C   UNK N   1      29.902  17.442   7.062  0.00  0.00     0.082 A 
HETATM   19  C   UNK N   1      30.260  17.949   8.350  0.00  0.00    -0.026 A 
HETATM   20  C   UNK N   1      31.573  18.066   8.681  0.00  0.00     0.039 A 
HETATM   21  C   UNK N   1      29.385  18.427   9.439  0.00  0.00     0.051 C 
BRANCH  18  22
HETATM   22  O   UNK N   1      28.620  17.263   6.587  0.00  0.00    -0.309 OA
BRANCH  22  23
HETATM   23  C   UNK N   1      27.832  17.919   5.676  0.00  0.00     0.091 A 
HETATM   24  C   UNK N   1      28.269  19.138   5.144  0.00  0.00     0.040 A 
HETATM   25  C   UNK N   1      27.463  19.842   4.238  0.00  0.00     0.027 A 
HETATM   26  C   UNK N   1      26.219  19.316   3.876  0.00  0.00     0.005 A 
HETATM   27  C   UNK N   1      25.326  20.052   2.944  0.00  0.00     0.068 C 
HETATM   28  N   UNK N   1      25.822  18.124   4.374  0.00  0.00    -0.367 N 
HETATM   29  C   UNK N   1      26.606  17.430   5.234  0.00  0.00     0.125 A 
ATOM     30  HN  UNK N   1      24.918  17.740   4.097  1.00  0.00     0.165 HD
ENDBRANCH  22  23
ENDBRANCH  18  22
ENDBRANCH  13  15
ENDBRANCH   1  13
BRANCH   4  31
HETATM   31  C   UNK N   1      35.275  14.244   5.210  0.00  0.00     0.009 C 
HETATM   32  C   UNK N   1      35.479  13.304   4.288  0.00  0.00    -0.007 C 
BRANCH  32  33
HETATM   33  C   UNK N   1      35.096  13.681   2.868  0.00  0.00     0.149 C 
BRANCH  33  34
HETATM   34  N   UNK N   1      33.990  14.620   2.935  0.00  0.00    -0.356 N 
HETATM   35  C   UNK N   1      32.675  14.355   2.872  0.00  0.00     0.241 C 
HETATM   36  O   UNK N   1      32.269  13.212   2.742  0.00  0.00    -0.271 OA
HETATM   37  H   UNK N   1      34.234  15.569   3.040  0.00  0.00     0.162 HD
BRANCH  35  38
HETATM   38  C   UNK N   1      31.736  15.520   2.966  0.00  0.00     0.269 C 
BRANCH  38  39
HETATM   39  O   UNK N   1      30.423  15.135   3.221  0.00  0.00    -0.387 OA
HETATM   40  C   UNK N   1      29.669  16.233   2.807  0.00  0.00     0.202 C 
ENDBRANCH  38  39
ENDBRANCH  35  38
ENDBRANCH  33  34
ENDBRANCH  32  33
ENDBRANCH   4  31
TORSDOF 9
ENDMDL
MODEL 8
REMARK VINA RESULT:      -7.4      3.569      8.952
REMARK  9 active torsions:
REMARK  status: ('A' for Active; 'I' for Inactive)
REMARK    1  A    between atoms: C_5  and  O_9 
REMARK    2  A    between atoms: O_9  and  C_10 
REMARK    3  A    between atoms: C_13  and  N_17 
REMARK    4  A    between atoms: N_17  and  C_18 
REMARK    5  A    between atoms: C_21  and  C_30 
REMARK    6  A    between atoms: C_31  and  C_32 
REMARK    7  A    between atoms: C_32  and  N_33 
REMARK       I    between atoms: N_33  and  C_34 
REMARK    8  A    between atoms: C_34  and  C_36 
REMARK    9  A    between atoms: C_36  and  O_37 
ROOT
HETATM    1  C   UNK N   1      26.246  18.713   4.985  0.00  0.00     0.119 A 
HETATM    2  C   UNK N   1      24.922  18.829   4.576  0.00  0.00     0.035 A 
HETATM    3  C   UNK N   1      23.944  18.023   5.122  0.00  0.00     0.029 A 
HETATM    4  C   UNK N   1      22.625  18.137   4.712  0.00  0.00    -0.035 A 
HETATM    5  C   UNK N   1      22.256  19.071   3.737  0.00  0.00     0.013 A 
HETATM    6  C   UNK N   1      23.241  19.898   3.175  0.00  0.00     0.031 A 
HETATM    7  C   UNK N   1      24.572  19.776   3.595  0.00  0.00     0.047 A 
HETATM    8  N   UNK N   1      25.534  20.572   3.056  0.00  0.00    -0.352 N 
ATOM      9  HN  UNK N   1      25.284  21.260   2.345  1.00  0.00     0.166 HD
HETATM   10  C   UNK N   1      26.823  20.455   3.456  0.00  0.00     0.182 A 
HETATM   11  N   UNK N   1      27.165  19.543   4.398  0.00  0.00    -0.338 N 
ATOM     12  HN  UNK N   1      28.142  19.472   4.681  1.00  0.00     0.168 HD
ENDROOT
BRANCH   1  13
HETATM   13  N   UNK N   1      26.646  17.752   5.985  0.00  0.00    -0.342 N 
HETATM   14  H   UNK N   1      25.946  17.242   6.455  0.00  0.00     0.167 HD
BRANCH  13  15
HETATM   15  C   UNK N   1      28.012  17.504   6.322  0.00  0.00     0.034 A 
HETATM   16  C   UNK N   1      28.864  16.709   5.545  0.00  0.00     0.032 A 
HETATM   17  C   UNK N   1      30.212  16.544   5.943  0.00  0.00     0.040 A 
HETATM   18  C   UNK N   1      30.721  17.165   7.114  0.00  0.00     0.082 A 
HETATM   19  C   UNK N   1      29.801  17.940   7.888  0.00  0.00    -0.026 A 
HETATM   20  C   UNK N   1      28.517  18.074   7.463  0.00  0.00     0.039 A 
HETATM   21  C   UNK N   1      30.020  18.638   9.170  0.00  0.00     0.051 C 
BRANCH  18  22
HETATM   22  O   UNK N   1      32.048  16.943   7.413  0.00  0.00    -0.309 OA
BRANCH  22  23
HETATM   23  C   UNK N   1      32.715  16.396   8.480  0.00  0.00     0.091 A 
HETATM   24  C   UNK N   1      33.950  16.931   8.862  0.00  0.00     0.040 A 
HETATM   25  C   UNK N   1      34.665  16.365   9.928  0.00  0.00     0.027 A 
HETATM   26  C   UNK N   1      34.132  15.261  10.601  0.00  0.00     0.005 A 
HETATM   27  C   UNK N   1      34.877  14.617  11.713  0.00  0.00     0.068 C 
HETATM   28  N   UNK N   1      32.924  14.773  10.240  0.00  0.00    -0.367 N 
HETATM   29  C   UNK N   1      32.221  15.328   9.224  0.00  0.00     0.125 A 
ATOM     30  HN  UNK N   1      32.535  13.974  10.741  1.00  0.00     0.165 HD
ENDBRANCH  22  23
ENDBRANCH  18  22
ENDBRANCH  13  15
ENDBRANCH   1  13
BRANCH   4  31
HETATM   31  C   UNK N   1      21.726  17.227   5.374  0.00  0.00     0.009 C 
HETATM   32  C   UNK N   1      21.823  16.408   6.421  0.00  0.00    -0.007 C 
BRANCH  32  33
HETATM   33  C   UNK N   1      20.571  15.619   6.757  0.00  0.00     0.149 C 
BRANCH  33  34
HETATM   34  N   UNK N   1      20.329  14.678   5.676  0.00  0.00    -0.356 N 
HETATM   35  C   UNK N   1      19.193  14.480   4.990  0.00  0.00     0.241 C 
HETATM   36  O   UNK N   1      18.187  15.127   5.238  0.00  0.00    -0.271 OA
HETATM   37  H   UNK N   1      21.094  14.115   5.415  0.00  0.00     0.162 HD
BRANCH  35  38
HETATM   38  C   UNK N   1      19.213  13.436   3.915  0.00  0.00     0.269 C 
BRANCH  38  39
HETATM   39  O   UNK N   1      18.805  13.926   2.679  0.00  0.00    -0.387 OA
HETATM   40  C   UNK N   1      18.841  12.805   1.848  0.00  0.00     0.202 C 
ENDBRANCH  38  39
ENDBRANCH  35  38
ENDBRANCH  33  34
ENDBRANCH  32  33
ENDBRANCH   4  31
TORSDOF 9
ENDMDL
MODEL 9
REMARK VINA RESULT:      -7.4      3.739      5.806
REMARK  9 active torsions:
REMARK  status: ('A' for Active; 'I' for Inactive)
REMARK    1  A    between atoms: C_5  and  O_9 
REMARK    2  A    between atoms: O_9  and  C_10 
REMARK    3  A    between atoms: C_13  and  N_17 
REMARK    4  A    between atoms: N_17  and  C_18 
REMARK    5  A    between atoms: C_21  and  C_30 
REMARK    6  A    between atoms: C_31  and  C_32 
REMARK    7  A    between atoms: C_32  and  N_33 
REMARK       I    between atoms: N_33  and  C_34 
REMARK    8  A    between atoms: C_34  and  C_36 
REMARK    9  A    between atoms: C_36  and  O_37 
ROOT
HETATM    1  C   UNK N   1      21.454  17.318   4.130  0.00  0.00     0.119 A 
HETATM    2  C   UNK N   1      22.118  18.458   3.687  0.00  0.00     0.035 A 
HETATM    3  C   UNK N   1      23.453  18.651   3.977  0.00  0.00     0.029 A 
HETATM    4  C   UNK N   1      24.114  19.788   3.539  0.00  0.00    -0.035 A 
HETATM    5  C   UNK N   1      23.442  20.764   2.793  0.00  0.00     0.013 A 
HETATM    6  C   UNK N   1      22.084  20.579   2.490  0.00  0.00     0.031 A 
HETATM    7  C   UNK N   1      21.424  19.426   2.937  0.00  0.00     0.047 A 
HETATM    8  N   UNK N   1      20.108  19.238   2.650  0.00  0.00    -0.352 N 
ATOM      9  HN  UNK N   1      19.603  19.938   2.106  1.00  0.00     0.166 HD
HETATM   10  C   UNK N   1      19.465  18.127   3.084  0.00  0.00     0.182 A 
HETATM   11  N   UNK N   1      20.128  17.194   3.808  0.00  0.00    -0.338 N 
ATOM     12  HN  UNK N   1      19.622  16.368   4.125  1.00  0.00     0.168 HD
ENDROOT
BRANCH   1  13
HETATM   13  N   UNK N   1      22.129  16.305   4.905  0.00  0.00    -0.342 N 
HETATM   14  H   UNK N   1      21.641  15.875   5.644  0.00  0.00     0.167 HD
BRANCH  13  15
HETATM   15  C   UNK N   1      23.474  15.896   4.645  0.00  0.00     0.034 A 
HETATM   16  C   UNK N   1      23.931  15.518   3.377  0.00  0.00     0.032 A 
HETATM   17  C   UNK N   1      25.289  15.156   3.210  0.00  0.00     0.040 A 
HETATM   18  C   UNK N   1      26.199  15.165   4.300  0.00  0.00     0.082 A 
HETATM   19  C   UNK N   1      25.672  15.529   5.579  0.00  0.00    -0.026 A 
HETATM   20  C   UNK N   1      24.362  15.873   5.690  0.00  0.00     0.039 A 
HETATM   21  C   UNK N   1      26.351  15.563   6.889  0.00  0.00     0.051 C 
BRANCH  18  22
HETATM   22  O   UNK N   1      27.500  14.797   4.031  0.00  0.00    -0.309 OA
BRANCH  22  23
HETATM   23  C   UNK N   1      28.701  15.460   4.012  0.00  0.00     0.091 A 
HETATM   24  C   UNK N   1      29.564  15.346   5.107  0.00  0.00     0.040 A 
HETATM   25  C   UNK N   1      30.781  16.042   5.122  0.00  0.00     0.027 A 
HETATM   26  C   UNK N   1      31.120  16.853   4.034  0.00  0.00     0.005 A 
HETATM   27  C   UNK N   1      32.387  17.630   4.031  0.00  0.00     0.068 C 
HETATM   28  N   UNK N   1      30.291  16.930   2.969  0.00  0.00    -0.367 N 
HETATM   29  C   UNK N   1      29.124  16.244   2.941  0.00  0.00     0.125 A 
ATOM     30  HN  UNK N   1      30.549  17.514   2.173  1.00  0.00     0.165 HD
ENDBRANCH  22  23
ENDBRANCH  18  22
ENDBRANCH  13  15
ENDBRANCH   1  13
BRANCH   4  31
HETATM   31  C   UNK N   1      25.501  19.844   3.923  0.00  0.00     0.009 C 
HETATM   32  C   UNK N   1      26.465  18.939   4.087  0.00  0.00    -0.007 C 
BRANCH  32  33
HETATM   33  C   UNK N   1      27.815  19.486   4.515  0.00  0.00     0.149 C 
BRANCH  33  34
HETATM   34  N   UNK N   1      28.282  18.697   5.642  0.00  0.00    -0.356 N 
HETATM   35  C   UNK N   1      28.138  18.958   6.951  0.00  0.00     0.241 C 
HETATM   36  O   UNK N   1      27.554  19.960   7.333  0.00  0.00    -0.271 OA
HETATM   37  H   UNK N   1      28.766  17.869   5.418  0.00  0.00     0.162 HD
BRANCH  35  38
HETATM   38  C   UNK N   1      28.722  17.970   7.916  0.00  0.00     0.269 C 
BRANCH  38  39
HETATM   39  O   UNK N   1      28.725  18.434   9.227  0.00  0.00    -0.387 OA
HETATM   40  C   UNK N   1      28.881  17.275   9.988  0.00  0.00     0.202 C 
ENDBRANCH  38  39
ENDBRANCH  35  38
ENDBRANCH  33  34
ENDBRANCH  32  33
ENDBRANCH   4  31
TORSDOF 9
ENDMDL
