MODEL 1
REMARK VINA RESULT:      -4.8      0.000      0.000
REMARK  8 active torsions:
REMARK  status: ('A' for Active; 'I' for Inactive)
REMARK    1  A    between atoms: C_5  and  C_4 
REMARK    2  A    between atoms: C_6  and  C_5 
REMARK    3  A    between atoms: C_7  and  C_6 
REMARK    4  A    between atoms: C_8  and  C_7 
REMARK    5  A    between atoms: C_11  and  C_8 
REMARK    6  A    between atoms: C_12  and  C_10 
REMARK    7  A    between atoms: O_15  and  C_11 
REMARK    8  A    between atoms: O_15  and  C_12 
ROOT
HETATM    1  C   UNK N   1      34.583  15.362   8.041  0.00  0.00     0.042 C 
HETATM    2  C   UNK N   1      34.983  16.814   9.896  0.00  0.00     0.105 C 
HETATM    3  C   UNK N   1      34.549  16.595   8.537  0.00  0.00     0.110 C 
HETATM    4  N   UNK N   1      35.313  16.986  10.991  0.00  0.00    -0.191 NA
ENDROOT
BRANCH   3   5
HETATM    5  C   UNK N   1      33.935  17.699   7.767  0.00  0.00     0.303 C 
HETATM    6  O   UNK N   1      34.524  18.143   6.791  0.00  0.00    -0.258 OA
BRANCH   5   7
HETATM    7  O   UNK N   1      32.723  18.207   8.135  0.00  0.00    -0.312 OA
BRANCH   7   8
HETATM    8  C   UNK N   1      31.607  17.429   8.401  0.00  0.00     0.128 C 
HETATM    9  C   UNK N   1      30.424  18.276   8.864  0.00  0.00     0.040 C 
BRANCH   8  10
HETATM   10  C   UNK N   1      31.207  16.640   7.157  0.00  0.00     0.032 C 
BRANCH  10  11
HETATM   11  C   UNK N   1      30.127  17.412   6.416  0.00  0.00     0.002 C 
BRANCH  11  12
HETATM   12  C   UNK N   1      30.327  17.427   4.915  0.00  0.00     0.000 C 
BRANCH  12  13
HETATM   13  C   UNK N   1      31.824  17.348   4.687  0.00  0.00    -0.000 C 
BRANCH  13  14
HETATM   14  C   UNK N   1      32.172  17.190   3.224  0.00  0.00    -0.005 C 
HETATM   15  C   UNK N   1      33.240  16.122   3.100  0.00  0.00     0.005 C 
ENDBRANCH  13  14
ENDBRANCH  12  13
ENDBRANCH  11  12
ENDBRANCH  10  11
ENDBRANCH   8  10
ENDBRANCH   7   8
ENDBRANCH   5   7
ENDBRANCH   3   5
TORSDOF 8
ENDMDL
MODEL 2
REMARK VINA RESULT:      -4.6      3.210      4.610
REMARK  8 active torsions:
REMARK  status: ('A' for Active; 'I' for Inactive)
REMARK    1  A    between atoms: C_5  and  C_4 
REMARK    2  A    between atoms: C_6  and  C_5 
REMARK    3  A    between atoms: C_7  and  C_6 
REMARK    4  A    between atoms: C_8  and  C_7 
REMARK    5  A    between atoms: C_11  and  C_8 
REMARK    6  A    between atoms: C_12  and  C_10 
REMARK    7  A    between atoms: O_15  and  C_11 
REMARK    8  A    between atoms: O_15  and  C_12 
ROOT
HETATM    1  C   UNK N   1      32.437  17.284   3.592  0.00  0.00     0.042 C 
HETATM    2  C   UNK N   1      33.397  17.525   5.766  0.00  0.00     0.105 C 
HETATM    3  C   UNK N   1      32.277  17.219   4.909  0.00  0.00     0.110 C 
HETATM    4  N   UNK N   1      34.301  17.752   6.452  0.00  0.00    -0.191 NA
ENDROOT
BRANCH   3   5
HETATM    5  C   UNK N   1      31.022  16.694   5.489  0.00  0.00     0.303 C 
HETATM    6  O   UNK N   1      30.779  15.497   5.398  0.00  0.00    -0.258 OA
BRANCH   5   7
HETATM    7  O   UNK N   1      30.152  17.530   6.126  0.00  0.00    -0.312 OA
BRANCH   7   8
HETATM    8  C   UNK N   1      29.690  17.326   7.418  0.00  0.00     0.128 C 
HETATM    9  C   UNK N   1      30.664  17.872   8.459  0.00  0.00     0.040 C 
BRANCH   8  10
HETATM   10  C   UNK N   1      28.330  17.994   7.602  0.00  0.00     0.032 C 
BRANCH  10  11
HETATM   11  C   UNK N   1      28.050  18.875   6.396  0.00  0.00     0.002 C 
BRANCH  11  12
HETATM   12  C   UNK N   1      27.553  20.256   6.768  0.00  0.00     0.000 C 
BRANCH  12  13
HETATM   13  C   UNK N   1      26.957  20.846   5.504  0.00  0.00    -0.000 C 
BRANCH  13  14
HETATM   14  C   UNK N   1      26.917  19.847   4.371  0.00  0.00    -0.005 C 
HETATM   15  C   UNK N   1      26.315  20.527   3.157  0.00  0.00     0.005 C 
ENDBRANCH  13  14
ENDBRANCH  12  13
ENDBRANCH  11  12
ENDBRANCH  10  11
ENDBRANCH   8  10
ENDBRANCH   7   8
ENDBRANCH   5   7
ENDBRANCH   3   5
TORSDOF 8
ENDMDL
MODEL 3
REMARK VINA RESULT:      -4.5      4.993      8.642
REMARK  8 active torsions:
REMARK  status: ('A' for Active; 'I' for Inactive)
REMARK    1  A    between atoms: C_5  and  C_4 
REMARK    2  A    between atoms: C_6  and  C_5 
REMARK    3  A    between atoms: C_7  and  C_6 
REMARK    4  A    between atoms: C_8  and  C_7 
REMARK    5  A    between atoms: C_11  and  C_8 
REMARK    6  A    between atoms: C_12  and  C_10 
REMARK    7  A    between atoms: O_15  and  C_11 
REMARK    8  A    between atoms: O_15  and  C_12 
ROOT
HETATM    1  C   UNK N   1      33.649  14.869   8.487  0.00  0.00     0.042 C 
HETATM    2  C   UNK N   1      34.380  17.018   7.740  0.00  0.00     0.105 C 
HETATM    3  C   UNK N   1      34.303  15.995   8.755  0.00  0.00     0.110 C 
HETATM    4  N   UNK N   1      34.457  17.830   6.919  0.00  0.00    -0.191 NA
ENDROOT
BRANCH   3   5
HETATM    5  C   UNK N   1      35.070  16.138  10.011  0.00  0.00     0.303 C 
HETATM    6  O   UNK N   1      35.150  17.240  10.537  0.00  0.00    -0.258 OA
BRANCH   5   7
HETATM    7  O   UNK N   1      35.670  15.053  10.582  0.00  0.00    -0.312 OA
BRANCH   7   8
HETATM    8  C   UNK N   1      35.217  14.440  11.740  0.00  0.00     0.128 C 
HETATM    9  C   UNK N   1      35.093  12.928  11.568  0.00  0.00     0.040 C 
BRANCH   8  10
HETATM   10  C   UNK N   1      36.165  14.739  12.899  0.00  0.00     0.032 C 
BRANCH  10  11
HETATM   11  C   UNK N   1      36.236  13.517  13.800  0.00  0.00     0.002 C 
BRANCH  11  12
HETATM   12  C   UNK N   1      36.547  13.856  15.243  0.00  0.00     0.000 C 
BRANCH  12  13
HETATM   13  C   UNK N   1      35.847  12.807  16.085  0.00  0.00    -0.000 C 
BRANCH  13  14
HETATM   14  C   UNK N   1      34.871  13.419  17.065  0.00  0.00    -0.005 C 
HETATM   15  C   UNK N   1      35.206  12.908  18.453  0.00  0.00     0.005 C 
ENDBRANCH  13  14
ENDBRANCH  12  13
ENDBRANCH  11  12
ENDBRANCH  10  11
ENDBRANCH   8  10
ENDBRANCH   7   8
ENDBRANCH   5   7
ENDBRANCH   3   5
TORSDOF 8
ENDMDL
MODEL 4
REMARK VINA RESULT:      -4.4     14.653     16.665
REMARK  8 active torsions:
REMARK  status: ('A' for Active; 'I' for Inactive)
REMARK    1  A    between atoms: C_5  and  C_4 
REMARK    2  A    between atoms: C_6  and  C_5 
REMARK    3  A    between atoms: C_7  and  C_6 
REMARK    4  A    between atoms: C_8  and  C_7 
REMARK    5  A    between atoms: C_11  and  C_8 
REMARK    6  A    between atoms: C_12  and  C_10 
REMARK    7  A    between atoms: O_15  and  C_11 
REMARK    8  A    between atoms: O_15  and  C_12 
ROOT
HETATM    1  C   UNK N   1      29.278  25.408  -3.996  0.00  0.00     0.042 C 
HETATM    2  C   UNK N   1      28.086  24.147  -5.638  0.00  0.00     0.105 C 
HETATM    3  C   UNK N   1      28.159  24.782  -4.345  0.00  0.00     0.110 C 
HETATM    4  N   UNK N   1      28.022  23.655  -6.684  0.00  0.00    -0.191 NA
ENDROOT
BRANCH   3   5
HETATM    5  C   UNK N   1      26.954  24.865  -3.491  0.00  0.00     0.303 C 
HETATM    6  O   UNK N   1      26.614  23.882  -2.845  0.00  0.00    -0.258 OA
BRANCH   5   7
HETATM    7  O   UNK N   1      26.238  26.024  -3.415  0.00  0.00    -0.312 OA
BRANCH   7   8
HETATM    8  C   UNK N   1      26.059  26.892  -4.481  0.00  0.00     0.128 C 
HETATM    9  C   UNK N   1      25.009  26.374  -5.462  0.00  0.00     0.040 C 
BRANCH   8  10
HETATM   10  C   UNK N   1      25.639  28.269  -3.974  0.00  0.00     0.032 C 
BRANCH  10  11
HETATM   11  C   UNK N   1      26.627  29.303  -4.489  0.00  0.00     0.002 C 
BRANCH  11  12
HETATM   12  C   UNK N   1      27.895  28.690  -5.046  0.00  0.00     0.000 C 
BRANCH  12  13
HETATM   13  C   UNK N   1      28.001  29.169  -6.481  0.00  0.00    -0.000 C 
BRANCH  13  14
HETATM   14  C   UNK N   1      27.976  28.025  -7.469  0.00  0.00    -0.005 C 
HETATM   15  C   UNK N   1      28.959  28.334  -8.582  0.00  0.00     0.005 C 
ENDBRANCH  13  14
ENDBRANCH  12  13
ENDBRANCH  11  12
ENDBRANCH  10  11
ENDBRANCH   8  10
ENDBRANCH   7   8
ENDBRANCH   5   7
ENDBRANCH   3   5
TORSDOF 8
ENDMDL
MODEL 5
REMARK VINA RESULT:      -4.4     13.460     15.968
REMARK  8 active torsions:
REMARK  status: ('A' for Active; 'I' for Inactive)
REMARK    1  A    between atoms: C_5  and  C_4 
REMARK    2  A    between atoms: C_6  and  C_5 
REMARK    3  A    between atoms: C_7  and  C_6 
REMARK    4  A    between atoms: C_8  and  C_7 
REMARK    5  A    between atoms: C_11  and  C_8 
REMARK    6  A    between atoms: C_12  and  C_10 
REMARK    7  A    between atoms: O_15  and  C_11 
REMARK    8  A    between atoms: O_15  and  C_12 
ROOT
HETATM    1  C   UNK N   1      24.848  27.063  -5.878  0.00  0.00     0.042 C 
HETATM    2  C   UNK N   1      25.881  27.279  -3.734  0.00  0.00     0.105 C 
HETATM    3  C   UNK N   1      25.399  26.467  -4.825  0.00  0.00     0.110 C 
HETATM    4  N   UNK N   1      26.284  27.932  -2.868  0.00  0.00    -0.191 NA
ENDROOT
BRANCH   3   5
HETATM    5  C   UNK N   1      25.654  25.011  -4.835  0.00  0.00     0.303 C 
HETATM    6  O   UNK N   1      26.006  24.461  -3.799  0.00  0.00    -0.258 OA
BRANCH   5   7
HETATM    7  O   UNK N   1      25.490  24.287  -5.981  0.00  0.00    -0.312 OA
BRANCH   7   8
HETATM    8  C   UNK N   1      26.339  23.265  -6.377  0.00  0.00     0.128 C 
HETATM    9  C   UNK N   1      25.592  22.177  -7.146  0.00  0.00     0.040 C 
BRANCH   8  10
HETATM   10  C   UNK N   1      27.459  23.821  -7.252  0.00  0.00     0.032 C 
BRANCH  10  11
HETATM   11  C   UNK N   1      28.709  23.984  -6.402  0.00  0.00     0.002 C 
BRANCH  11  12
HETATM   12  C   UNK N   1      28.893  22.870  -5.392  0.00  0.00     0.000 C 
BRANCH  12  13
HETATM   13  C   UNK N   1      29.404  23.527  -4.125  0.00  0.00    -0.000 C 
BRANCH  13  14
HETATM   14  C   UNK N   1      29.834  22.513  -3.089  0.00  0.00    -0.005 C 
HETATM   15  C   UNK N   1      30.456  21.332  -3.808  0.00  0.00     0.005 C 
ENDBRANCH  13  14
ENDBRANCH  12  13
ENDBRANCH  11  12
ENDBRANCH  10  11
ENDBRANCH   8  10
ENDBRANCH   7   8
ENDBRANCH   5   7
ENDBRANCH   3   5
TORSDOF 8
ENDMDL
MODEL 6
REMARK VINA RESULT:      -4.4      1.635      2.988
REMARK  8 active torsions:
REMARK  status: ('A' for Active; 'I' for Inactive)
REMARK    1  A    between atoms: C_5  and  C_4 
REMARK    2  A    between atoms: C_6  and  C_5 
REMARK    3  A    between atoms: C_7  and  C_6 
REMARK    4  A    between atoms: C_8  and  C_7 
REMARK    5  A    between atoms: C_11  and  C_8 
REMARK    6  A    between atoms: C_12  and  C_10 
REMARK    7  A    between atoms: O_15  and  C_11 
REMARK    8  A    between atoms: O_15  and  C_12 
ROOT
HETATM    1  C   UNK N   1      33.245  15.676   8.843  0.00  0.00     0.042 C 
HETATM    2  C   UNK N   1      35.049  16.906   9.814  0.00  0.00     0.105 C 
HETATM    3  C   UNK N   1      34.081  16.706   8.763  0.00  0.00     0.110 C 
HETATM    4  N   UNK N   1      35.811  17.076  10.667  0.00  0.00    -0.191 NA
ENDROOT
BRANCH   3   5
HETATM    5  C   UNK N   1      33.925  17.719   7.697  0.00  0.00     0.303 C 
HETATM    6  O   UNK N   1      34.777  18.589   7.573  0.00  0.00    -0.258 OA
BRANCH   5   7
HETATM    7  O   UNK N   1      32.851  17.678   6.855  0.00  0.00    -0.312 OA
BRANCH   7   8
HETATM    8  C   UNK N   1      32.949  17.468   5.488  0.00  0.00     0.128 C 
HETATM    9  C   UNK N   1      33.810  16.250   5.163  0.00  0.00     0.040 C 
BRANCH   8  10
HETATM   10  C   UNK N   1      31.559  17.279   4.884  0.00  0.00     0.032 C 
BRANCH  10  11
HETATM   11  C   UNK N   1      30.638  16.704   5.947  0.00  0.00     0.002 C 
BRANCH  11  12
HETATM   12  C   UNK N   1      29.170  16.933   5.653  0.00  0.00     0.000 C 
BRANCH  12  13
HETATM   13  C   UNK N   1      29.110  18.088   4.672  0.00  0.00    -0.000 C 
BRANCH  13  14
HETATM   14  C   UNK N   1      27.689  18.494   4.354  0.00  0.00    -0.005 C 
HETATM   15  C   UNK N   1      27.604  20.007   4.399  0.00  0.00     0.005 C 
ENDBRANCH  13  14
ENDBRANCH  12  13
ENDBRANCH  11  12
ENDBRANCH  10  11
ENDBRANCH   8  10
ENDBRANCH   7   8
ENDBRANCH   5   7
ENDBRANCH   3   5
TORSDOF 8
ENDMDL
MODEL 7
REMARK VINA RESULT:      -4.4      1.707      3.882
REMARK  8 active torsions:
REMARK  status: ('A' for Active; 'I' for Inactive)
REMARK    1  A    between atoms: C_5  and  C_4 
REMARK    2  A    between atoms: C_6  and  C_5 
REMARK    3  A    between atoms: C_7  and  C_6 
REMARK    4  A    between atoms: C_8  and  C_7 
REMARK    5  A    between atoms: C_11  and  C_8 
REMARK    6  A    between atoms: C_12  and  C_10 
REMARK    7  A    between atoms: O_15  and  C_11 
REMARK    8  A    between atoms: O_15  and  C_12 
ROOT
HETATM    1  C   UNK N   1      34.309  16.086   9.330  0.00  0.00     0.042 C 
HETATM    2  C   UNK N   1      34.923  18.205   8.412  0.00  0.00     0.105 C 
HETATM    3  C   UNK N   1      34.599  16.808   8.252  0.00  0.00     0.110 C 
HETATM    4  N   UNK N   1      35.164  19.330   8.540  0.00  0.00    -0.191 NA
ENDROOT
BRANCH   3   5
HETATM    5  C   UNK N   1      34.445  16.233   6.899  0.00  0.00     0.303 C 
HETATM    6  O   UNK N   1      34.521  15.020   6.755  0.00  0.00    -0.258 OA
BRANCH   5   7
HETATM    7  O   UNK N   1      34.210  17.044   5.826  0.00  0.00    -0.312 OA
BRANCH   7   8
HETATM    8  C   UNK N   1      32.942  17.373   5.370  0.00  0.00     0.128 C 
HETATM    9  C   UNK N   1      32.839  17.252   3.851  0.00  0.00     0.040 C 
BRANCH   8  10
HETATM   10  C   UNK N   1      31.898  16.468   6.019  0.00  0.00     0.032 C 
BRANCH  10  11
HETATM   11  C   UNK N   1      30.915  17.332   6.792  0.00  0.00     0.002 C 
BRANCH  11  12
HETATM   12  C   UNK N   1      30.956  17.092   8.286  0.00  0.00     0.000 C 
BRANCH  12  13
HETATM   13  C   UNK N   1      30.230  18.261   8.923  0.00  0.00    -0.000 C 
BRANCH  13  14
HETATM   14  C   UNK N   1      28.742  18.018   9.032  0.00  0.00    -0.005 C 
HETATM   15  C   UNK N   1      28.028  19.034   8.162  0.00  0.00     0.005 C 
ENDBRANCH  13  14
ENDBRANCH  12  13
ENDBRANCH  11  12
ENDBRANCH  10  11
ENDBRANCH   8  10
ENDBRANCH   7   8
ENDBRANCH   5   7
ENDBRANCH   3   5
TORSDOF 8
ENDMDL
MODEL 8
REMARK VINA RESULT:      -4.3     10.353     11.868
REMARK  8 active torsions:
REMARK  status: ('A' for Active; 'I' for Inactive)
REMARK    1  A    between atoms: C_5  and  C_4 
REMARK    2  A    between atoms: C_6  and  C_5 
REMARK    3  A    between atoms: C_7  and  C_6 
REMARK    4  A    between atoms: C_8  and  C_7 
REMARK    5  A    between atoms: C_11  and  C_8 
REMARK    6  A    between atoms: C_12  and  C_10 
REMARK    7  A    between atoms: O_15  and  C_11 
REMARK    8  A    between atoms: O_15  and  C_12 
ROOT
HETATM    1  C   UNK N   1      21.317  12.054  11.378  0.00  0.00     0.042 C 
HETATM    2  C   UNK N   1      23.170  12.057  12.887  0.00  0.00     0.105 C 
HETATM    3  C   UNK N   1      22.635  12.041  11.546  0.00  0.00     0.110 C 
HETATM    4  N   UNK N   1      23.597  12.090  13.962  0.00  0.00    -0.191 NA
ENDROOT
BRANCH   3   5
HETATM    5  C   UNK N   1      23.543  12.162  10.385  0.00  0.00     0.303 C 
HETATM    6  O   UNK N   1      24.751  12.210  10.576  0.00  0.00    -0.258 OA
BRANCH   5   7
HETATM    7  O   UNK N   1      23.041  12.209   9.117  0.00  0.00    -0.312 OA
BRANCH   7   8
HETATM    8  C   UNK N   1      22.991  13.361   8.348  0.00  0.00     0.128 C 
HETATM    9  C   UNK N   1      23.704  13.179   7.009  0.00  0.00     0.040 C 
BRANCH   8  10
HETATM   10  C   UNK N   1      21.540  13.763   8.095  0.00  0.00     0.032 C 
BRANCH  10  11
HETATM   11  C   UNK N   1      21.182  14.912   9.023  0.00  0.00     0.002 C 
BRANCH  11  12
HETATM   12  C   UNK N   1      19.937  15.660   8.594  0.00  0.00     0.000 C 
BRANCH  12  13
HETATM   13  C   UNK N   1      20.416  16.862   7.803  0.00  0.00    -0.000 C 
BRANCH  13  14
HETATM   14  C   UNK N   1      20.458  16.587   6.317  0.00  0.00    -0.005 C 
HETATM   15  C   UNK N   1      19.102  16.059   5.891  0.00  0.00     0.005 C 
ENDBRANCH  13  14
ENDBRANCH  12  13
ENDBRANCH  11  12
ENDBRANCH  10  11
ENDBRANCH   8  10
ENDBRANCH   7   8
ENDBRANCH   5   7
ENDBRANCH   3   5
TORSDOF 8
ENDMDL
MODEL 9
REMARK VINA RESULT:      -4.3     10.473     11.597
REMARK  8 active torsions:
REMARK  status: ('A' for Active; 'I' for Inactive)
REMARK    1  A    between atoms: C_5  and  C_4 
REMARK    2  A    between atoms: C_6  and  C_5 
REMARK    3  A    between atoms: C_7  and  C_6 
REMARK    4  A    between atoms: C_8  and  C_7 
REMARK    5  A    between atoms: C_11  and  C_8 
REMARK    6  A    between atoms: C_12  and  C_10 
REMARK    7  A    between atoms: O_15  and  C_11 
REMARK    8  A    between atoms: O_15  and  C_12 
ROOT
HETATM    1  C   UNK N   1      23.199  11.564   9.790  0.00  0.00     0.042 C 
HETATM    2  C   UNK N   1      23.112  12.075  12.122  0.00  0.00     0.105 C 
HETATM    3  C   UNK N   1      22.618  12.239  10.776  0.00  0.00     0.110 C 
HETATM    4  N   UNK N   1      23.495  11.927  13.204  0.00  0.00    -0.191 NA
ENDROOT
BRANCH   3   5
HETATM    5  C   UNK N   1      21.391  13.026  10.527  0.00  0.00     0.303 C 
HETATM    6  O   UNK N   1      20.306  12.547  10.828  0.00  0.00    -0.258 OA
BRANCH   5   7
HETATM    7  O   UNK N   1      21.469  14.274   9.979  0.00  0.00    -0.312 OA
BRANCH   7   8
HETATM    8  C   UNK N   1      20.898  14.621   8.765  0.00  0.00     0.128 C 
HETATM    9  C   UNK N   1      20.548  16.107   8.709  0.00  0.00     0.040 C 
BRANCH   8  10
HETATM   10  C   UNK N   1      21.850  14.285   7.620  0.00  0.00     0.032 C 
BRANCH  10  11
HETATM   11  C   UNK N   1      21.820  15.419   6.609  0.00  0.00     0.002 C 
BRANCH  11  12
HETATM   12  C   UNK N   1      23.199  15.864   6.169  0.00  0.00     0.000 C 
BRANCH  12  13
HETATM   13  C   UNK N   1      22.985  16.996   5.183  0.00  0.00    -0.000 C 
BRANCH  13  14
HETATM   14  C   UNK N   1      22.071  18.067   5.733  0.00  0.00    -0.005 C 
HETATM   15  C   UNK N   1      21.377  18.747   4.568  0.00  0.00     0.005 C 
ENDBRANCH  13  14
ENDBRANCH  12  13
ENDBRANCH  11  12
ENDBRANCH  10  11
ENDBRANCH   8  10
ENDBRANCH   7   8
ENDBRANCH   5   7
ENDBRANCH   3   5
TORSDOF 8
ENDMDL
