MODEL 1
REMARK VINA RESULT:      -8.6      0.000      0.000
REMARK  4 active torsions:
REMARK  status: ('A' for Active; 'I' for Inactive)
REMARK    1  A    between atoms: C_3  and  C_2 
REMARK    2  A    between atoms: C_3  and  O_39 
REMARK    3  A    between atoms: C_26  and  C_27 
REMARK    4  A    between atoms: C_27  and  N_28 
ROOT
HETATM    1  C   UNK N   1      28.207  18.161   7.033  0.00  0.00     0.173 C 
HETATM    2  C   UNK N   1      29.504  17.533   6.554  0.00  0.00     0.002 A 
HETATM    3  C   UNK N   1      30.484  17.091   7.440  0.00  0.00     0.043 A 
HETATM    4  C   UNK N   1      31.656  16.574   6.919  0.00  0.00     0.066 A 
HETATM    5  N   UNK N   1      31.904  16.512   5.597  0.00  0.00    -0.307 N 
HETATM    6  C   UNK N   1      30.962  16.930   4.682  0.00  0.00     0.257 A 
HETATM    7  O   UNK N   1      31.190  16.863   3.485  0.00  0.00    -0.267 OA
HETATM    8  C   UNK N   1      29.732  17.440   5.159  0.00  0.00     0.044 A 
HETATM    9  C   UNK N   1      28.650  17.965   4.246  0.00  0.00     0.224 C 
HETATM   10  O   UNK N   1      28.154  19.158   4.758  0.00  0.00    -0.314 OA
HETATM   11  C   UNK N   1      27.967  19.334   6.100  0.00  0.00     0.298 C 
HETATM   12  O   UNK N   1      27.696  20.444   6.532  0.00  0.00    -0.261 OA
HETATM   13  C   UNK N   1      33.256  15.955   5.343  0.00  0.00     0.174 A 
HETATM   14  C   UNK N   1      33.716  15.667   6.770  0.00  0.00    -0.002 A 
HETATM   15  C   UNK N   1      32.734  16.042   7.647  0.00  0.00     0.068 A 
HETATM   16  N   UNK N   1      32.811  15.869   8.982  0.00  0.00    -0.353 N 
ATOM     17  HN  UNK N   1      32.045  16.169   9.585  1.00  0.00     0.166 HD
HETATM   18  C   UNK N   1      33.914  15.291   9.513  0.00  0.00     0.046 A 
HETATM   19  C   UNK N   1      33.962  15.053  10.885  0.00  0.00     0.070 A 
HETATM   20  C   UNK N   1      35.068  14.418  11.441  0.00  0.00     0.104 A 
HETATM   21  C   UNK N   1      36.144  14.033  10.629  0.00  0.00     0.103 A 
HETATM   22  C   UNK N   1      36.122  14.295   9.257  0.00  0.00     0.054 A 
HETATM   23  C   UNK N   1      34.999  14.905   8.674  0.00  0.00     0.002 A 
HETATM   24  C   UNK N   1      34.904  15.103   7.269  0.00  0.00    -0.007 A 
HETATM   25  O   UNK N   1      37.188  13.379  11.184  0.00  0.00    -0.346 OA
HETATM   26  C   UNK N   1      37.093  12.813  12.445  0.00  0.00     0.202 C 
HETATM   27  C   UNK N   1      36.248  13.680  13.392  0.00  0.00     0.202 C 
HETATM   28  O   UNK N   1      35.110  14.166  12.770  0.00  0.00    -0.346 OA
ENDROOT
BRANCH  24  29
HETATM   29  C   UNK N   1      36.051  14.716   6.365  0.00  0.00     0.312 C 
BRANCH  29  30
HETATM   30  N   UNK N   1      35.947  13.386   5.753  0.00  0.00     0.096 N 
HETATM   31  C   UNK N   1      35.849  13.637   4.304  0.00  0.00     0.303 C 
HETATM   32  C   UNK N   1      36.491  12.529   3.454  0.00  0.00     0.302 C 
HETATM   33  N   UNK N   1      37.911  12.310   3.779  0.00  0.00     0.087 N 
HETATM   34  C   UNK N   1      38.269  12.703   5.145  0.00  0.00     0.302 C 
HETATM   35  C   UNK N   1      38.720  13.108   2.875  0.00  0.00     0.310 C 
HETATM   36  C   UNK N   1      37.092  12.521   6.105  0.00  0.00     0.303 C 
ENDBRANCH  29  30
ENDBRANCH  24  29
BRANCH   1  37
HETATM   37  C   UNK N   1      28.218  18.617   8.509  0.00  0.00     0.049 C 
HETATM   38  C   UNK N   1      27.930  17.498   9.501  0.00  0.00     0.009 C 
ENDBRANCH   1  37
BRANCH   1  39
HETATM   39  O   UNK N   1      27.172  17.242   6.842  0.00  0.00    -0.375 OA
HETATM   40  H   UNK N   1      26.338  16.807   6.606  0.00  0.00     0.211 HD
ENDBRANCH   1  39
TORSDOF 4
ENDMDL
MODEL 2
REMARK VINA RESULT:      -8.5      2.708      3.760
REMARK  4 active torsions:
REMARK  status: ('A' for Active; 'I' for Inactive)
REMARK    1  A    between atoms: C_3  and  C_2 
REMARK    2  A    between atoms: C_3  and  O_39 
REMARK    3  A    between atoms: C_26  and  C_27 
REMARK    4  A    between atoms: C_27  and  N_28 
ROOT
HETATM    1  C   UNK N   1      26.581  19.597   4.913  0.00  0.00     0.173 C 
HETATM    2  C   UNK N   1      27.314  18.269   4.845  0.00  0.00     0.002 A 
HETATM    3  C   UNK N   1      28.509  18.047   5.527  0.00  0.00     0.043 A 
HETATM    4  C   UNK N   1      29.136  16.824   5.374  0.00  0.00     0.066 A 
HETATM    5  N   UNK N   1      28.661  15.855   4.569  0.00  0.00    -0.307 N 
HETATM    6  C   UNK N   1      27.479  16.025   3.881  0.00  0.00     0.257 A 
HETATM    7  O   UNK N   1      27.049  15.138   3.161  0.00  0.00    -0.267 OA
HETATM    8  C   UNK N   1      26.779  17.245   4.025  0.00  0.00     0.044 A 
HETATM    9  C   UNK N   1      25.501  17.553   3.283  0.00  0.00     0.224 C 
HETATM   10  O   UNK N   1      25.562  18.846   2.776  0.00  0.00    -0.314 OA
HETATM   11  C   UNK N   1      26.119  19.866   3.492  0.00  0.00     0.298 C 
HETATM   12  O   UNK N   1      26.314  20.946   2.955  0.00  0.00    -0.261 OA
HETATM   13  C   UNK N   1      29.567  14.680   4.573  0.00  0.00     0.174 A 
HETATM   14  C   UNK N   1      30.627  15.144   5.569  0.00  0.00    -0.002 A 
HETATM   15  C   UNK N   1      30.316  16.401   6.009  0.00  0.00     0.068 A 
HETATM   16  N   UNK N   1      31.028  17.071   6.937  0.00  0.00    -0.353 N 
ATOM     17  HN  UNK N   1      30.745  18.008   7.225  1.00  0.00     0.166 HD
HETATM   18  C   UNK N   1      32.121  16.488   7.483  0.00  0.00     0.046 A 
HETATM   19  C   UNK N   1      32.815  17.156   8.489  0.00  0.00     0.070 A 
HETATM   20  C   UNK N   1      33.913  16.551   9.094  0.00  0.00     0.104 A 
HETATM   21  C   UNK N   1      34.336  15.280   8.681  0.00  0.00     0.103 A 
HETATM   22  C   UNK N   1      33.666  14.614   7.652  0.00  0.00     0.054 A 
HETATM   23  C   UNK N   1      32.537  15.195   7.054  0.00  0.00     0.002 A 
HETATM   24  C   UNK N   1      31.778  14.506   6.067  0.00  0.00    -0.007 A 
HETATM   25  O   UNK N   1      35.376  14.693   9.313  0.00  0.00    -0.346 OA
HETATM   26  C   UNK N   1      35.835  15.165  10.532  0.00  0.00     0.202 C 
HETATM   27  C   UNK N   1      35.764  16.698  10.609  0.00  0.00     0.202 C 
HETATM   28  O   UNK N   1      34.578  17.188  10.085  0.00  0.00    -0.346 OA
ENDROOT
BRANCH  24  29
HETATM   29  C   UNK N   1      32.212  13.141   5.587  0.00  0.00     0.312 C 
BRANCH  29  30
HETATM   30  N   UNK N   1      33.379  13.131   4.697  0.00  0.00     0.096 N 
HETATM   31  C   UNK N   1      33.379  11.792   4.081  0.00  0.00     0.303 C 
HETATM   32  C   UNK N   1      33.938  11.785   2.648  0.00  0.00     0.302 C 
HETATM   33  N   UNK N   1      33.211  12.696   1.748  0.00  0.00     0.087 N 
HETATM   34  C   UNK N   1      32.553  13.808   2.441  0.00  0.00     0.302 C 
HETATM   35  C   UNK N   1      32.175  11.941   1.065  0.00  0.00     0.310 C 
HETATM   36  C   UNK N   1      33.325  14.217   3.697  0.00  0.00     0.303 C 
ENDBRANCH  29  30
ENDBRANCH  24  29
BRANCH   1  37
HETATM   37  C   UNK N   1      27.425  20.772   5.456  0.00  0.00     0.049 C 
HETATM   38  C   UNK N   1      26.683  21.654   6.451  0.00  0.00     0.009 C 
ENDBRANCH   1  37
BRANCH   1  39
HETATM   39  O   UNK N   1      25.445  19.437   5.711  0.00  0.00    -0.375 OA
HETATM   40  H   UNK N   1      24.806  19.434   6.440  0.00  0.00     0.211 HD
ENDBRANCH   1  39
TORSDOF 4
ENDMDL
MODEL 3
REMARK VINA RESULT:      -8.1      3.578      9.514
REMARK  4 active torsions:
REMARK  status: ('A' for Active; 'I' for Inactive)
REMARK    1  A    between atoms: C_3  and  C_2 
REMARK    2  A    between atoms: C_3  and  O_39 
REMARK    3  A    between atoms: C_26  and  C_27 
REMARK    4  A    between atoms: C_27  and  N_28 
ROOT
HETATM    1  C   UNK N   1      34.718  13.759   9.444  0.00  0.00     0.173 C 
HETATM    2  C   UNK N   1      33.789  14.749   8.764  0.00  0.00     0.002 A 
HETATM    3  C   UNK N   1      32.882  14.359   7.782  0.00  0.00     0.043 A 
HETATM    4  C   UNK N   1      32.106  15.332   7.180  0.00  0.00     0.066 A 
HETATM    5  N   UNK N   1      32.213  16.641   7.479  0.00  0.00    -0.307 N 
HETATM    6  C   UNK N   1      33.090  17.074   8.449  0.00  0.00     0.257 A 
HETATM    7  O   UNK N   1      33.176  18.260   8.722  0.00  0.00    -0.267 OA
HETATM    8  C   UNK N   1      33.888  16.117   9.119  0.00  0.00     0.044 A 
HETATM    9  C   UNK N   1      34.911  16.487  10.165  0.00  0.00     0.224 C 
HETATM   10  O   UNK N   1      36.083  15.775   9.936  0.00  0.00    -0.314 OA
HETATM   11  C   UNK N   1      36.057  14.470   9.535  0.00  0.00     0.298 C 
HETATM   12  O   UNK N   1      37.090  13.926   9.176  0.00  0.00    -0.261 OA
HETATM   13  C   UNK N   1      31.289  17.446   6.643  0.00  0.00     0.174 A 
HETATM   14  C   UNK N   1      30.598  16.345   5.842  0.00  0.00    -0.002 A 
HETATM   15  C   UNK N   1      31.112  15.130   6.207  0.00  0.00     0.068 A 
HETATM   16  N   UNK N   1      30.676  13.951   5.720  0.00  0.00    -0.353 N 
ATOM     17  HN  UNK N   1      31.099  13.077   6.031  1.00  0.00     0.166 HD
HETATM   18  C   UNK N   1      29.668  13.940   4.815  0.00  0.00     0.046 A 
HETATM   19  C   UNK N   1      29.175  12.718   4.364  0.00  0.00     0.070 A 
HETATM   20  C   UNK N   1      28.110  12.687   3.470  0.00  0.00     0.104 A 
HETATM   21  C   UNK N   1      27.542  13.882   3.005  0.00  0.00     0.103 A 
HETATM   22  C   UNK N   1      28.049  15.114   3.426  0.00  0.00     0.054 A 
HETATM   23  C   UNK N   1      29.102  15.163   4.353  0.00  0.00     0.002 A 
HETATM   24  C   UNK N   1      29.581  16.398   4.872  0.00  0.00    -0.007 A 
HETATM   25  O   UNK N   1      26.480  13.827   2.171  0.00  0.00    -0.346 OA
HETATM   26  C   UNK N   1      25.754  12.658   2.009  0.00  0.00     0.202 C 
HETATM   27  C   UNK N   1      26.662  11.418   2.041  0.00  0.00     0.202 C 
HETATM   28  O   UNK N   1      27.614  11.502   3.045  0.00  0.00    -0.346 OA
ENDROOT
BRANCH  24  29
HETATM   29  C   UNK N   1      29.004  17.705   4.383  0.00  0.00     0.312 C 
BRANCH  29  30
HETATM   30  N   UNK N   1      28.247  18.470   5.380  0.00  0.00     0.096 N 
HETATM   31  C   UNK N   1      28.044  19.798   4.773  0.00  0.00     0.303 C 
HETATM   32  C   UNK N   1      26.722  20.460   5.193  0.00  0.00     0.302 C 
HETATM   33  N   UNK N   1      25.544  19.634   4.875  0.00  0.00     0.087 N 
HETATM   34  C   UNK N   1      25.835  18.200   4.797  0.00  0.00     0.302 C 
HETATM   35  C   UNK N   1      25.031  20.041   3.579  0.00  0.00     0.310 C 
HETATM   36  C   UNK N   1      26.975  17.809   5.739  0.00  0.00     0.303 C 
ENDBRANCH  29  30
ENDBRANCH  24  29
BRANCH   1  37
HETATM   37  C   UNK N   1      34.857  12.402   8.717  0.00  0.00     0.049 C 
HETATM   38  C   UNK N   1      34.340  11.217   9.521  0.00  0.00     0.009 C 
ENDBRANCH   1  37
BRANCH   1  39
HETATM   39  O   UNK N   1      34.259  13.539  10.745  0.00  0.00    -0.375 OA
HETATM   40  H   UNK N   1      33.788  13.583  11.592  0.00  0.00     0.211 HD
ENDBRANCH   1  39
TORSDOF 4
ENDMDL
MODEL 4
REMARK VINA RESULT:      -7.8      2.757      5.977
REMARK  4 active torsions:
REMARK  status: ('A' for Active; 'I' for Inactive)
REMARK    1  A    between atoms: C_3  and  C_2 
REMARK    2  A    between atoms: C_3  and  O_39 
REMARK    3  A    between atoms: C_26  and  C_27 
REMARK    4  A    between atoms: C_27  and  N_28 
ROOT
HETATM    1  C   UNK N   1      28.648  17.577   7.482  0.00  0.00     0.173 C 
HETATM    2  C   UNK N   1      30.136  17.296   7.360  0.00  0.00     0.002 A 
HETATM    3  C   UNK N   1      30.649  16.438   6.390  0.00  0.00     0.043 A 
HETATM    4  C   UNK N   1      32.011  16.200   6.377  0.00  0.00     0.066 A 
HETATM    5  N   UNK N   1      32.855  16.734   7.280  0.00  0.00    -0.307 N 
HETATM    6  C   UNK N   1      32.394  17.595   8.253  0.00  0.00     0.257 A 
HETATM    7  O   UNK N   1      33.166  18.083   9.063  0.00  0.00    -0.267 OA
HETATM    8  C   UNK N   1      31.014  17.898   8.294  0.00  0.00     0.044 A 
HETATM    9  C   UNK N   1      30.398  18.792   9.343  0.00  0.00     0.224 C 
HETATM   10  O   UNK N   1      29.226  18.212   9.813  0.00  0.00    -0.314 OA
HETATM   11  C   UNK N   1      28.365  17.564   8.974  0.00  0.00     0.298 C 
HETATM   12  O   UNK N   1      27.437  16.919   9.438  0.00  0.00    -0.261 OA
HETATM   13  C   UNK N   1      34.242  16.265   7.043  0.00  0.00     0.174 A 
HETATM   14  C   UNK N   1      34.039  15.397   5.804  0.00  0.00    -0.002 A 
HETATM   15  C   UNK N   1      32.716  15.406   5.457  0.00  0.00     0.068 A 
HETATM   16  N   UNK N   1      32.217  14.776   4.373  0.00  0.00    -0.353 N 
ATOM     17  HN  UNK N   1      31.219  14.819   4.166  1.00  0.00     0.166 HD
HETATM   18  C   UNK N   1      33.055  14.089   3.562  0.00  0.00     0.046 A 
HETATM   19  C   UNK N   1      32.548  13.496   2.408  0.00  0.00     0.070 A 
HETATM   20  C   UNK N   1      33.403  12.826   1.539  0.00  0.00     0.104 A 
HETATM   21  C   UNK N   1      34.771  12.726   1.830  0.00  0.00     0.103 A 
HETATM   22  C   UNK N   1      35.286  13.289   3.001  0.00  0.00     0.054 A 
HETATM   23  C   UNK N   1      34.443  13.998   3.871  0.00  0.00     0.002 A 
HETATM   24  C   UNK N   1      34.950  14.661   5.023  0.00  0.00    -0.007 A 
HETATM   25  O   UNK N   1      35.590  12.108   0.950  0.00  0.00    -0.346 OA
HETATM   26  C   UNK N   1      35.182  11.846  -0.348  0.00  0.00     0.202 C 
HETATM   27  C   UNK N   1      33.696  11.458  -0.408  0.00  0.00     0.202 C 
HETATM   28  O   UNK N   1      32.919  12.266   0.406  0.00  0.00    -0.346 OA
ENDROOT
BRANCH  24  29
HETATM   29  C   UNK N   1      36.415  14.563   5.377  0.00  0.00     0.312 C 
BRANCH  29  30
HETATM   30  N   UNK N   1      36.822  13.310   6.023  0.00  0.00     0.096 N 
HETATM   31  C   UNK N   1      38.213  13.535   6.454  0.00  0.00     0.303 C 
HETATM   32  C   UNK N   1      38.577  12.780   7.743  0.00  0.00     0.302 C 
HETATM   33  N   UNK N   1      37.694  13.119   8.872  0.00  0.00     0.087 N 
HETATM   34  C   UNK N   1      36.368  13.590   8.461  0.00  0.00     0.302 C 
HETATM   35  C   UNK N   1      38.312  14.188   9.637  0.00  0.00     0.310 C 
HETATM   36  C   UNK N   1      35.931  12.947   7.144  0.00  0.00     0.303 C 
ENDBRANCH  29  30
ENDBRANCH  24  29
BRANCH   1  37
HETATM   37  C   UNK N   1      27.739  16.576   6.734  0.00  0.00     0.049 C 
HETATM   38  C   UNK N   1      26.934  17.201   5.603  0.00  0.00     0.009 C 
ENDBRANCH   1  37
BRANCH   1  39
HETATM   39  O   UNK N   1      28.399  18.868   7.009  0.00  0.00    -0.375 OA
HETATM   40  H   UNK N   1      28.468  19.746   6.602  0.00  0.00     0.211 HD
ENDBRANCH   1  39
TORSDOF 4
ENDMDL
MODEL 5
REMARK VINA RESULT:      -7.8      2.342      8.360
REMARK  4 active torsions:
REMARK  status: ('A' for Active; 'I' for Inactive)
REMARK    1  A    between atoms: C_3  and  C_2 
REMARK    2  A    between atoms: C_3  and  O_39 
REMARK    3  A    between atoms: C_26  and  C_27 
REMARK    4  A    between atoms: C_27  and  N_28 
ROOT
HETATM    1  C   UNK N   1      36.260  13.075  12.669  0.00  0.00     0.173 C 
HETATM    2  C   UNK N   1      36.097  13.571  11.243  0.00  0.00     0.002 A 
HETATM    3  C   UNK N   1      34.921  14.171  10.797  0.00  0.00     0.043 A 
HETATM    4  C   UNK N   1      34.839  14.551   9.470  0.00  0.00     0.066 A 
HETATM    5  N   UNK N   1      35.832  14.336   8.586  0.00  0.00    -0.307 N 
HETATM    6  C   UNK N   1      37.016  13.754   8.982  0.00  0.00     0.257 A 
HETATM    7  O   UNK N   1      37.915  13.571   8.177  0.00  0.00    -0.267 OA
HETATM    8  C   UNK N   1      37.167  13.372  10.335  0.00  0.00     0.044 A 
HETATM    9  C   UNK N   1      38.403  12.688  10.864  0.00  0.00     0.224 C 
HETATM   10  O   UNK N   1      38.029  11.633  11.689  0.00  0.00    -0.314 OA
HETATM   11  C   UNK N   1      36.970  11.739  12.545  0.00  0.00     0.298 C 
HETATM   12  O   UNK N   1      36.560  10.746  13.126  0.00  0.00    -0.261 OA
HETATM   13  C   UNK N   1      35.440  14.808   7.235  0.00  0.00     0.174 A 
HETATM   14  C   UNK N   1      34.053  15.376   7.524  0.00  0.00    -0.002 A 
HETATM   15  C   UNK N   1      33.762  15.205   8.850  0.00  0.00     0.068 A 
HETATM   16  N   UNK N   1      32.630  15.647   9.435  0.00  0.00    -0.353 N 
ATOM     17  HN  UNK N   1      32.469  15.488  10.430  1.00  0.00     0.166 HD
HETATM   18  C   UNK N   1      31.711  16.304   8.689  0.00  0.00     0.046 A 
HETATM   19  C   UNK N   1      30.575  16.818   9.310  0.00  0.00     0.070 A 
HETATM   20  C   UNK N   1      29.643  17.536   8.568  0.00  0.00     0.104 A 
HETATM   21  C   UNK N   1      29.833  17.729   7.192  0.00  0.00     0.103 A 
HETATM   22  C   UNK N   1      30.953  17.192   6.552  0.00  0.00     0.054 A 
HETATM   23  C   UNK N   1      31.919  16.493   7.293  0.00  0.00     0.002 A 
HETATM   24  C   UNK N   1      33.115  16.012   6.691  0.00  0.00    -0.007 A 
HETATM   25  O   UNK N   1      28.938  18.468   6.499  0.00  0.00    -0.346 OA
HETATM   26  C   UNK N   1      28.023  19.281   7.148  0.00  0.00     0.202 C 
HETATM   27  C   UNK N   1      27.518  18.640   8.451  0.00  0.00     0.202 C 
HETATM   28  O   UNK N   1      28.548  18.055   9.170  0.00  0.00    -0.346 OA
ENDROOT
BRANCH  24  29
HETATM   29  C   UNK N   1      33.346  16.188   5.208  0.00  0.00     0.312 C 
BRANCH  29  30
HETATM   30  N   UNK N   1      33.092  14.998   4.388  0.00  0.00     0.096 N 
HETATM   31  C   UNK N   1      32.265  14.119   5.233  0.00  0.00     0.303 C 
HETATM   32  C   UNK N   1      31.270  13.267   4.428  0.00  0.00     0.302 C 
HETATM   33  N   UNK N   1      30.363  14.079   3.598  0.00  0.00     0.087 N 
HETATM   34  C   UNK N   1      30.915  15.387   3.232  0.00  0.00     0.302 C 
HETATM   35  C   UNK N   1      29.144  14.321   4.348  0.00  0.00     0.310 C 
HETATM   36  C   UNK N   1      32.438  15.336   3.106  0.00  0.00     0.303 C 
ENDBRANCH  29  30
ENDBRANCH  24  29
BRANCH   1  37
HETATM   37  C   UNK N   1      34.938  12.932  13.456  0.00  0.00     0.049 C 
HETATM   38  C   UNK N   1      35.102  13.062  14.964  0.00  0.00     0.009 C 
ENDBRANCH   1  37
BRANCH   1  39
HETATM   39  O   UNK N   1      37.109  13.951  13.350  0.00  0.00    -0.375 OA
HETATM   40  H   UNK N   1      37.489  14.604  13.958  0.00  0.00     0.211 HD
ENDBRANCH   1  39
TORSDOF 4
ENDMDL
MODEL 6
REMARK VINA RESULT:      -7.7      5.470      7.782
REMARK  4 active torsions:
REMARK  status: ('A' for Active; 'I' for Inactive)
REMARK    1  A    between atoms: C_3  and  C_2 
REMARK    2  A    between atoms: C_3  and  O_39 
REMARK    3  A    between atoms: C_26  and  C_27 
REMARK    4  A    between atoms: C_27  and  N_28 
ROOT
HETATM    1  C   UNK N   1      21.172  16.247   3.173  0.00  0.00     0.173 C 
HETATM    2  C   UNK N   1      22.575  15.759   2.856  0.00  0.00     0.002 A 
HETATM    3  C   UNK N   1      23.685  16.172   3.589  0.00  0.00     0.043 A 
HETATM    4  C   UNK N   1      24.933  15.717   3.205  0.00  0.00     0.066 A 
HETATM    5  N   UNK N   1      25.123  14.921   2.136  0.00  0.00    -0.307 N 
HETATM    6  C   UNK N   1      24.055  14.480   1.385  0.00  0.00     0.257 A 
HETATM    7  O   UNK N   1      24.234  13.751   0.423  0.00  0.00    -0.267 OA
HETATM    8  C   UNK N   1      22.752  14.890   1.751  0.00  0.00     0.044 A 
HETATM    9  C   UNK N   1      21.518  14.502   0.974  0.00  0.00     0.224 C 
HETATM   10  O   UNK N   1      20.703  15.616   0.816  0.00  0.00    -0.314 OA
HETATM   11  C   UNK N   1      20.536  16.525   1.822  0.00  0.00     0.298 C 
HETATM   12  O   UNK N   1      19.956  17.576   1.598  0.00  0.00    -0.261 OA
HETATM   13  C   UNK N   1      26.567  14.636   1.945  0.00  0.00     0.174 A 
HETATM   14  C   UNK N   1      27.162  15.382   3.137  0.00  0.00    -0.002 A 
HETATM   15  C   UNK N   1      26.157  15.986   3.841  0.00  0.00     0.068 A 
HETATM   16  N   UNK N   1      26.348  16.681   4.980  0.00  0.00    -0.353 N 
ATOM     17  HN  UNK N   1      25.557  17.110   5.461  1.00  0.00     0.166 HD
HETATM   18  C   UNK N   1      27.600  16.803   5.481  0.00  0.00     0.046 A 
HETATM   19  C   UNK N   1      27.786  17.464   6.693  0.00  0.00     0.070 A 
HETATM   20  C   UNK N   1      29.059  17.557   7.244  0.00  0.00     0.104 A 
HETATM   21  C   UNK N   1      30.162  17.005   6.576  0.00  0.00     0.103 A 
HETATM   22  C   UNK N   1      29.992  16.367   5.344  0.00  0.00     0.054 A 
HETATM   23  C   UNK N   1      28.709  16.235   4.790  0.00  0.00     0.002 A 
HETATM   24  C   UNK N   1      28.490  15.512   3.584  0.00  0.00    -0.007 A 
HETATM   25  O   UNK N   1      31.382  17.069   7.151  0.00  0.00    -0.346 OA
HETATM   26  C   UNK N   1      31.528  17.382   8.494  0.00  0.00     0.202 C 
HETATM   27  C   UNK N   1      30.504  18.436   8.944  0.00  0.00     0.202 C 
HETATM   28  O   UNK N   1      29.242  18.181   8.431  0.00  0.00    -0.346 OA
ENDROOT
BRANCH  24  29
HETATM   29  C   UNK N   1      29.655  14.918   2.829  0.00  0.00     0.312 C 
BRANCH  29  30
HETATM   30  N   UNK N   1      29.957  13.517   3.143  0.00  0.00     0.096 N 
HETATM   31  C   UNK N   1      29.768  12.790   1.875  0.00  0.00     0.303 C 
HETATM   32  C   UNK N   1      30.709  11.583   1.723  0.00  0.00     0.302 C 
HETATM   33  N   UNK N   1      32.131  11.953   1.823  0.00  0.00     0.087 N 
HETATM   34  C   UNK N   1      32.369  13.174   2.599  0.00  0.00     0.302 C 
HETATM   35  C   UNK N   1      32.643  12.186   0.485  0.00  0.00     0.310 C 
HETATM   36  C   UNK N   1      31.318  13.352   3.696  0.00  0.00     0.303 C 
ENDBRANCH  29  30
ENDBRANCH  24  29
BRANCH   1  37
HETATM   37  C   UNK N   1      21.113  17.494   4.083  0.00  0.00     0.049 C 
HETATM   38  C   UNK N   1      20.736  17.186   5.526  0.00  0.00     0.009 C 
ENDBRANCH   1  37
BRANCH   1  39
HETATM   39  O   UNK N   1      20.463  15.203   3.774  0.00  0.00    -0.375 OA
HETATM   40  H   UNK N   1      20.183  14.461   4.332  0.00  0.00     0.211 HD
ENDBRANCH   1  39
TORSDOF 4
ENDMDL
MODEL 7
REMARK VINA RESULT:      -7.6      5.439     10.702
REMARK  4 active torsions:
REMARK  status: ('A' for Active; 'I' for Inactive)
REMARK    1  A    between atoms: C_3  and  C_2 
REMARK    2  A    between atoms: C_3  and  O_39 
REMARK    3  A    between atoms: C_26  and  C_27 
REMARK    4  A    between atoms: C_27  and  N_28 
ROOT
HETATM    1  C   UNK N   1      32.890  15.881   6.714  0.00  0.00     0.173 C 
HETATM    2  C   UNK N   1      31.387  16.097   6.699  0.00  0.00     0.002 A 
HETATM    3  C   UNK N   1      30.548  15.403   5.828  0.00  0.00     0.043 A 
HETATM    4  C   UNK N   1      29.197  15.694   5.846  0.00  0.00     0.066 A 
HETATM    5  N   UNK N   1      28.663  16.639   6.643  0.00  0.00    -0.307 N 
HETATM    6  C   UNK N   1      29.451  17.345   7.526  0.00  0.00     0.257 A 
HETATM    7  O   UNK N   1      28.959  18.194   8.252  0.00  0.00    -0.267 OA
HETATM    8  C   UNK N   1      30.837  17.067   7.572  0.00  0.00     0.044 A 
HETATM    9  C   UNK N   1      31.796  17.811   8.469  0.00  0.00     0.224 C 
HETATM   10  O   UNK N   1      32.940  18.138   7.750  0.00  0.00    -0.314 OA
HETATM   11  C   UNK N   1      33.488  17.270   6.849  0.00  0.00     0.298 C 
HETATM   12  O   UNK N   1      34.385  17.649   6.111  0.00  0.00    -0.261 OA
HETATM   13  C   UNK N   1      27.203  16.757   6.410  0.00  0.00     0.174 A 
HETATM   14  C   UNK N   1      26.994  15.667   5.362  0.00  0.00    -0.002 A 
HETATM   15  C   UNK N   1      28.195  15.075   5.080  0.00  0.00     0.068 A 
HETATM   16  N   UNK N   1      28.342  14.038   4.231  0.00  0.00    -0.353 N 
ATOM     17  HN  UNK N   1      29.265  13.638   4.061  1.00  0.00     0.166 HD
HETATM   18  C   UNK N   1      27.252  13.531   3.607  0.00  0.00     0.046 A 
HETATM   19  C   UNK N   1      27.397  12.418   2.783  0.00  0.00     0.070 A 
HETATM   20  C   UNK N   1      26.281  11.857   2.171  0.00  0.00     0.104 A 
HETATM   21  C   UNK N   1      25.011  12.419   2.366  0.00  0.00     0.103 A 
HETATM   22  C   UNK N   1      24.857  13.555   3.166  0.00  0.00     0.054 A 
HETATM   23  C   UNK N   1      25.968  14.113   3.816  0.00  0.00     0.002 A 
HETATM   24  C   UNK N   1      25.834  15.213   4.710  0.00  0.00    -0.007 A 
HETATM   25  O   UNK N   1      23.935  11.831   1.798  0.00  0.00    -0.346 OA
HETATM   26  C   UNK N   1      24.004  10.542   1.294  0.00  0.00     0.202 C 
HETATM   27  C   UNK N   1      25.363  10.263   0.634  0.00  0.00     0.202 C 
HETATM   28  O   UNK N   1      26.414  10.764   1.386  0.00  0.00    -0.346 OA
ENDROOT
BRANCH  24  29
HETATM   29  C   UNK N   1      24.484  15.854   4.931  0.00  0.00     0.312 C 
BRANCH  29  30
HETATM   30  N   UNK N   1      23.930  15.700   6.282  0.00  0.00     0.096 N 
HETATM   31  C   UNK N   1      22.597  16.326   6.223  0.00  0.00     0.303 C 
HETATM   32  C   UNK N   1      21.573  15.656   7.154  0.00  0.00     0.302 C 
HETATM   33  N   UNK N   1      21.409  14.218   6.882  0.00  0.00     0.087 N 
HETATM   34  C   UNK N   1      22.583  13.599   6.260  0.00  0.00     0.302 C 
HETATM   35  C   UNK N   1      20.295  14.046   5.967  0.00  0.00     0.310 C 
HETATM   36  C   UNK N   1      23.876  14.285   6.703  0.00  0.00     0.303 C 
ENDBRANCH  29  30
ENDBRANCH  24  29
BRANCH   1  37
HETATM   37  C   UNK N   1      33.449  15.152   5.472  0.00  0.00     0.049 C 
HETATM   38  C   UNK N   1      34.476  14.076   5.799  0.00  0.00     0.009 C 
ENDBRANCH   1  37
BRANCH   1  39
HETATM   39  O   UNK N   1      33.223  15.157   7.862  0.00  0.00    -0.375 OA
HETATM   40  H   UNK N   1      33.685  14.654   8.551  0.00  0.00     0.211 HD
ENDBRANCH   1  39
TORSDOF 4
ENDMDL
MODEL 8
REMARK VINA RESULT:      -7.5      3.884      6.660
REMARK  4 active torsions:
REMARK  status: ('A' for Active; 'I' for Inactive)
REMARK    1  A    between atoms: C_3  and  C_2 
REMARK    2  A    between atoms: C_3  and  O_39 
REMARK    3  A    between atoms: C_26  and  C_27 
REMARK    4  A    between atoms: C_27  and  N_28 
ROOT
HETATM    1  C   UNK N   1      33.335  16.100   7.396  0.00  0.00     0.173 C 
HETATM    2  C   UNK N   1      34.157  14.895   7.817  0.00  0.00     0.002 A 
HETATM    3  C   UNK N   1      34.405  14.600   9.156  0.00  0.00     0.043 A 
HETATM    4  C   UNK N   1      35.203  13.510   9.452  0.00  0.00     0.066 A 
HETATM    5  N   UNK N   1      35.775  12.744   8.504  0.00  0.00    -0.307 N 
HETATM    6  C   UNK N   1      35.552  12.991   7.167  0.00  0.00     0.257 A 
HETATM    7  O   UNK N   1      36.066  12.287   6.313  0.00  0.00    -0.267 OA
HETATM    8  C   UNK N   1      34.719  14.076   6.807  0.00  0.00     0.044 A 
HETATM    9  C   UNK N   1      34.444  14.462   5.374  0.00  0.00     0.224 C 
HETATM   10  O   UNK N   1      34.544  15.842   5.241  0.00  0.00    -0.314 OA
HETATM   11  C   UNK N   1      34.075  16.687   6.206  0.00  0.00     0.298 C 
HETATM   12  O   UNK N   1      34.330  17.879   6.143  0.00  0.00    -0.261 OA
HETATM   13  C   UNK N   1      36.607  11.682   9.121  0.00  0.00     0.174 A 
HETATM   14  C   UNK N   1      36.365  11.957  10.603  0.00  0.00    -0.002 A 
HETATM   15  C   UNK N   1      35.529  13.032  10.733  0.00  0.00     0.068 A 
HETATM   16  N   UNK N   1      35.078  13.497  11.916  0.00  0.00    -0.353 N 
ATOM     17  HN  UNK N   1      34.455  14.304  11.949  1.00  0.00     0.166 HD
HETATM   18  C   UNK N   1      35.460  12.880  13.059  0.00  0.00     0.046 A 
HETATM   19  C   UNK N   1      34.941  13.321  14.274  0.00  0.00     0.070 A 
HETATM   20  C   UNK N   1      35.286  12.670  15.454  0.00  0.00     0.104 A 
HETATM   21  C   UNK N   1      36.171  11.583  15.428  0.00  0.00     0.103 A 
HETATM   22  C   UNK N   1      36.724  11.152  14.219  0.00  0.00     0.054 A 
HETATM   23  C   UNK N   1      36.360  11.776  13.016  0.00  0.00     0.002 A 
HETATM   24  C   UNK N   1      36.831  11.305  11.759  0.00  0.00    -0.007 A 
HETATM   25  O   UNK N   1      36.458  10.938  16.580  0.00  0.00    -0.346 OA
HETATM   26  C   UNK N   1      35.684  11.117  17.716  0.00  0.00     0.202 C 
HETATM   27  C   UNK N   1      35.200  12.569  17.848  0.00  0.00     0.202 C 
HETATM   28  O   UNK N   1      34.768  13.082  16.634  0.00  0.00    -0.346 OA
ENDROOT
BRANCH  24  29
HETATM   29  C   UNK N   1      37.798  10.146  11.694  0.00  0.00     0.312 C 
BRANCH  29  30
HETATM   30  N   UNK N   1      37.268   8.920  11.086  0.00  0.00     0.096 N 
HETATM   31  C   UNK N   1      38.316   7.905  11.296  0.00  0.00     0.303 C 
HETATM   32  C   UNK N   1      37.755   6.485  11.479  0.00  0.00     0.302 C 
HETATM   33  N   UNK N   1      36.802   6.387  12.597  0.00  0.00     0.087 N 
HETATM   34  C   UNK N   1      36.137   7.655  12.916  0.00  0.00     0.302 C 
HETATM   35  C   UNK N   1      37.526   5.970  13.785  0.00  0.00     0.310 C 
HETATM   36  C   UNK N   1      35.970   8.526  11.671  0.00  0.00     0.303 C 
ENDBRANCH  29  30
ENDBRANCH  24  29
BRANCH   1  37
HETATM   37  C   UNK N   1      33.130  17.160   8.502  0.00  0.00     0.049 C 
HETATM   38  C   UNK N   1      31.768  17.837   8.461  0.00  0.00     0.009 C 
ENDBRANCH   1  37
BRANCH   1  39
HETATM   39  O   UNK N   1      32.089  15.654   6.948  0.00  0.00    -0.375 OA
HETATM   40  H   UNK N   1      31.324  15.398   6.410  0.00  0.00     0.211 HD
ENDBRANCH   1  39
TORSDOF 4
ENDMDL
MODEL 9
REMARK VINA RESULT:      -7.5      6.501     10.415
REMARK  4 active torsions:
REMARK  status: ('A' for Active; 'I' for Inactive)
REMARK    1  A    between atoms: C_3  and  C_2 
REMARK    2  A    between atoms: C_3  and  O_39 
REMARK    3  A    between atoms: C_26  and  C_27 
REMARK    4  A    between atoms: C_27  and  N_28 
ROOT
HETATM    1  C   UNK N   1      19.864  14.707   3.017  0.00  0.00     0.173 C 
HETATM    2  C   UNK N   1      21.220  15.376   3.153  0.00  0.00     0.002 A 
HETATM    3  C   UNK N   1      22.409  14.700   2.890  0.00  0.00     0.043 A 
HETATM    4  C   UNK N   1      23.603  15.370   3.084  0.00  0.00     0.066 A 
HETATM    5  N   UNK N   1      23.666  16.633   3.547  0.00  0.00    -0.307 N 
HETATM    6  C   UNK N   1      22.517  17.345   3.813  0.00  0.00     0.257 A 
HETATM    7  O   UNK N   1      22.581  18.492   4.223  0.00  0.00    -0.267 OA
HETATM    8  C   UNK N   1      21.266  16.719   3.603  0.00  0.00     0.044 A 
HETATM    9  C   UNK N   1      19.949  17.391   3.905  0.00  0.00     0.224 C 
HETATM   10  O   UNK N   1      19.116  16.498   4.568  0.00  0.00    -0.314 OA
HETATM   11  C   UNK N   1      19.068  15.177   4.222  0.00  0.00     0.298 C 
HETATM   12  O   UNK N   1      18.462  14.388   4.929  0.00  0.00    -0.261 OA
HETATM   13  C   UNK N   1      25.077  17.067   3.694  0.00  0.00     0.174 A 
HETATM   14  C   UNK N   1      25.809  15.828   3.184  0.00  0.00    -0.002 A 
HETATM   15  C   UNK N   1      24.894  14.874   2.833  0.00  0.00     0.068 A 
HETATM   16  N   UNK N   1      25.219  13.680   2.296  0.00  0.00    -0.353 N 
ATOM     17  HN  UNK N   1      24.490  13.008   2.055  1.00  0.00     0.166 HD
HETATM   18  C   UNK N   1      26.522  13.384   2.078  0.00  0.00     0.046 A 
HETATM   19  C   UNK N   1      26.850  12.179   1.462  0.00  0.00     0.070 A 
HETATM   20  C   UNK N   1      28.180  11.878   1.188  0.00  0.00     0.104 A 
HETATM   21  C   UNK N   1      29.196  12.776   1.548  0.00  0.00     0.103 A 
HETATM   22  C   UNK N   1      28.881  13.974   2.196  0.00  0.00     0.054 A 
HETATM   23  C   UNK N   1      27.542  14.307   2.449  0.00  0.00     0.002 A 
HETATM   24  C   UNK N   1      27.180  15.558   3.023  0.00  0.00    -0.007 A 
HETATM   25  O   UNK N   1      30.477  12.484   1.233  0.00  0.00    -0.346 OA
HETATM   26  C   UNK N   1      30.782  11.494   0.312  0.00  0.00     0.202 C 
HETATM   27  C   UNK N   1      29.816  10.304   0.418  0.00  0.00     0.202 C 
HETATM   28  O   UNK N   1      28.502  10.718   0.571  0.00  0.00    -0.346 OA
ENDROOT
BRANCH  24  29
HETATM   29  C   UNK N   1      28.248  16.543   3.438  0.00  0.00     0.312 C 
BRANCH  29  30
HETATM   30  N   UNK N   1      28.993  16.187   4.651  0.00  0.00     0.096 N 
HETATM   31  C   UNK N   1      29.719  17.413   5.028  0.00  0.00     0.303 C 
HETATM   32  C   UNK N   1      29.904  17.563   6.547  0.00  0.00     0.302 C 
HETATM   33  N   UNK N   1      28.628  17.550   7.282  0.00  0.00     0.087 N 
HETATM   34  C   UNK N   1      27.554  16.838   6.582  0.00  0.00     0.302 C 
HETATM   35  C   UNK N   1      28.187  18.921   7.466  0.00  0.00     0.310 C 
HETATM   36  C   UNK N   1      28.105  15.698   5.725  0.00  0.00     0.303 C 
ENDBRANCH  29  30
ENDBRANCH  24  29
BRANCH   1  37
HETATM   37  C   UNK N   1      19.911  13.164   2.949  0.00  0.00     0.049 C 
HETATM   38  C   UNK N   1      19.594  12.599   1.571  0.00  0.00     0.009 C 
ENDBRANCH   1  37
BRANCH   1  39
HETATM   39  O   UNK N   1      19.237  15.200   1.870  0.00  0.00    -0.375 OA
HETATM   40  H   UNK N   1      18.695  15.312   1.073  0.00  0.00     0.211 HD
ENDBRANCH   1  39
TORSDOF 4
ENDMDL
