REMARK  11 active torsions:
REMARK  status: ('A' for Active; 'I' for Inactive)
REMARK    1  A    between atoms: C_2  and  O_3 
REMARK    2  A    between atoms: O_3  and  C_4 
REMARK    3  A    between atoms: C_7  and  C_10 
REMARK    4  A    between atoms: C_10  and  C_11 
REMARK    5  A    between atoms: C_20  and  C_13 
REMARK    6  A    between atoms: C_14  and  O_18 
REMARK    7  A    between atoms: C_21  and  O_30 
REMARK    8  A    between atoms: C_22  and  O_29 
REMARK    9  A    between atoms: C_23  and  O_28 
REMARK   10  A    between atoms: C_24  and  C_26 
REMARK   11  A    between atoms: C_26  and  O_27 
ROOT
HETATM    1  C   UNK N   1      -1.493  -6.501   0.721  0.00  0.00    -0.047 A 
HETATM    2  C   UNK N   1      -1.334  -7.739   0.081  0.00  0.00     0.019 A 
HETATM    3  C   UNK N   1      -2.433  -8.442  -0.457  0.00  0.00    -0.008 A 
HETATM    4  C   UNK N   1      -3.722  -7.858  -0.355  0.00  0.00     0.076 A 
HETATM    5  C   UNK N   1      -3.875  -6.625   0.293  0.00  0.00     0.044 A 
HETATM    6  C   UNK N   1      -2.787  -5.948   0.830  0.00  0.00    -0.053 A 
HETATM    7  C   UNK N   1      -3.047  -4.645   1.505  0.00  0.00     0.049 C 
ENDROOT
BRANCH   3   8
HETATM    8  C   UNK N   1      -2.186  -9.755  -1.209  0.00  0.00     0.115 C 
HETATM    9  C   UNK N   1      -0.880 -10.535  -1.050  0.00  0.00     0.167 C 
HETATM   10  C   UNK N   1      -0.817 -11.454   0.168  0.00  0.00     0.178 C 
HETATM   11  C   UNK N   1      -2.179 -11.708   0.829  0.00  0.00     0.165 C 
HETATM   12  C   UNK N   1      -3.300 -12.113  -0.137  0.00  0.00     0.103 C 
HETATM   13  S   UNK N   1      -3.569 -10.921  -1.518  0.00  0.00    -0.147 SA
BRANCH   9  14
HETATM   14  O   UNK N   1       0.262  -9.741  -1.155  0.00  0.00    -0.391 OA
HETATM   15  H   UNK N   1       1.137 -10.153  -1.228  0.00  0.00     0.210 HD
ENDBRANCH   9  14
BRANCH  10  16
HETATM   16  O   UNK N   1      -0.209 -12.655  -0.207  0.00  0.00    -0.390 OA
HETATM   17  H   UNK N   1      -0.720 -13.437  -0.468  0.00  0.00     0.210 HD
ENDBRANCH  10  16
BRANCH  11  18
HETATM   18  O   UNK N   1      -2.036 -12.667   1.837  0.00  0.00    -0.392 OA
HETATM   19  H   UNK N   1      -2.562 -13.086   2.536  0.00  0.00     0.210 HD
ENDBRANCH  11  18
BRANCH  12  20
HETATM   20  C   UNK N   1      -4.596 -12.238   0.654  0.00  0.00     0.181 C 
BRANCH  20  21
HETATM   21  O   UNK N   1      -5.617 -12.742  -0.153  0.00  0.00    -0.400 OA
HETATM   22  H   UNK N   1      -6.275 -12.303  -0.715  0.00  0.00     0.209 HD
ENDBRANCH  20  21
ENDBRANCH  12  20
ENDBRANCH   3   8
BRANCH   4  23
HETATM   23  O   UNK N   1      -4.806  -8.477  -0.887  0.00  0.00    -0.355 OA
HETATM   24  C   UNK N   1      -6.086  -7.976  -0.805  0.00  0.00     0.210 C 
ENDBRANCH   4  23
BRANCH   1  25
HETATM   25  C   UNK N   1      -0.276  -5.809   1.293  0.00  0.00     0.077 C 
BRANCH  25  26
HETATM   26  C   UNK N   1      -0.091  -4.429   0.738  0.00  0.00    -0.054 A 
HETATM   27  C   UNK N   1       0.234  -4.231  -0.610  0.00  0.00     0.010 A 
HETATM   28  C   UNK N   1       0.294  -2.934  -1.131  0.00  0.00     0.037 A 
HETATM   29  C   UNK N   1       0.006  -1.831  -0.318  0.00  0.00     0.068 A 
HETATM   30  C   UNK N   1      -0.284  -2.034   1.042  0.00  0.00     0.037 A 
HETATM   31  C   UNK N   1      -0.321  -3.326   1.566  0.00  0.00     0.010 A 
BRANCH  29  32
HETATM   32  O   UNK N   1      -0.024  -0.594  -0.870  0.00  0.00    -0.352 OA
BRANCH  32  33
HETATM   33  C   UNK N   1      -0.602   0.496  -0.252  0.00  0.00     0.171 C 
HETATM   34  C   UNK N   1      -2.118   0.390  -0.329  0.00  0.00     0.034 C 
ENDBRANCH  32  33
ENDBRANCH  29  32
ENDBRANCH  25  26
ENDBRANCH   1  25
TORSDOF 11
