MODEL 1
REMARK VINA RESULT:      -8.7      0.000      0.000
REMARK  5 active torsions:
REMARK  status: ('A' for Active; 'I' for Inactive)
REMARK    1  A    between atoms: C_14  and  C_16 
REMARK    2  A    between atoms: C_16  and  N_17 
REMARK    3  A    between atoms: C_20  and  N_23 
REMARK    4  A    between atoms: N_23  and  C_24 
REMARK    5  A    between atoms: C_24  and  C_25 
ROOT
HETATM    1  N   UNK N   1      33.723  15.257   9.295  0.00  0.00     0.090 N 
HETATM    2  C   UNK N   1      34.534  16.467   9.403  0.00  0.00     0.274 C 
HETATM    3  C   UNK N   1      35.276  16.435  10.750  0.00  0.00     0.055 C 
HETATM    4  C   UNK N   1      36.116  15.155  10.851  0.00  0.00     0.080 C 
HETATM    5  C   UNK N   1      35.272  13.916  10.545  0.00  0.00     0.055 C 
HETATM    6  C   UNK N   1      34.614  14.107   9.197  0.00  0.00     0.274 C 
ENDROOT
BRANCH   1   7
HETATM    7  C   UNK N   1      32.871  15.266   8.116  0.00  0.00     0.299 C 
BRANCH   7   8
HETATM    8  C   UNK N   1      32.299  16.678   7.944  0.00  0.00     0.141 A 
HETATM    9  N   UNK N   1      32.178  17.052   6.532  0.00  0.00    -0.289 N 
HETATM   10  C   UNK N   1      33.145  17.183   5.566  0.00  0.00     0.265 A 
HETATM   11  C   UNK N   1      30.908  17.305   6.250  0.00  0.00     0.143 A 
HETATM   12  C   UNK N   1      32.752  17.588   4.272  0.00  0.00     0.163 A 
HETATM   13  O   UNK N   1      34.315  16.958   5.816  0.00  0.00    -0.266 OA
HETATM   14  N   UNK N   1      31.429  17.842   4.008  0.00  0.00    -0.358 N 
HETATM   15  C   UNK N   1      30.495  17.701   4.988  0.00  0.00     0.077 A 
ATOM     16  HN  UNK N   1      31.145  18.135   3.073  1.00  0.00     0.165 HD
HETATM   17  C   UNK N   1      29.129  17.945   4.785  0.00  0.00     0.039 A 
HETATM   18  C   UNK N   1      28.231  17.772   5.862  0.00  0.00     0.077 A 
HETATM   19  C   UNK N   1      28.723  17.368   7.119  0.00  0.00     0.249 A 
HETATM   20  O   UNK N   1      27.964  17.213   8.059  0.00  0.00    -0.268 OA
HETATM   21  N   UNK N   1      30.071  17.153   7.264  0.00  0.00    -0.296 N 
HETATM   22  C   UNK N   1      30.811  16.754   8.452  0.00  0.00     0.161 A 
ENDBRANCH   7   8
ENDBRANCH   1   7
BRANCH   4  23
HETATM   23  N   UNK N   1      36.736  15.020  12.164  0.00  0.00    -0.412 N 
HETATM   24  H   UNK N   1      37.705  15.211  12.415  0.00  0.00     0.153 HD
BRANCH  23  25
HETATM   25  C   UNK N   1      35.670  14.553  13.040  0.00  0.00     0.171 C 
BRANCH  25  26
HETATM   26  C   UNK N   1      36.118  13.464  13.947  0.00  0.00     0.027 A 
HETATM   27  C   UNK N   1      35.491  13.297  15.186  0.00  0.00     0.036 A 
HETATM   28  C   UNK N   1      35.827  12.202  15.981  0.00  0.00    -0.021 A 
HETATM   29  C   UNK N   1      36.778  11.275  15.520  0.00  0.00     0.090 A 
HETATM   30  C   UNK N   1      35.156  11.993  17.304  0.00  0.00     0.043 C 
HETATM   31  C   UNK N   1      37.383  11.482  14.278  0.00  0.00     0.125 A 
HETATM   32  O   UNK N   1      37.098  10.183  16.257  0.00  0.00    -0.349 OA
HETATM   33  N   UNK N   1      37.042  12.560  13.522  0.00  0.00    -0.365 N 
ATOM     34  HN  UNK N   1      37.489  12.695  12.615  1.00  0.00     0.165 HD
HETATM   35  C   UNK N   1      36.603   9.960  17.534  0.00  0.00     0.176 C 
HETATM   36  C   UNK N   1      35.187  10.517  17.696  0.00  0.00     0.031 C 
ENDBRANCH  25  26
ENDBRANCH  23  25
ENDBRANCH   4  23
TORSDOF 5
ENDMDL
MODEL 2
REMARK VINA RESULT:      -8.6      1.825      2.891
REMARK  5 active torsions:
REMARK  status: ('A' for Active; 'I' for Inactive)
REMARK    1  A    between atoms: C_14  and  C_16 
REMARK    2  A    between atoms: C_16  and  N_17 
REMARK    3  A    between atoms: C_20  and  N_23 
REMARK    4  A    between atoms: N_23  and  C_24 
REMARK    5  A    between atoms: C_24  and  C_25 
ROOT
HETATM    1  N   UNK N   1      33.279  16.499   8.119  0.00  0.00     0.090 N 
HETATM    2  C   UNK N   1      34.267  17.339   8.791  0.00  0.00     0.274 C 
HETATM    3  C   UNK N   1      34.888  16.532   9.944  0.00  0.00     0.055 C 
HETATM    4  C   UNK N   1      35.497  15.232   9.399  0.00  0.00     0.080 C 
HETATM    5  C   UNK N   1      34.487  14.468   8.541  0.00  0.00     0.055 C 
HETATM    6  C   UNK N   1      33.974  15.397   7.464  0.00  0.00     0.274 C 
ENDROOT
BRANCH   1   7
HETATM    7  C   UNK N   1      32.533  17.225   7.104  0.00  0.00     0.299 C 
BRANCH   7   8
HETATM    8  C   UNK N   1      31.197  16.507   6.880  0.00  0.00     0.141 A 
HETATM    9  N   UNK N   1      30.053  17.353   7.232  0.00  0.00    -0.289 N 
HETATM   10  C   UNK N   1      29.703  17.911   8.437  0.00  0.00     0.265 A 
HETATM   11  C   UNK N   1      29.290  17.531   6.163  0.00  0.00     0.143 A 
HETATM   12  C   UNK N   1      28.517  18.674   8.506  0.00  0.00     0.163 A 
HETATM   13  O   UNK N   1      30.394  17.750   9.426  0.00  0.00    -0.266 OA
HETATM   14  N   UNK N   1      27.747  18.841   7.382  0.00  0.00    -0.358 N 
HETATM   15  C   UNK N   1      28.123  18.277   6.202  0.00  0.00     0.077 A 
ATOM     16  HN  UNK N   1      26.890  19.393   7.432  1.00  0.00     0.165 HD
HETATM   17  C   UNK N   1      27.382  18.409   5.019  0.00  0.00     0.039 A 
HETATM   18  C   UNK N   1      27.851  17.788   3.840  0.00  0.00     0.077 A 
HETATM   19  C   UNK N   1      29.046  17.042   3.875  0.00  0.00     0.249 A 
HETATM   20  O   UNK N   1      29.466  16.500   2.868  0.00  0.00    -0.268 OA
HETATM   21  N   UNK N   1      29.726  16.938   5.063  0.00  0.00    -0.296 N 
HETATM   22  C   UNK N   1      30.956  16.217   5.351  0.00  0.00     0.161 A 
ENDBRANCH   7   8
ENDBRANCH   1   7
BRANCH   4  23
HETATM   23  N   UNK N   1      35.983  14.375  10.473  0.00  0.00    -0.412 N 
HETATM   24  H   UNK N   1      36.230  13.387  10.414  0.00  0.00     0.153 HD
BRANCH  23  25
HETATM   25  C   UNK N   1      36.042  15.234  11.648  0.00  0.00     0.171 C 
BRANCH  25  26
HETATM   26  C   UNK N   1      35.934  14.467  12.916  0.00  0.00     0.027 A 
HETATM   27  C   UNK N   1      35.070  13.370  12.988  0.00  0.00     0.036 A 
HETATM   28  C   UNK N   1      35.064  12.578  14.136  0.00  0.00    -0.021 A 
HETATM   29  C   UNK N   1      35.934  12.884  15.197  0.00  0.00     0.090 A 
HETATM   30  C   UNK N   1      34.158  11.388  14.229  0.00  0.00     0.043 C 
HETATM   31  C   UNK N   1      36.778  13.992  15.085  0.00  0.00     0.125 A 
HETATM   32  O   UNK N   1      35.972  12.111  16.309  0.00  0.00    -0.349 OA
HETATM   33  N   UNK N   1      36.765  14.752  13.957  0.00  0.00    -0.365 N 
ATOM     34  HN  UNK N   1      37.391  15.555  13.888  1.00  0.00     0.165 HD
HETATM   35  C   UNK N   1      35.104  11.051  16.524  0.00  0.00     0.176 C 
HETATM   36  C   UNK N   1      34.717  10.363  15.214  0.00  0.00     0.031 C 
ENDBRANCH  25  26
ENDBRANCH  23  25
ENDBRANCH   4  23
TORSDOF 5
ENDMDL
MODEL 3
REMARK VINA RESULT:      -8.5      2.127     11.182
REMARK  5 active torsions:
REMARK  status: ('A' for Active; 'I' for Inactive)
REMARK    1  A    between atoms: C_14  and  C_16 
REMARK    2  A    between atoms: C_16  and  N_17 
REMARK    3  A    between atoms: C_20  and  N_23 
REMARK    4  A    between atoms: N_23  and  C_24 
REMARK    5  A    between atoms: C_24  and  C_25 
ROOT
HETATM    1  N   UNK N   1      36.203  13.248  12.721  0.00  0.00     0.090 N 
HETATM    2  C   UNK N   1      37.172  12.978  11.662  0.00  0.00     0.274 C 
HETATM    3  C   UNK N   1      36.578  13.455  10.327  0.00  0.00     0.055 C 
HETATM    4  C   UNK N   1      36.212  14.943  10.422  0.00  0.00     0.080 C 
HETATM    5  C   UNK N   1      35.349  15.220  11.654  0.00  0.00     0.055 C 
HETATM    6  C   UNK N   1      36.070  14.692  12.873  0.00  0.00     0.274 C 
ENDROOT
BRANCH   1   7
HETATM    7  C   UNK N   1      36.617  12.699  14.003  0.00  0.00     0.299 C 
BRANCH   7   8
HETATM    8  C   UNK N   1      35.365  12.483  14.862  0.00  0.00     0.141 A 
HETATM    9  N   UNK N   1      35.415  11.214  15.594  0.00  0.00    -0.289 N 
HETATM   10  C   UNK N   1      35.478   9.925  15.127  0.00  0.00     0.265 A 
HETATM   11  C   UNK N   1      35.364  11.454  16.897  0.00  0.00     0.143 A 
HETATM   12  C   UNK N   1      35.488   8.869  16.064  0.00  0.00     0.163 A 
HETATM   13  O   UNK N   1      35.520   9.693  13.933  0.00  0.00    -0.266 OA
HETATM   14  N   UNK N   1      35.435   9.148  17.407  0.00  0.00    -0.358 N 
HETATM   15  C   UNK N   1      35.375  10.438  17.838  0.00  0.00     0.077 A 
ATOM     16  HN  UNK N   1      35.442   8.385  18.084  1.00  0.00     0.165 HD
HETATM   17  C   UNK N   1      35.318  10.790  19.194  0.00  0.00     0.039 A 
HETATM   18  C   UNK N   1      35.259  12.156  19.549  0.00  0.00     0.077 A 
HETATM   19  C   UNK N   1      35.249  13.137  18.537  0.00  0.00     0.249 A 
HETATM   20  O   UNK N   1      35.199  14.320  18.823  0.00  0.00    -0.268 OA
HETATM   21  N   UNK N   1      35.296  12.735  17.225  0.00  0.00    -0.296 N 
HETATM   22  C   UNK N   1      35.279  13.548  16.019  0.00  0.00     0.161 A 
ENDBRANCH   7   8
ENDBRANCH   1   7
BRANCH   4  23
HETATM   23  N   UNK N   1      35.527  15.406   9.222  0.00  0.00    -0.412 N 
HETATM   24  H   UNK N   1      35.605  15.029   8.278  0.00  0.00     0.153 HD
BRANCH  23  25
HETATM   25  C   UNK N   1      34.704  16.525   9.663  0.00  0.00     0.171 C 
BRANCH  25  26
HETATM   26  C   UNK N   1      33.608  16.833   8.708  0.00  0.00     0.027 A 
HETATM   27  C   UNK N   1      33.914  17.102   7.370  0.00  0.00     0.036 A 
HETATM   28  C   UNK N   1      32.878  17.268   6.452  0.00  0.00    -0.021 A 
HETATM   29  C   UNK N   1      31.544  17.149   6.879  0.00  0.00     0.090 A 
HETATM   30  C   UNK N   1      33.182  17.539   5.009  0.00  0.00     0.043 C 
HETATM   31  C   UNK N   1      31.283  16.884   8.226  0.00  0.00     0.125 A 
HETATM   32  O   UNK N   1      30.520  17.271   6.000  0.00  0.00    -0.349 OA
HETATM   33  N   UNK N   1      32.310  16.729   9.105  0.00  0.00    -0.365 N 
ATOM     34  HN  UNK N   1      32.103  16.531  10.084  1.00  0.00     0.165 HD
HETATM   35  C   UNK N   1      30.701  17.619   4.669  0.00  0.00     0.176 C 
HETATM   36  C   UNK N   1      32.026  17.084   4.121  0.00  0.00     0.031 C 
ENDBRANCH  25  26
ENDBRANCH  23  25
ENDBRANCH   4  23
TORSDOF 5
ENDMDL
MODEL 4
REMARK VINA RESULT:      -8.2      2.470     11.637
REMARK  5 active torsions:
REMARK  status: ('A' for Active; 'I' for Inactive)
REMARK    1  A    between atoms: C_14  and  C_16 
REMARK    2  A    between atoms: C_16  and  N_17 
REMARK    3  A    between atoms: C_20  and  N_23 
REMARK    4  A    between atoms: N_23  and  C_24 
REMARK    5  A    between atoms: C_24  and  C_25 
ROOT
HETATM    1  N   UNK N   1      35.013  12.634  14.096  0.00  0.00     0.090 N 
HETATM    2  C   UNK N   1      35.422  11.848  12.935  0.00  0.00     0.274 C 
HETATM    3  C   UNK N   1      35.539  12.791  11.726  0.00  0.00     0.055 C 
HETATM    4  C   UNK N   1      36.525  13.925  12.044  0.00  0.00     0.080 C 
HETATM    5  C   UNK N   1      36.173  14.605  13.368  0.00  0.00     0.055 C 
HETATM    6  C   UNK N   1      36.095  13.547  14.445  0.00  0.00     0.274 C 
ENDROOT
BRANCH   1   7
HETATM    7  C   UNK N   1      34.735  11.804  15.257  0.00  0.00     0.299 C 
BRANCH   7   8
HETATM    8  C   UNK N   1      36.024  11.673  16.077  0.00  0.00     0.141 A 
HETATM    9  N   UNK N   1      35.769  11.768  17.517  0.00  0.00    -0.289 N 
HETATM   10  C   UNK N   1      35.245  12.799  18.258  0.00  0.00     0.265 A 
HETATM   11  C   UNK N   1      36.158  10.647  18.109  0.00  0.00     0.143 A 
HETATM   12  C   UNK N   1      35.131  12.634  19.655  0.00  0.00     0.163 A 
HETATM   13  O   UNK N   1      34.890  13.834  17.726  0.00  0.00    -0.266 OA
HETATM   14  N   UNK N   1      35.540  11.462  20.240  0.00  0.00    -0.358 N 
HETATM   15  C   UNK N   1      36.054  10.457  19.477  0.00  0.00     0.077 A 
ATOM     16  HN  UNK N   1      35.458  11.343  21.249  1.00  0.00     0.165 HD
HETATM   17  C   UNK N   1      36.490   9.237  20.012  0.00  0.00     0.039 A 
HETATM   18  C   UNK N   1      37.009   8.251  19.143  0.00  0.00     0.077 A 
HETATM   19  C   UNK N   1      37.087   8.514  17.760  0.00  0.00     0.249 A 
HETATM   20  O   UNK N   1      37.530   7.676  16.996  0.00  0.00    -0.268 OA
HETATM   21  N   UNK N   1      36.653   9.730  17.293  0.00  0.00    -0.296 N 
HETATM   22  C   UNK N   1      36.649  10.236  15.929  0.00  0.00     0.161 A 
ENDBRANCH   7   8
ENDBRANCH   1   7
BRANCH   4  23
HETATM   23  N   UNK N   1      36.569  14.914  10.975  0.00  0.00    -0.412 N 
HETATM   24  H   UNK N   1      37.164  14.906  10.146  0.00  0.00     0.153 HD
BRANCH  23  25
HETATM   25  C   UNK N   1      35.581  15.918  11.345  0.00  0.00     0.171 C 
BRANCH  25  26
HETATM   26  C   UNK N   1      34.488  16.034  10.344  0.00  0.00     0.027 A 
HETATM   27  C   UNK N   1      34.623  16.928   9.277  0.00  0.00     0.036 A 
HETATM   28  C   UNK N   1      33.654  16.945   8.273  0.00  0.00    -0.021 A 
HETATM   29  C   UNK N   1      32.569  16.056   8.340  0.00  0.00     0.090 A 
HETATM   30  C   UNK N   1      33.786  17.883   7.112  0.00  0.00     0.043 C 
HETATM   31  C   UNK N   1      32.471  15.182   9.425  0.00  0.00     0.125 A 
HETATM   32  O   UNK N   1      31.633  16.028   7.359  0.00  0.00    -0.349 OA
HETATM   33  N   UNK N   1      33.425  15.185  10.395  0.00  0.00    -0.365 N 
ATOM     34  HN  UNK N   1      33.343  14.537  11.178  1.00  0.00     0.165 HD
HETATM   35  C   UNK N   1      31.619  16.924   6.300  0.00  0.00     0.176 C 
HETATM   36  C   UNK N   1      33.034  17.344   5.897  0.00  0.00     0.031 C 
ENDBRANCH  25  26
ENDBRANCH  23  25
ENDBRANCH   4  23
TORSDOF 5
ENDMDL
MODEL 5
REMARK VINA RESULT:      -8.2      5.297      9.199
REMARK  5 active torsions:
REMARK  status: ('A' for Active; 'I' for Inactive)
REMARK    1  A    between atoms: C_14  and  C_16 
REMARK    2  A    between atoms: C_16  and  N_17 
REMARK    3  A    between atoms: C_20  and  N_23 
REMARK    4  A    between atoms: N_23  and  C_24 
REMARK    5  A    between atoms: C_24  and  C_25 
ROOT
HETATM    1  N   UNK N   1      26.252  17.939   4.988  0.00  0.00     0.090 N 
HETATM    2  C   UNK N   1      26.968  19.159   5.353  0.00  0.00     0.274 C 
HETATM    3  C   UNK N   1      27.924  18.832   6.513  0.00  0.00     0.055 C 
HETATM    4  C   UNK N   1      28.871  17.695   6.102  0.00  0.00     0.080 C 
HETATM    5  C   UNK N   1      28.091  16.502   5.546  0.00  0.00     0.055 C 
HETATM    6  C   UNK N   1      27.204  16.991   4.423  0.00  0.00     0.274 C 
ENDROOT
BRANCH   1   7
HETATM    7  C   UNK N   1      25.218  18.182   3.994  0.00  0.00     0.299 C 
BRANCH   7   8
HETATM    8  C   UNK N   1      23.928  18.574   4.725  0.00  0.00     0.141 A 
HETATM    9  N   UNK N   1      22.913  19.094   3.805  0.00  0.00    -0.289 N 
HETATM   10  C   UNK N   1      22.942  20.198   2.988  0.00  0.00     0.265 A 
HETATM   11  C   UNK N   1      21.833  18.328   3.860  0.00  0.00     0.143 A 
HETATM   12  C   UNK N   1      21.799  20.490   2.212  0.00  0.00     0.163 A 
HETATM   13  O   UNK N   1      23.926  20.911   2.934  0.00  0.00    -0.266 OA
HETATM   14  N   UNK N   1      20.696  19.678   2.288  0.00  0.00    -0.358 N 
HETATM   15  C   UNK N   1      20.700  18.590   3.107  0.00  0.00     0.077 A 
ATOM     16  HN  UNK N   1      19.871  19.889   1.727  1.00  0.00     0.165 HD
HETATM   17  C   UNK N   1      19.607  17.721   3.231  0.00  0.00     0.039 A 
HETATM   18  C   UNK N   1      19.701  16.617   4.106  0.00  0.00     0.077 A 
HETATM   19  C   UNK N   1      20.885  16.412   4.843  0.00  0.00     0.249 A 
HETATM   20  O   UNK N   1      20.985  15.465   5.601  0.00  0.00    -0.268 OA
HETATM   21  N   UNK N   1      21.921  17.300   4.689  0.00  0.00    -0.296 N 
HETATM   22  C   UNK N   1      23.220  17.312   5.345  0.00  0.00     0.161 A 
ENDBRANCH   7   8
ENDBRANCH   1   7
BRANCH   4  23
HETATM   23  N   UNK N   1      29.709  17.264   7.214  0.00  0.00    -0.412 N 
HETATM   24  H   UNK N   1      29.451  17.206   8.199  0.00  0.00     0.153 HD
BRANCH  23  25
HETATM   25  C   UNK N   1      30.995  16.934   6.614  0.00  0.00     0.171 C 
BRANCH  25  26
HETATM   26  C   UNK N   1      32.116  17.039   7.584  0.00  0.00     0.027 A 
HETATM   27  C   UNK N   1      32.376  15.977   8.457  0.00  0.00     0.036 A 
HETATM   28  C   UNK N   1      33.502  16.027   9.278  0.00  0.00    -0.021 A 
HETATM   29  C   UNK N   1      34.366  17.133   9.207  0.00  0.00     0.090 A 
HETATM   30  C   UNK N   1      33.809  14.893  10.208  0.00  0.00     0.043 C 
HETATM   31  C   UNK N   1      34.067  18.174   8.325  0.00  0.00     0.125 A 
HETATM   32  O   UNK N   1      35.486  17.189   9.970  0.00  0.00    -0.349 OA
HETATM   33  N   UNK N   1      32.960  18.106   7.536  0.00  0.00    -0.365 N 
ATOM     34  HN  UNK N   1      32.758  18.872   6.893  1.00  0.00     0.165 HD
HETATM   35  C   UNK N   1      35.798  16.235  10.927  0.00  0.00     0.176 C 
HETATM   36  C   UNK N   1      35.303  14.845  10.523  0.00  0.00     0.031 C 
ENDBRANCH  25  26
ENDBRANCH  23  25
ENDBRANCH   4  23
TORSDOF 5
ENDMDL
MODEL 6
REMARK VINA RESULT:      -8.1      2.065     10.795
REMARK  5 active torsions:
REMARK  status: ('A' for Active; 'I' for Inactive)
REMARK    1  A    between atoms: C_14  and  C_16 
REMARK    2  A    between atoms: C_16  and  N_17 
REMARK    3  A    between atoms: C_20  and  N_23 
REMARK    4  A    between atoms: N_23  and  C_24 
REMARK    5  A    between atoms: C_24  and  C_25 
ROOT
HETATM    1  N   UNK N   1      35.605  13.482  11.216  0.00  0.00     0.090 N 
HETATM    2  C   UNK N   1      34.926  13.405   9.925  0.00  0.00     0.274 C 
HETATM    3  C   UNK N   1      34.080  14.677   9.744  0.00  0.00     0.055 C 
HETATM    4  C   UNK N   1      34.976  15.918   9.863  0.00  0.00     0.080 C 
HETATM    5  C   UNK N   1      35.815  15.872  11.141  0.00  0.00     0.055 C 
HETATM    6  C   UNK N   1      36.578  14.567  11.166  0.00  0.00     0.274 C 
ENDROOT
BRANCH   1   7
HETATM    7  C   UNK N   1      36.316  12.256  11.541  0.00  0.00     0.299 C 
BRANCH   7   8
HETATM    8  C   UNK N   1      35.445  11.431  12.496  0.00  0.00     0.141 A 
HETATM    9  N   UNK N   1      36.250  10.583  13.379  0.00  0.00    -0.289 N 
HETATM   10  C   UNK N   1      37.117   9.562  13.076  0.00  0.00     0.265 A 
HETATM   11  C   UNK N   1      36.019  10.915  14.641  0.00  0.00     0.143 A 
HETATM   12  C   UNK N   1      37.753   8.882  14.137  0.00  0.00     0.163 A 
HETATM   13  O   UNK N   1      37.333   9.246  11.920  0.00  0.00    -0.266 OA
HETATM   14  N   UNK N   1      37.495   9.248  15.434  0.00  0.00    -0.358 N 
HETATM   15  C   UNK N   1      36.631  10.267  15.701  0.00  0.00     0.077 A 
ATOM     16  HN  UNK N   1      37.954   8.757  16.201  1.00  0.00     0.165 HD
HETATM   17  C   UNK N   1      36.324  10.689  17.002  0.00  0.00     0.039 A 
HETATM   18  C   UNK N   1      35.415  11.755  17.183  0.00  0.00     0.077 A 
HETATM   19  C   UNK N   1      34.829  12.368  16.057  0.00  0.00     0.249 A 
HETATM   20  O   UNK N   1      34.044  13.289  16.194  0.00  0.00    -0.268 OA
HETATM   21  N   UNK N   1      35.159  11.907  14.807  0.00  0.00    -0.296 N 
HETATM   22  C   UNK N   1      34.677  12.358  13.510  0.00  0.00     0.161 A 
ENDBRANCH   7   8
ENDBRANCH   1   7
BRANCH   4  23
HETATM   23  N   UNK N   1      34.197  17.150   9.826  0.00  0.00    -0.412 N 
HETATM   24  H   UNK N   1      33.589  17.521  10.556  0.00  0.00     0.153 HD
BRANCH  23  25
HETATM   25  C   UNK N   1      34.474  17.736   8.522  0.00  0.00     0.171 C 
BRANCH  25  26
HETATM   26  C   UNK N   1      33.345  17.562   7.571  0.00  0.00     0.027 A 
HETATM   27  C   UNK N   1      33.597  17.560   6.195  0.00  0.00     0.036 A 
HETATM   28  C   UNK N   1      32.557  17.274   5.310  0.00  0.00    -0.021 A 
HETATM   29  C   UNK N   1      31.279  16.977   5.813  0.00  0.00     0.090 A 
HETATM   30  C   UNK N   1      32.807  17.249   3.833  0.00  0.00     0.043 C 
HETATM   31  C   UNK N   1      31.070  16.994   7.194  0.00  0.00     0.125 A 
HETATM   32  O   UNK N   1      30.260  16.660   4.976  0.00  0.00    -0.349 OA
HETATM   33  N   UNK N   1      32.098  17.280   8.038  0.00  0.00    -0.365 N 
ATOM     34  HN  UNK N   1      31.931  17.284   9.044  1.00  0.00     0.165 HD
HETATM   35  C   UNK N   1      30.372  16.709   3.594  0.00  0.00     0.176 C 
HETATM   36  C   UNK N   1      31.786  16.356   3.130  0.00  0.00     0.031 C 
ENDBRANCH  25  26
ENDBRANCH  23  25
ENDBRANCH   4  23
TORSDOF 5
ENDMDL
MODEL 7
REMARK VINA RESULT:      -8.1      1.846      2.446
REMARK  5 active torsions:
REMARK  status: ('A' for Active; 'I' for Inactive)
REMARK    1  A    between atoms: C_14  and  C_16 
REMARK    2  A    between atoms: C_16  and  N_17 
REMARK    3  A    between atoms: C_20  and  N_23 
REMARK    4  A    between atoms: N_23  and  C_24 
REMARK    5  A    between atoms: C_24  and  C_25 
ROOT
HETATM    1  N   UNK N   1      34.232  15.339   6.996  0.00  0.00     0.090 N 
HETATM    2  C   UNK N   1      35.527  14.988   7.573  0.00  0.00     0.274 C 
HETATM    3  C   UNK N   1      35.300  14.489   9.010  0.00  0.00     0.055 C 
HETATM    4  C   UNK N   1      34.322  13.306   9.001  0.00  0.00     0.080 C 
HETATM    5  C   UNK N   1      33.050  13.649   8.223  0.00  0.00     0.055 C 
HETATM    6  C   UNK N   1      33.446  14.121   6.842  0.00  0.00     0.274 C 
ENDROOT
BRANCH   1   7
HETATM    7  C   UNK N   1      34.359  15.959   5.687  0.00  0.00     0.299 C 
BRANCH   7   8
HETATM    8  C   UNK N   1      33.455  17.197   5.648  0.00  0.00     0.141 A 
HETATM    9  N   UNK N   1      32.226  16.954   4.888  0.00  0.00    -0.289 N 
HETATM   10  C   UNK N   1      32.053  16.624   3.566  0.00  0.00     0.265 A 
HETATM   11  C   UNK N   1      31.176  17.126   5.679  0.00  0.00     0.143 A 
HETATM   12  C   UNK N   1      30.737  16.472   3.077  0.00  0.00     0.163 A 
HETATM   13  O   UNK N   1      33.009  16.468   2.830  0.00  0.00    -0.266 OA
HETATM   14  N   UNK N   1      29.670  16.655   3.920  0.00  0.00    -0.358 N 
HETATM   15  C   UNK N   1      29.875  16.980   5.226  0.00  0.00     0.077 A 
ATOM     16  HN  UNK N   1      28.720  16.545   3.566  1.00  0.00     0.165 HD
HETATM   17  C   UNK N   1      28.830  17.181   6.138  0.00  0.00     0.039 A 
HETATM   18  C   UNK N   1      29.137  17.516   7.475  0.00  0.00     0.077 A 
HETATM   19  C   UNK N   1      30.485  17.650   7.866  0.00  0.00     0.249 A 
HETATM   20  O   UNK N   1      30.770  17.937   9.015  0.00  0.00    -0.268 OA
HETATM   21  N   UNK N   1      31.468  17.450   6.929  0.00  0.00    -0.296 N 
HETATM   22  C   UNK N   1      32.911  17.549   7.083  0.00  0.00     0.161 A 
ENDBRANCH   7   8
ENDBRANCH   1   7
BRANCH   4  23
HETATM   23  N   UNK N   1      33.977  12.883  10.352  0.00  0.00    -0.412 N 
HETATM   24  H   UNK N   1      33.152  12.361  10.647  0.00  0.00     0.153 HD
BRANCH  23  25
HETATM   25  C   UNK N   1      35.065  13.366  11.191  0.00  0.00     0.171 C 
BRANCH  25  26
HETATM   26  C   UNK N   1      35.058  12.746  12.542  0.00  0.00     0.027 A 
HETATM   27  C   UNK N   1      35.573  13.458  13.630  0.00  0.00     0.036 A 
HETATM   28  C   UNK N   1      35.452  12.927  14.914  0.00  0.00    -0.021 A 
HETATM   29  C   UNK N   1      34.802  11.694  15.097  0.00  0.00     0.090 A 
HETATM   30  C   UNK N   1      35.981  13.680  16.096  0.00  0.00     0.043 C 
HETATM   31  C   UNK N   1      34.306  11.015  13.982  0.00  0.00     0.125 A 
HETATM   32  O   UNK N   1      34.640  11.173  16.338  0.00  0.00    -0.349 OA
HETATM   33  N   UNK N   1      34.439  11.550  12.739  0.00  0.00    -0.365 N 
ATOM     34  HN  UNK N   1      34.067  11.044  11.935  1.00  0.00     0.165 HD
HETATM   35  C   UNK N   1      35.182  11.749  17.478  0.00  0.00     0.176 C 
HETATM   36  C   UNK N   1      35.239  13.274  17.368  0.00  0.00     0.031 C 
ENDBRANCH  25  26
ENDBRANCH  23  25
ENDBRANCH   4  23
TORSDOF 5
ENDMDL
MODEL 8
REMARK VINA RESULT:      -8.0      2.116      3.464
REMARK  5 active torsions:
REMARK  status: ('A' for Active; 'I' for Inactive)
REMARK    1  A    between atoms: C_14  and  C_16 
REMARK    2  A    between atoms: C_16  and  N_17 
REMARK    3  A    between atoms: C_20  and  N_23 
REMARK    4  A    between atoms: N_23  and  C_24 
REMARK    5  A    between atoms: C_24  and  C_25 
ROOT
HETATM    1  N   UNK N   1      31.955  16.772   7.486  0.00  0.00     0.090 N 
HETATM    2  C   UNK N   1      33.303  17.335   7.482  0.00  0.00     0.274 C 
HETATM    3  C   UNK N   1      33.867  17.256   8.911  0.00  0.00     0.055 C 
HETATM    4  C   UNK N   1      33.840  15.802   9.402  0.00  0.00     0.080 C 
HETATM    5  C   UNK N   1      32.453  15.183   9.215  0.00  0.00     0.055 C 
HETATM    6  C   UNK N   1      32.047  15.345   7.767  0.00  0.00     0.274 C 
ENDROOT
BRANCH   1   7
HETATM    7  C   UNK N   1      31.284  16.935   6.207  0.00  0.00     0.299 C 
BRANCH   7   8
HETATM    8  C   UNK N   1      29.846  16.421   6.347  0.00  0.00     0.141 A 
HETATM    9  N   UNK N   1      28.879  17.517   6.451  0.00  0.00    -0.289 N 
HETATM   10  C   UNK N   1      28.759  18.504   7.398  0.00  0.00     0.265 A 
HETATM   11  C   UNK N   1      28.019  17.444   5.444  0.00  0.00     0.143 A 
HETATM   12  C   UNK N   1      27.703  19.433   7.271  0.00  0.00     0.163 A 
HETATM   13  O   UNK N   1      29.539  18.577   8.329  0.00  0.00    -0.266 OA
HETATM   14  N   UNK N   1      26.830  19.334   6.218  0.00  0.00    -0.358 N 
HETATM   15  C   UNK N   1      26.978  18.345   5.294  0.00  0.00     0.077 A 
ATOM     16  HN  UNK N   1      26.067  20.006   6.126  1.00  0.00     0.165 HD
HETATM   17  C   UNK N   1      26.120  18.188   4.196  0.00  0.00     0.039 A 
HETATM   18  C   UNK N   1      26.351  17.131   3.288  0.00  0.00     0.077 A 
HETATM   19  C   UNK N   1      27.430  16.251   3.504  0.00  0.00     0.249 A 
HETATM   20  O   UNK N   1      27.646  15.335   2.731  0.00  0.00    -0.268 OA
HETATM   21  N   UNK N   1      28.233  16.447   4.601  0.00  0.00    -0.296 N 
HETATM   22  C   UNK N   1      29.381  15.670   5.043  0.00  0.00     0.161 A 
ENDBRANCH   7   8
ENDBRANCH   1   7
BRANCH   4  23
HETATM   23  N   UNK N   1      34.244  15.697  10.798  0.00  0.00    -0.412 N 
HETATM   24  H   UNK N   1      33.817  16.153  11.604  0.00  0.00     0.153 HD
BRANCH  23  25
HETATM   25  C   UNK N   1      35.391  14.799  10.795  0.00  0.00     0.171 C 
BRANCH  25  26
HETATM   26  C   UNK N   1      35.375  13.855  11.943  0.00  0.00     0.027 A 
HETATM   27  C   UNK N   1      35.919  14.251  13.169  0.00  0.00     0.036 A 
HETATM   28  C   UNK N   1      35.791  13.412  14.276  0.00  0.00    -0.021 A 
HETATM   29  C   UNK N   1      35.106  12.192  14.149  0.00  0.00     0.090 A 
HETATM   30  C   UNK N   1      36.351  13.824  15.604  0.00  0.00     0.043 C 
HETATM   31  C   UNK N   1      34.582  11.833  12.904  0.00  0.00     0.125 A 
HETATM   32  O   UNK N   1      34.938  11.375  15.217  0.00  0.00    -0.349 OA
HETATM   33  N   UNK N   1      34.722  12.665  11.837  0.00  0.00    -0.365 N 
ATOM     34  HN  UNK N   1      34.330  12.391  10.936  1.00  0.00     0.165 HD
HETATM   35  C   UNK N   1      35.505  11.625  16.458  0.00  0.00     0.176 C 
HETATM   36  C   UNK N   1      35.606  13.126  16.741  0.00  0.00     0.031 C 
ENDBRANCH  25  26
ENDBRANCH  23  25
ENDBRANCH   4  23
TORSDOF 5
ENDMDL
MODEL 9
REMARK VINA RESULT:      -7.9      1.903      2.884
REMARK  5 active torsions:
REMARK  status: ('A' for Active; 'I' for Inactive)
REMARK    1  A    between atoms: C_14  and  C_16 
REMARK    2  A    between atoms: C_16  and  N_17 
REMARK    3  A    between atoms: C_20  and  N_23 
REMARK    4  A    between atoms: N_23  and  C_24 
REMARK    5  A    between atoms: C_24  and  C_25 
ROOT
HETATM    1  N   UNK N   1      32.799  16.622   7.042  0.00  0.00     0.090 N 
HETATM    2  C   UNK N   1      33.959  17.510   7.068  0.00  0.00     0.274 C 
HETATM    3  C   UNK N   1      34.322  17.793   8.535  0.00  0.00     0.055 C 
HETATM    4  C   UNK N   1      34.580  16.471   9.271  0.00  0.00     0.080 C 
HETATM    5  C   UNK N   1      33.423  15.491   9.065  0.00  0.00     0.055 C 
HETATM    6  C   UNK N   1      33.194  15.326   7.580  0.00  0.00     0.274 C 
ENDROOT
BRANCH   1   7
HETATM    7  C   UNK N   1      32.291  16.413   5.696  0.00  0.00     0.299 C 
BRANCH   7   8
HETATM    8  C   UNK N   1      31.056  17.302   5.502  0.00  0.00     0.141 A 
HETATM    9  N   UNK N   1      30.108  16.721   4.548  0.00  0.00    -0.289 N 
HETATM   10  C   UNK N   1      30.263  16.420   3.217  0.00  0.00     0.265 A 
HETATM   11  C   UNK N   1      28.946  16.513   5.152  0.00  0.00     0.143 A 
HETATM   12  C   UNK N   1      29.162  15.885   2.515  0.00  0.00     0.163 A 
HETATM   13  O   UNK N   1      31.324  16.612   2.651  0.00  0.00    -0.266 OA
HETATM   14  N   UNK N   1      27.972  15.679   3.167  0.00  0.00    -0.358 N 
HETATM   15  C   UNK N   1      27.850  15.987   4.488  0.00  0.00     0.077 A 
ATOM     16  HN  UNK N   1      27.176  15.293   2.659  1.00  0.00     0.165 HD
HETATM   17  C   UNK N   1      26.664  15.802   5.211  0.00  0.00     0.039 A 
HETATM   18  C   UNK N   1      26.631  16.149   6.579  0.00  0.00     0.077 A 
HETATM   19  C   UNK N   1      27.784  16.682   7.190  0.00  0.00     0.249 A 
HETATM   20  O   UNK N   1      27.775  16.986   8.369  0.00  0.00    -0.268 OA
HETATM   21  N   UNK N   1      28.916  16.851   6.431  0.00  0.00    -0.296 N 
HETATM   22  C   UNK N   1      30.207  17.392   6.825  0.00  0.00     0.161 A 
ENDBRANCH   7   8
ENDBRANCH   1   7
BRANCH   4  23
HETATM   23  N   UNK N   1      34.801  16.682  10.696  0.00  0.00    -0.412 N 
HETATM   24  H   UNK N   1      34.205  17.192  11.348  0.00  0.00     0.153 HD
BRANCH  23  25
HETATM   25  C   UNK N   1      36.058  16.007  10.989  0.00  0.00     0.171 C 
BRANCH  25  26
HETATM   26  C   UNK N   1      35.880  14.852  11.907  0.00  0.00     0.027 A 
HETATM   27  C   UNK N   1      36.348  14.938  13.223  0.00  0.00     0.036 A 
HETATM   28  C   UNK N   1      36.071  13.903  14.116  0.00  0.00    -0.021 A 
HETATM   29  C   UNK N   1      35.313  12.799  13.688  0.00  0.00     0.090 A 
HETATM   30  C   UNK N   1      36.547  13.981  15.534  0.00  0.00     0.043 C 
HETATM   31  C   UNK N   1      34.869  12.752  12.364  0.00  0.00     0.125 A 
HETATM   32  O   UNK N   1      35.000  11.797  14.545  0.00  0.00    -0.349 OA
HETATM   33  N   UNK N   1      35.155  13.771  11.509  0.00  0.00    -0.365 N 
ATOM     34  HN  UNK N   1      34.819  13.724  10.547  1.00  0.00     0.165 HD
HETATM   35  C   UNK N   1      35.480  11.736  15.846  0.00  0.00     0.176 C 
HETATM   36  C   UNK N   1      35.664  13.131  16.446  0.00  0.00     0.031 C 
ENDBRANCH  25  26
ENDBRANCH  23  25
ENDBRANCH   4  23
TORSDOF 5
ENDMDL
