MODEL 1
REMARK VINA RESULT:      -7.4      0.000      0.000
REMARK  5 active torsions:
REMARK  status: ('A' for Active; 'I' for Inactive)
REMARK    1  A    between atoms: C_2  and  N_3 
REMARK    2  A    between atoms: N_3  and  C_4 
REMARK    3  A    between atoms: C_10  and  N_11 
REMARK       I    between atoms: N_14  and  C_17 
REMARK    4  A    between atoms: C_17  and  C_19 
REMARK    5  A    between atoms: C_23  and  O_28 
ROOT
HETATM    1  N   UNK N   1      35.280  15.421   9.603  0.00  0.00    -0.362 N 
HETATM    2  C   UNK N   1      36.355  14.561   9.107  0.00  0.00     0.144 C 
HETATM    3  C   UNK N   1      36.345  13.177   9.813  0.00  0.00     0.146 C 
HETATM    4  N   UNK N   1      36.019  13.353  11.217  0.00  0.00    -0.344 N 
HETATM    5  C   UNK N   1      34.826  14.101  11.505  0.00  0.00     0.146 C 
HETATM    6  C   UNK N   1      35.093  15.496  11.026  0.00  0.00     0.144 C 
HETATM    7  C   UNK N   1      36.836  12.921  12.231  0.00  0.00     0.270 C 
HETATM    8  O   UNK N   1      37.830  12.253  11.971  0.00  0.00    -0.266 OA
ENDROOT
BRANCH   7   9
HETATM    9  C   UNK N   1      36.556  13.284  13.657  0.00  0.00     0.102 A 
HETATM   10  C   UNK N   1      35.772  12.567  14.568  0.00  0.00     0.049 A 
HETATM   11  C   UNK N   1      35.858  13.297  15.744  0.00  0.00    -0.004 A 
HETATM   12  C   UNK N   1      35.279  13.095  16.995  0.00  0.00     0.050 A 
HETATM   13  C   UNK N   1      36.669  14.368  15.510  0.00  0.00     0.043 A 
HETATM   14  C   UNK N   1      35.561  14.039  18.020  0.00  0.00     0.069 A 
HETATM   15  C   UNK N   1      36.416  15.131  17.755  0.00  0.00     0.039 A 
HETATM   16  C   UNK N   1      36.979  15.305  16.485  0.00  0.00     0.033 A 
HETATM   17  N   UNK N   1      37.097  14.375  14.252  0.00  0.00    -0.351 N 
HETATM   18  H   UNK N   1      37.692  15.041  13.835  0.00  0.00     0.166 HD
BRANCH  14  19
HETATM   19  O   UNK N   1      35.025  13.928  19.257  0.00  0.00    -0.356 OA
HETATM   20  C   UNK N   1      34.940  12.735  19.937  0.00  0.00     0.210 C 
ENDBRANCH  14  19
ENDBRANCH   7   9
BRANCH   1  21
HETATM   21  C   UNK N   1      34.398  16.118   8.710  0.00  0.00     0.130 A 
HETATM   22  N   UNK N   1      34.560  17.461   8.536  0.00  0.00    -0.351 N 
HETATM   23  C   UNK N   1      33.764  18.187   7.707  0.00  0.00     0.090 A 
ATOM     24  HN  UNK N   1      35.304  17.936   9.046  1.00  0.00     0.166 HD
HETATM   25  C   UNK N   1      32.736  17.570   6.998  0.00  0.00     0.019 A 
HETATM   26  C   UNK N   1      32.530  16.203   7.148  0.00  0.00     0.034 A 
HETATM   27  C   UNK N   1      33.349  15.453   7.998  0.00  0.00     0.072 A 
BRANCH  27  28
HETATM   28  N   UNK N   1      33.118  14.059   8.148  0.00  0.00    -0.387 N 
HETATM   29  H   UNK N   1      32.952  13.711   9.054  0.00  0.00     0.159 HD
BRANCH  28  30
HETATM   30  C   UNK N   1      33.112  13.126   7.052  0.00  0.00     0.115 C 
HETATM   31  C   UNK N   1      34.462  13.168   6.363  0.00  0.00     0.026 C 
ENDBRANCH  28  30
ENDBRANCH  27  28
ENDBRANCH   1  21
TORSDOF 5
ENDMDL
MODEL 2
REMARK VINA RESULT:      -7.4      4.104      9.500
REMARK  5 active torsions:
REMARK  status: ('A' for Active; 'I' for Inactive)
REMARK    1  A    between atoms: C_2  and  N_3 
REMARK    2  A    between atoms: N_3  and  C_4 
REMARK    3  A    between atoms: C_10  and  N_11 
REMARK       I    between atoms: N_14  and  C_17 
REMARK    4  A    between atoms: C_17  and  C_19 
REMARK    5  A    between atoms: C_23  and  O_28 
ROOT
HETATM    1  N   UNK N   1      35.714  14.671  10.441  0.00  0.00    -0.362 N 
HETATM    2  C   UNK N   1      36.359  15.950  10.741  0.00  0.00     0.144 C 
HETATM    3  C   UNK N   1      35.364  17.135  10.590  0.00  0.00     0.146 C 
HETATM    4  N   UNK N   1      34.503  16.900   9.445  0.00  0.00    -0.344 N 
HETATM    5  C   UNK N   1      33.825  15.633   9.407  0.00  0.00     0.146 C 
HETATM    6  C   UNK N   1      34.899  14.599   9.260  0.00  0.00     0.144 C 
HETATM    7  C   UNK N   1      34.398  17.782   8.399  0.00  0.00     0.270 C 
HETATM    8  O   UNK N   1      34.953  18.873   8.462  0.00  0.00    -0.266 OA
ENDROOT
BRANCH   7   9
HETATM    9  C   UNK N   1      33.645  17.420   7.155  0.00  0.00     0.102 A 
HETATM   10  C   UNK N   1      32.279  17.606   6.917  0.00  0.00     0.049 A 
HETATM   11  C   UNK N   1      32.091  17.143   5.623  0.00  0.00    -0.004 A 
HETATM   12  C   UNK N   1      30.943  17.053   4.837  0.00  0.00     0.050 A 
HETATM   13  C   UNK N   1      33.300  16.730   5.149  0.00  0.00     0.043 A 
HETATM   14  C   UNK N   1      31.074  16.521   3.525  0.00  0.00     0.069 A 
HETATM   15  C   UNK N   1      32.341  16.114   3.054  0.00  0.00     0.039 A 
HETATM   16  C   UNK N   1      33.473  16.216   3.872  0.00  0.00     0.033 A 
HETATM   17  N   UNK N   1      34.251  16.890   6.065  0.00  0.00    -0.351 N 
HETATM   18  H   UNK N   1      35.205  16.667   5.969  0.00  0.00     0.166 HD
BRANCH  14  19
HETATM   19  O   UNK N   1      30.008  16.382   2.705  0.00  0.00    -0.356 OA
HETATM   20  C   UNK N   1      28.706  16.493   3.135  0.00  0.00     0.210 C 
ENDBRANCH  14  19
ENDBRANCH   7   9
BRANCH   1  21
HETATM   21  C   UNK N   1      35.832  13.542  11.321  0.00  0.00     0.130 A 
HETATM   22  N   UNK N   1      34.711  13.061  11.931  0.00  0.00    -0.351 N 
HETATM   23  C   UNK N   1      34.744  11.996  12.776  0.00  0.00     0.090 A 
ATOM     24  HN  UNK N   1      33.817  13.516  11.748  1.00  0.00     0.166 HD
HETATM   25  C   UNK N   1      35.949  11.353  13.051  0.00  0.00     0.019 A 
HETATM   26  C   UNK N   1      37.118  11.812  12.455  0.00  0.00     0.034 A 
HETATM   27  C   UNK N   1      37.086  12.906  11.584  0.00  0.00     0.072 A 
BRANCH  27  28
HETATM   28  N   UNK N   1      38.292  13.369  10.991  0.00  0.00    -0.387 N 
HETATM   29  H   UNK N   1      38.740  14.145  11.398  0.00  0.00     0.159 HD
BRANCH  28  30
HETATM   30  C   UNK N   1      38.896  12.769   9.831  0.00  0.00     0.115 C 
HETATM   31  C   UNK N   1      38.743  13.712   8.653  0.00  0.00     0.026 C 
ENDBRANCH  28  30
ENDBRANCH  27  28
ENDBRANCH   1  21
TORSDOF 5
ENDMDL
MODEL 3
REMARK VINA RESULT:      -7.1      3.302      8.570
REMARK  5 active torsions:
REMARK  status: ('A' for Active; 'I' for Inactive)
REMARK    1  A    between atoms: C_2  and  N_3 
REMARK    2  A    between atoms: N_3  and  C_4 
REMARK    3  A    between atoms: C_10  and  N_11 
REMARK       I    between atoms: N_14  and  C_17 
REMARK    4  A    between atoms: C_17  and  C_19 
REMARK    5  A    between atoms: C_23  and  O_28 
ROOT
HETATM    1  N   UNK N   1      35.484  14.078  11.820  0.00  0.00    -0.362 N 
HETATM    2  C   UNK N   1      36.414  13.687  10.761  0.00  0.00     0.144 C 
HETATM    3  C   UNK N   1      36.630  14.840   9.742  0.00  0.00     0.146 C 
HETATM    4  N   UNK N   1      35.370  15.524   9.513  0.00  0.00    -0.344 N 
HETATM    5  C   UNK N   1      34.669  15.978  10.684  0.00  0.00     0.146 C 
HETATM    6  C   UNK N   1      34.270  14.739  11.426  0.00  0.00     0.144 C 
HETATM    7  C   UNK N   1      34.812  15.661   8.267  0.00  0.00     0.270 C 
HETATM    8  O   UNK N   1      35.437  15.302   7.276  0.00  0.00    -0.266 OA
ENDROOT
BRANCH   7   9
HETATM    9  C   UNK N   1      33.427  16.208   8.096  0.00  0.00     0.102 A 
HETATM   10  C   UNK N   1      32.434  15.724   7.237  0.00  0.00     0.049 A 
HETATM   11  C   UNK N   1      31.344  16.547   7.478  0.00  0.00    -0.004 A 
HETATM   12  C   UNK N   1      30.069  16.570   6.914  0.00  0.00     0.050 A 
HETATM   13  C   UNK N   1      31.702  17.441   8.441  0.00  0.00     0.043 A 
HETATM   14  C   UNK N   1      29.153  17.554   7.378  0.00  0.00     0.069 A 
HETATM   15  C   UNK N   1      29.546  18.460   8.388  0.00  0.00     0.039 A 
HETATM   16  C   UNK N   1      30.836  18.409   8.930  0.00  0.00     0.033 A 
HETATM   17  N   UNK N   1      32.960  17.250   8.825  0.00  0.00    -0.351 N 
HETATM   18  H   UNK N   1      33.454  17.765   9.504  0.00  0.00     0.166 HD
BRANCH  14  19
HETATM   19  O   UNK N   1      27.904  17.659   6.871  0.00  0.00    -0.356 OA
HETATM   20  C   UNK N   1      27.528  18.646   5.991  0.00  0.00     0.210 C 
ENDBRANCH  14  19
ENDBRANCH   7   9
BRANCH   1  21
HETATM   21  C   UNK N   1      35.789  13.871  13.208  0.00  0.00     0.130 A 
HETATM   22  N   UNK N   1      36.638  14.736  13.833  0.00  0.00    -0.351 N 
HETATM   23  C   UNK N   1      36.973  14.605  15.144  0.00  0.00     0.090 A 
ATOM     24  HN  UNK N   1      37.036  15.508  13.298  1.00  0.00     0.166 HD
HETATM   25  C   UNK N   1      36.451  13.560  15.903  0.00  0.00     0.019 A 
HETATM   26  C   UNK N   1      35.584  12.651  15.307  0.00  0.00     0.034 A 
HETATM   27  C   UNK N   1      35.237  12.785  13.958  0.00  0.00     0.072 A 
BRANCH  27  28
HETATM   28  N   UNK N   1      34.358  11.841  13.361  0.00  0.00    -0.387 N 
HETATM   29  H   UNK N   1      33.985  12.051  12.475  0.00  0.00     0.159 HD
BRANCH  28  30
HETATM   30  C   UNK N   1      33.984  10.595  13.976  0.00  0.00     0.115 C 
HETATM   31  C   UNK N   1      34.930   9.509  13.503  0.00  0.00     0.026 C 
ENDBRANCH  28  30
ENDBRANCH  27  28
ENDBRANCH   1  21
TORSDOF 5
ENDMDL
MODEL 4
REMARK VINA RESULT:      -7.1      3.459      9.032
REMARK  5 active torsions:
REMARK  status: ('A' for Active; 'I' for Inactive)
REMARK    1  A    between atoms: C_2  and  N_3 
REMARK    2  A    between atoms: N_3  and  C_4 
REMARK    3  A    between atoms: C_10  and  N_11 
REMARK       I    between atoms: N_14  and  C_17 
REMARK    4  A    between atoms: C_17  and  C_19 
REMARK    5  A    between atoms: C_23  and  O_28 
ROOT
HETATM    1  N   UNK N   1      35.796  13.495  10.125  0.00  0.00    -0.362 N 
HETATM    2  C   UNK N   1      36.753  14.564  10.414  0.00  0.00     0.144 C 
HETATM    3  C   UNK N   1      36.031  15.860  10.877  0.00  0.00     0.146 C 
HETATM    4  N   UNK N   1      34.814  16.037  10.104  0.00  0.00    -0.344 N 
HETATM    5  C   UNK N   1      33.915  14.917  10.066  0.00  0.00     0.146 C 
HETATM    6  C   UNK N   1      34.644  13.832   9.334  0.00  0.00     0.144 C 
HETATM    7  C   UNK N   1      34.558  17.166   9.367  0.00  0.00     0.270 C 
HETATM    8  O   UNK N   1      35.315  18.126   9.438  0.00  0.00    -0.266 OA
ENDROOT
BRANCH   7   9
HETATM    9  C   UNK N   1      33.383  17.233   8.440  0.00  0.00     0.102 A 
HETATM   10  C   UNK N   1      33.398  17.063   7.052  0.00  0.00     0.049 A 
HETATM   11  C   UNK N   1      32.068  17.186   6.677  0.00  0.00    -0.004 A 
HETATM   12  C   UNK N   1      31.457  17.130   5.425  0.00  0.00     0.050 A 
HETATM   13  C   UNK N   1      31.336  17.398   7.807  0.00  0.00     0.043 A 
HETATM   14  C   UNK N   1      30.046  17.298   5.364  0.00  0.00     0.069 A 
HETATM   15  C   UNK N   1      29.310  17.502   6.552  0.00  0.00     0.039 A 
HETATM   16  C   UNK N   1      29.957  17.556   7.792  0.00  0.00     0.033 A 
HETATM   17  N   UNK N   1      32.117  17.431   8.882  0.00  0.00    -0.351 N 
HETATM   18  H   UNK N   1      31.831  17.571   9.814  0.00  0.00     0.166 HD
BRANCH  14  19
HETATM   19  O   UNK N   1      29.378  17.276   4.189  0.00  0.00    -0.356 OA
HETATM   20  C   UNK N   1      29.634  16.362   3.193  0.00  0.00     0.210 C 
ENDBRANCH  14  19
ENDBRANCH   7   9
BRANCH   1  21
HETATM   21  C   UNK N   1      35.959  12.172  10.657  0.00  0.00     0.130 A 
HETATM   22  N   UNK N   1      36.612  11.235   9.911  0.00  0.00    -0.351 N 
HETATM   23  C   UNK N   1      36.803   9.962  10.348  0.00  0.00     0.090 A 
ATOM     24  HN  UNK N   1      36.967  11.499   8.992  1.00  0.00     0.166 HD
HETATM   25  C   UNK N   1      36.327   9.568  11.597  0.00  0.00     0.019 A 
HETATM   26  C   UNK N   1      35.652  10.488  12.391  0.00  0.00     0.034 A 
HETATM   27  C   UNK N   1      35.455  11.798  11.943  0.00  0.00     0.072 A 
BRANCH  27  28
HETATM   28  N   UNK N   1      34.753  12.723  12.762  0.00  0.00    -0.387 N 
HETATM   29  H   UNK N   1      33.956  13.163  12.388  0.00  0.00     0.159 HD
BRANCH  28  30
HETATM   30  C   UNK N   1      35.139  13.054  14.109  0.00  0.00     0.115 C 
HETATM   31  C   UNK N   1      36.438  13.835  14.070  0.00  0.00     0.026 C 
ENDBRANCH  28  30
ENDBRANCH  27  28
ENDBRANCH   1  21
TORSDOF 5
ENDMDL
MODEL 5
REMARK VINA RESULT:      -7.0     12.284     14.680
REMARK  5 active torsions:
REMARK  status: ('A' for Active; 'I' for Inactive)
REMARK    1  A    between atoms: C_2  and  N_3 
REMARK    2  A    between atoms: N_3  and  C_4 
REMARK    3  A    between atoms: C_10  and  N_11 
REMARK       I    between atoms: N_14  and  C_17 
REMARK    4  A    between atoms: C_17  and  C_19 
REMARK    5  A    between atoms: C_23  and  O_28 
ROOT
HETATM    1  N   UNK N   1      23.151  17.072   4.275  0.00  0.00    -0.362 N 
HETATM    2  C   UNK N   1      22.042  16.647   3.420  0.00  0.00     0.144 C 
HETATM    3  C   UNK N   1      20.734  16.461   4.238  0.00  0.00     0.146 C 
HETATM    4  N   UNK N   1      21.050  15.867   5.525  0.00  0.00    -0.344 N 
HETATM    5  C   UNK N   1      22.068  16.525   6.298  0.00  0.00     0.146 C 
HETATM    6  C   UNK N   1      23.337  16.373   5.516  0.00  0.00     0.144 C 
HETATM    7  C   UNK N   1      20.491  14.692   5.960  0.00  0.00     0.270 C 
HETATM    8  O   UNK N   1      19.599  14.162   5.308  0.00  0.00    -0.266 OA
ENDROOT
BRANCH   7   9
HETATM    9  C   UNK N   1      20.979  14.019   7.207  0.00  0.00     0.102 A 
HETATM   10  C   UNK N   1      20.492  14.201   8.505  0.00  0.00     0.049 A 
HETATM   11  C   UNK N   1      21.249  13.335   9.280  0.00  0.00    -0.004 A 
HETATM   12  C   UNK N   1      21.239  13.082  10.651  0.00  0.00     0.050 A 
HETATM   13  C   UNK N   1      22.110  12.680   8.451  0.00  0.00     0.043 A 
HETATM   14  C   UNK N   1      22.155  12.118  11.157  0.00  0.00     0.069 A 
HETATM   15  C   UNK N   1      23.026  11.444  10.274  0.00  0.00     0.039 A 
HETATM   16  C   UNK N   1      23.011  11.725   8.902  0.00  0.00     0.033 A 
HETATM   17  N   UNK N   1      21.961  13.084   7.194  0.00  0.00    -0.351 N 
HETATM   18  H   UNK N   1      22.464  12.766   6.409  0.00  0.00     0.166 HD
BRANCH  14  19
HETATM   19  O   UNK N   1      22.224  11.827  12.476  0.00  0.00    -0.356 OA
HETATM   20  C   UNK N   1      23.384  11.923  13.208  0.00  0.00     0.210 C 
ENDBRANCH  14  19
ENDBRANCH   7   9
BRANCH   1  21
HETATM   21  C   UNK N   1      23.988  18.185   3.928  0.00  0.00     0.130 A 
HETATM   22  N   UNK N   1      25.342  18.019   3.926  0.00  0.00    -0.351 N 
HETATM   23  C   UNK N   1      26.197  19.026   3.609  0.00  0.00     0.090 A 
ATOM     24  HN  UNK N   1      25.725  17.106   4.173  1.00  0.00     0.166 HD
HETATM   25  C   UNK N   1      25.707  20.286   3.270  0.00  0.00     0.019 A 
HETATM   26  C   UNK N   1      24.334  20.504   3.262  0.00  0.00     0.034 A 
HETATM   27  C   UNK N   1      23.452  19.468   3.587  0.00  0.00     0.072 A 
BRANCH  27  28
HETATM   28  N   UNK N   1      22.051  19.710   3.585  0.00  0.00    -0.387 N 
HETATM   29  H   UNK N   1      21.562  19.610   4.433  0.00  0.00     0.159 HD
BRANCH  28  30
HETATM   30  C   UNK N   1      21.307  20.095   2.415  0.00  0.00     0.115 C 
HETATM   31  C   UNK N   1      19.852  19.716   2.610  0.00  0.00     0.026 C 
ENDBRANCH  28  30
ENDBRANCH  27  28
ENDBRANCH   1  21
TORSDOF 5
ENDMDL
MODEL 6
REMARK VINA RESULT:      -6.9      3.109      5.017
REMARK  5 active torsions:
REMARK  status: ('A' for Active; 'I' for Inactive)
REMARK    1  A    between atoms: C_2  and  N_3 
REMARK    2  A    between atoms: N_3  and  C_4 
REMARK    3  A    between atoms: C_10  and  N_11 
REMARK       I    between atoms: N_14  and  C_17 
REMARK    4  A    between atoms: C_17  and  C_19 
REMARK    5  A    between atoms: C_23  and  O_28 
ROOT
HETATM    1  N   UNK N   1      31.869  16.602   8.084  0.00  0.00    -0.362 N 
HETATM    2  C   UNK N   1      32.450  17.931   8.278  0.00  0.00     0.144 C 
HETATM    3  C   UNK N   1      34.003  17.880   8.254  0.00  0.00     0.146 C 
HETATM    4  N   UNK N   1      34.457  16.680   8.935  0.00  0.00    -0.344 N 
HETATM    5  C   UNK N   1      33.881  15.440   8.493  0.00  0.00     0.146 C 
HETATM    6  C   UNK N   1      32.426  15.517   8.844  0.00  0.00     0.144 C 
HETATM    7  C   UNK N   1      35.316  16.710  10.005  0.00  0.00     0.270 C 
HETATM    8  O   UNK N   1      35.827  17.770  10.347  0.00  0.00    -0.266 OA
ENDROOT
BRANCH   7   9
HETATM    9  C   UNK N   1      35.613  15.471  10.792  0.00  0.00     0.102 A 
HETATM   10  C   UNK N   1      34.775  14.845  11.721  0.00  0.00     0.049 A 
HETATM   11  C   UNK N   1      35.494  13.735  12.138  0.00  0.00    -0.004 A 
HETATM   12  C   UNK N   1      35.191  12.739  13.064  0.00  0.00     0.050 A 
HETATM   13  C   UNK N   1      36.677  13.727  11.461  0.00  0.00     0.043 A 
HETATM   14  C   UNK N   1      36.152  11.713  13.279  0.00  0.00     0.069 A 
HETATM   15  C   UNK N   1      37.364  11.722  12.553  0.00  0.00     0.039 A 
HETATM   16  C   UNK N   1      37.637  12.740  11.632  0.00  0.00     0.033 A 
HETATM   17  N   UNK N   1      36.765  14.772  10.644  0.00  0.00    -0.351 N 
HETATM   18  H   UNK N   1      37.518  14.993  10.049  0.00  0.00     0.166 HD
BRANCH  14  19
HETATM   19  O   UNK N   1      35.946  10.720  14.174  0.00  0.00    -0.356 OA
HETATM   20  C   UNK N   1      35.052   9.695  13.968  0.00  0.00     0.210 C 
ENDBRANCH  14  19
ENDBRANCH   7   9
BRANCH   1  21
HETATM   21  C   UNK N   1      30.825  16.367   7.127  0.00  0.00     0.130 A 
HETATM   22  N   UNK N   1      31.002  15.402   6.180  0.00  0.00    -0.351 N 
HETATM   23  C   UNK N   1      30.058  15.123   5.242  0.00  0.00     0.090 A 
ATOM     24  HN  UNK N   1      31.873  14.872   6.175  1.00  0.00     0.166 HD
HETATM   25  C   UNK N   1      28.858  15.831   5.218  0.00  0.00     0.019 A 
HETATM   26  C   UNK N   1      28.636  16.827   6.162  0.00  0.00     0.034 A 
HETATM   27  C   UNK N   1      29.605  17.115   7.129  0.00  0.00     0.072 A 
BRANCH  27  28
HETATM   28  N   UNK N   1      29.366  18.144   8.080  0.00  0.00    -0.387 N 
HETATM   29  H   UNK N   1      29.869  18.985   7.989  0.00  0.00     0.159 HD
BRANCH  28  30
HETATM   30  C   UNK N   1      28.429  18.029   9.167  0.00  0.00     0.115 C 
HETATM   31  C   UNK N   1      29.015  17.115  10.226  0.00  0.00     0.026 C 
ENDBRANCH  28  30
ENDBRANCH  27  28
ENDBRANCH   1  21
TORSDOF 5
ENDMDL
MODEL 7
REMARK VINA RESULT:      -6.9      3.288      5.084
REMARK  5 active torsions:
REMARK  status: ('A' for Active; 'I' for Inactive)
REMARK    1  A    between atoms: C_2  and  N_3 
REMARK    2  A    between atoms: N_3  and  C_4 
REMARK    3  A    between atoms: C_10  and  N_11 
REMARK       I    between atoms: N_14  and  C_17 
REMARK    4  A    between atoms: C_17  and  C_19 
REMARK    5  A    between atoms: C_23  and  O_28 
ROOT
HETATM    1  N   UNK N   1      31.457  16.992   8.152  0.00  0.00    -0.362 N 
HETATM    2  C   UNK N   1      32.124  18.274   8.378  0.00  0.00     0.144 C 
HETATM    3  C   UNK N   1      33.665  18.148   8.219  0.00  0.00     0.146 C 
HETATM    4  N   UNK N   1      34.106  16.884   8.782  0.00  0.00    -0.344 N 
HETATM    5  C   UNK N   1      33.428  15.706   8.314  0.00  0.00     0.146 C 
HETATM    6  C   UNK N   1      32.013  15.832   8.792  0.00  0.00     0.144 C 
HETATM    7  C   UNK N   1      35.050  16.800   9.774  0.00  0.00     0.270 C 
HETATM    8  O   UNK N   1      35.645  17.807  10.137  0.00  0.00    -0.266 OA
ENDROOT
BRANCH   7   9
HETATM    9  C   UNK N   1      35.342  15.498  10.455  0.00  0.00     0.102 A 
HETATM   10  C   UNK N   1      34.589  14.891  11.465  0.00  0.00     0.049 A 
HETATM   11  C   UNK N   1      35.257  13.703  11.724  0.00  0.00    -0.004 A 
HETATM   12  C   UNK N   1      34.998  12.684  12.639  0.00  0.00     0.050 A 
HETATM   13  C   UNK N   1      36.328  13.637  10.885  0.00  0.00     0.043 A 
HETATM   14  C   UNK N   1      35.884  11.572  12.668  0.00  0.00     0.069 A 
HETATM   15  C   UNK N   1      36.978  11.523  11.776  0.00  0.00     0.039 A 
HETATM   16  C   UNK N   1      37.210  12.566  10.872  0.00  0.00     0.033 A 
HETATM   17  N   UNK N   1      36.395  14.716  10.111  0.00  0.00    -0.351 N 
HETATM   18  H   UNK N   1      37.074  14.908   9.424  0.00  0.00     0.166 HD
BRANCH  14  19
HETATM   19  O   UNK N   1      35.716  10.550  13.537  0.00  0.00    -0.356 OA
HETATM   20  C   UNK N   1      34.503  10.237  14.105  0.00  0.00     0.210 C 
ENDBRANCH  14  19
ENDBRANCH   7   9
BRANCH   1  21
HETATM   21  C   UNK N   1      30.326  16.873   7.275  0.00  0.00     0.130 A 
HETATM   22  N   UNK N   1      29.072  17.027   7.789  0.00  0.00    -0.351 N 
HETATM   23  C   UNK N   1      27.955  16.929   7.020  0.00  0.00     0.090 A 
ATOM     24  HN  UNK N   1      28.969  17.221   8.785  1.00  0.00     0.166 HD
HETATM   25  C   UNK N   1      28.059  16.661   5.657  0.00  0.00     0.019 A 
HETATM   26  C   UNK N   1      29.317  16.493   5.090  0.00  0.00     0.034 A 
HETATM   27  C   UNK N   1      30.468  16.595   5.878  0.00  0.00     0.072 A 
BRANCH  27  28
HETATM   28  N   UNK N   1      31.746  16.409   5.285  0.00  0.00    -0.387 N 
HETATM   29  H   UNK N   1      32.174  15.527   5.372  0.00  0.00     0.159 HD
BRANCH  28  30
HETATM   30  C   UNK N   1      32.451  17.435   4.562  0.00  0.00     0.115 C 
HETATM   31  C   UNK N   1      32.832  16.901   3.195  0.00  0.00     0.026 C 
ENDBRANCH  28  30
ENDBRANCH  27  28
ENDBRANCH   1  21
TORSDOF 5
ENDMDL
MODEL 8
REMARK VINA RESULT:      -6.7     11.586     13.235
REMARK  5 active torsions:
REMARK  status: ('A' for Active; 'I' for Inactive)
REMARK    1  A    between atoms: C_2  and  N_3 
REMARK    2  A    between atoms: N_3  and  C_4 
REMARK    3  A    between atoms: C_10  and  N_11 
REMARK       I    between atoms: N_14  and  C_17 
REMARK    4  A    between atoms: C_17  and  C_19 
REMARK    5  A    between atoms: C_23  and  O_28 
ROOT
HETATM    1  N   UNK N   1      25.137  16.531   4.233  0.00  0.00    -0.362 N 
HETATM    2  C   UNK N   1      25.026  15.542   3.161  0.00  0.00     0.144 C 
HETATM    3  C   UNK N   1      23.744  14.677   3.318  0.00  0.00     0.146 C 
HETATM    4  N   UNK N   1      23.525  14.389   4.724  0.00  0.00    -0.344 N 
HETATM    5  C   UNK N   1      23.512  15.520   5.612  0.00  0.00     0.146 C 
HETATM    6  C   UNK N   1      24.901  16.082   5.578  0.00  0.00     0.144 C 
HETATM    7  C   UNK N   1      23.427  13.112   5.216  0.00  0.00     0.270 C 
HETATM    8  O   UNK N   1      23.403  12.161   4.444  0.00  0.00    -0.266 OA
ENDROOT
BRANCH   7   9
HETATM    9  C   UNK N   1      23.387  12.853   6.691  0.00  0.00     0.102 A 
HETATM   10  C   UNK N   1      24.482  12.662   7.540  0.00  0.00     0.049 A 
HETATM   11  C   UNK N   1      23.917  12.495   8.796  0.00  0.00    -0.004 A 
HETATM   12  C   UNK N   1      24.498  12.252  10.040  0.00  0.00     0.050 A 
HETATM   13  C   UNK N   1      22.565  12.605   8.662  0.00  0.00     0.043 A 
HETATM   14  C   UNK N   1      23.637  12.125  11.164  0.00  0.00     0.069 A 
HETATM   15  C   UNK N   1      22.241  12.258  10.999  0.00  0.00     0.039 A 
HETATM   16  C   UNK N   1      21.691  12.499   9.734  0.00  0.00     0.033 A 
HETATM   17  N   UNK N   1      22.228  12.820   7.394  0.00  0.00    -0.351 N 
HETATM   18  H   UNK N   1      21.317  12.933   7.037  0.00  0.00     0.166 HD
BRANCH  14  19
HETATM   19  O   UNK N   1      24.116  11.871  12.403  0.00  0.00    -0.356 OA
HETATM   20  C   UNK N   1      23.392  12.091  13.551  0.00  0.00     0.210 C 
ENDBRANCH  14  19
ENDBRANCH   7   9
BRANCH   1  21
HETATM   21  C   UNK N   1      25.409  17.914   3.960  0.00  0.00     0.130 A 
HETATM   22  N   UNK N   1      26.698  18.357   4.016  0.00  0.00    -0.351 N 
HETATM   23  C   UNK N   1      27.032  19.652   3.769  0.00  0.00     0.090 A 
ATOM     24  HN  UNK N   1      27.436  17.695   4.253  1.00  0.00     0.166 HD
HETATM   25  C   UNK N   1      26.048  20.584   3.447  0.00  0.00     0.019 A 
HETATM   26  C   UNK N   1      24.720  20.178   3.382  0.00  0.00     0.034 A 
HETATM   27  C   UNK N   1      24.374  18.846   3.634  0.00  0.00     0.072 A 
BRANCH  27  28
HETATM   28  N   UNK N   1      23.010  18.451   3.574  0.00  0.00    -0.387 N 
HETATM   29  H   UNK N   1      22.730  17.864   2.835  0.00  0.00     0.159 HD
BRANCH  28  30
HETATM   30  C   UNK N   1      22.015  18.857   4.531  0.00  0.00     0.115 C 
HETATM   31  C   UNK N   1      20.902  19.585   3.804  0.00  0.00     0.026 C 
ENDBRANCH  28  30
ENDBRANCH  27  28
ENDBRANCH   1  21
TORSDOF 5
ENDMDL
MODEL 9
REMARK VINA RESULT:      -6.5      4.132      8.954
REMARK  5 active torsions:
REMARK  status: ('A' for Active; 'I' for Inactive)
REMARK    1  A    between atoms: C_2  and  N_3 
REMARK    2  A    between atoms: N_3  and  C_4 
REMARK    3  A    between atoms: C_10  and  N_11 
REMARK       I    between atoms: N_14  and  C_17 
REMARK    4  A    between atoms: C_17  and  C_19 
REMARK    5  A    between atoms: C_23  and  O_28 
ROOT
HETATM    1  N   UNK N   1      35.685  13.604  10.296  0.00  0.00    -0.362 N 
HETATM    2  C   UNK N   1      36.666  14.664  10.528  0.00  0.00     0.144 C 
HETATM    3  C   UNK N   1      35.975  16.001  10.918  0.00  0.00     0.146 C 
HETATM    4  N   UNK N   1      34.763  16.164  10.135  0.00  0.00    -0.344 N 
HETATM    5  C   UNK N   1      33.837  15.064  10.157  0.00  0.00     0.146 C 
HETATM    6  C   UNK N   1      34.541  13.924   9.487  0.00  0.00     0.144 C 
HETATM    7  C   UNK N   1      34.533  17.256   9.336  0.00  0.00     0.270 C 
HETATM    8  O   UNK N   1      35.313  18.201   9.355  0.00  0.00    -0.266 OA
ENDROOT
BRANCH   7   9
HETATM    9  C   UNK N   1      33.360  17.300   8.405  0.00  0.00     0.102 A 
HETATM   10  C   UNK N   1      33.378  17.095   7.021  0.00  0.00     0.049 A 
HETATM   11  C   UNK N   1      32.050  17.209   6.641  0.00  0.00    -0.004 A 
HETATM   12  C   UNK N   1      31.442  17.121   5.390  0.00  0.00     0.050 A 
HETATM   13  C   UNK N   1      31.315  17.448   7.763  0.00  0.00     0.043 A 
HETATM   14  C   UNK N   1      30.031  17.287   5.321  0.00  0.00     0.069 A 
HETATM   15  C   UNK N   1      29.292  17.520   6.501  0.00  0.00     0.039 A 
HETATM   16  C   UNK N   1      29.936  17.605   7.742  0.00  0.00     0.033 A 
HETATM   17  N   UNK N   1      32.093  17.508   8.839  0.00  0.00    -0.351 N 
HETATM   18  H   UNK N   1      31.805  17.671   9.767  0.00  0.00     0.166 HD
BRANCH  14  19
HETATM   19  O   UNK N   1      29.365  17.235   4.145  0.00  0.00    -0.356 OA
HETATM   20  C   UNK N   1      28.047  17.604   4.009  0.00  0.00     0.210 C 
ENDBRANCH  14  19
ENDBRANCH   7   9
BRANCH   1  21
HETATM   21  C   UNK N   1      35.816  12.309  10.901  0.00  0.00     0.130 A 
HETATM   22  N   UNK N   1      35.261  12.093  12.128  0.00  0.00    -0.351 N 
HETATM   23  C   UNK N   1      35.344  10.893  12.762  0.00  0.00     0.090 A 
ATOM     24  HN  UNK N   1      34.767  12.859  12.586  1.00  0.00     0.166 HD
HETATM   25  C   UNK N   1      36.014   9.827  12.166  0.00  0.00     0.019 A 
HETATM   26  C   UNK N   1      36.599  10.001  10.918  0.00  0.00     0.034 A 
HETATM   27  C   UNK N   1      36.513  11.235  10.262  0.00  0.00     0.072 A 
BRANCH  27  28
HETATM   28  N   UNK N   1      37.127  11.400   8.991  0.00  0.00    -0.387 N 
HETATM   29  H   UNK N   1      36.561  11.684   8.237  0.00  0.00     0.159 HD
BRANCH  28  30
HETATM   30  C   UNK N   1      38.526  11.175   8.741  0.00  0.00     0.115 C 
HETATM   31  C   UNK N   1      39.327  12.279   9.404  0.00  0.00     0.026 C 
ENDBRANCH  28  30
ENDBRANCH  27  28
ENDBRANCH   1  21
TORSDOF 5
ENDMDL
