REMARK  12 active torsions:
REMARK  status: ('A' for Active; 'I' for Inactive)
REMARK    1  A    between atoms: C_4  and  C_14 
REMARK    2  A    between atoms: C_7  and  O_8 
REMARK    3  A    between atoms: O_8  and  C_9 
REMARK    4  A    between atoms: C_9  and  C_10 
REMARK    5  A    between atoms: C_10  and  O_12 
REMARK    6  A    between atoms: C_14  and  C_15 
REMARK    7  A    between atoms: C_15  and  N_16 
REMARK    8  A    between atoms: N_16  and  C_17 
REMARK    9  A    between atoms: C_17  and  C_19 
REMARK   10  A    between atoms: C_19  and  C_20 
REMARK   11  A    between atoms: C_19  and  O_27 
REMARK   12  A    between atoms: C_23  and  O_26 
ROOT
HETATM    1  C   UNK N   1       3.198  -2.309   0.720  0.00  0.00     0.118 C 
ENDROOT
BRANCH   1   2
HETATM    2  C   UNK N   1       1.752  -2.038   1.124  0.00  0.00     0.058 C 
BRANCH   2   3
HETATM    3  C   UNK N   1       0.774  -3.133   0.800  0.00  0.00    -0.050 A 
HETATM    4  C   UNK N   1      -0.381  -2.780   0.097  0.00  0.00     0.017 A 
HETATM    5  C   UNK N   1      -1.355  -3.734  -0.205  0.00  0.00    -0.028 A 
HETATM    6  C   UNK N   1      -2.582  -3.311  -0.936  0.00  0.00     0.051 C 
HETATM    7  C   UNK N   1      -1.179  -5.068   0.193  0.00  0.00     0.075 A 
HETATM    8  C   UNK N   1      -0.017  -5.428   0.896  0.00  0.00     0.044 A 
HETATM    9  C   UNK N   1       0.956  -4.473   1.207  0.00  0.00    -0.053 A 
HETATM   10  C   UNK N   1       2.159  -4.907   1.974  0.00  0.00     0.049 C 
BRANCH   7  11
HETATM   11  O   UNK N   1      -2.139  -5.983  -0.094  0.00  0.00    -0.340 OA
BRANCH  11  12
HETATM   12  C   UNK N   1      -2.074  -7.299   0.307  0.00  0.00     0.285 C 
BRANCH  12  13
HETATM   13  C   UNK N   1      -3.324  -8.007  -0.090  0.00  0.00     0.164 C 
HETATM   14  O   UNK N   1      -3.266  -8.981  -0.821  0.00  0.00    -0.648 OA
BRANCH  13  15
HETATM   15  O   UNK N   1      -4.516  -7.578   0.367  0.00  0.00    -0.775 OA
HETATM   16  H   UNK N   1      -4.673  -6.711   0.684  0.00  0.00     0.167 HD
ENDBRANCH  13  15
ENDBRANCH  12  13
ENDBRANCH  11  12
ENDBRANCH   7  11
ENDBRANCH   2   3
ENDBRANCH   1   2
BRANCH   1  17
HETATM   17  N   UNK N   1       3.306  -2.975  -0.570  0.00  0.00    -0.414 N 
HETATM   18  H   UNK N   1       2.721  -2.831  -1.393  0.00  0.00     0.153 HD
BRANCH  17  19
HETATM   19  C   UNK N   1       4.429  -3.893  -0.432  0.00  0.00     0.105 C 
HETATM   20  C   UNK N   1       4.080  -5.213  -1.096  0.00  0.00     0.035 C 
BRANCH  19  21
HETATM   21  C   UNK N   1       5.725  -3.291  -1.002  0.00  0.00     0.173 C 
BRANCH  21  22
HETATM   22  C   UNK N   1       6.936  -4.065  -0.535  0.00  0.00    -0.028 A 
HETATM   23  C   UNK N   1       7.894  -3.462   0.298  0.00  0.00     0.012 A 
HETATM   24  C   UNK N   1       9.009  -4.181   0.733  0.00  0.00     0.037 A 
HETATM   25  C   UNK N   1       9.182  -5.508   0.335  0.00  0.00     0.065 A 
HETATM   26  C   UNK N   1       8.240  -6.116  -0.499  0.00  0.00     0.037 A 
HETATM   27  C   UNK N   1       7.122  -5.397  -0.933  0.00  0.00     0.012 A 
BRANCH  25  28
HETATM   28  O   UNK N   1      10.254  -6.200   0.755  0.00  0.00    -0.361 OA
HETATM   29  H   UNK N   1      10.210  -7.089   1.047  0.00  0.00     0.217 HD
ENDBRANCH  25  28
ENDBRANCH  21  22
BRANCH  21  30
HETATM   30  O   UNK N   1       5.834  -1.949  -0.616  0.00  0.00    -0.389 OA
HETATM   31  H   UNK N   1       6.677  -1.550  -0.349  0.00  0.00     0.210 HD
ENDBRANCH  21  30
ENDBRANCH  19  21
ENDBRANCH  17  19
ENDBRANCH   1  17
TORSDOF 12
