MODEL 1
REMARK VINA RESULT:      -8.1      0.000      0.000
REMARK  2 active torsions:
REMARK  status: ('A' for Active; 'I' for Inactive)
REMARK    1  A    between atoms: C_4  and  C_2 
REMARK    2  A    between atoms: C_19  and  O_20 
ROOT
HETATM    1  C   UNK N   1      21.409  13.272   8.353  0.00  0.00     0.122 A 
HETATM    2  C   UNK N   1      21.446  12.430   7.116  0.00  0.00     0.192 A 
HETATM    3  O   UNK N   1      22.562  13.185   7.552  0.00  0.00    -0.363 OA
HETATM    4  C   UNK N   1      21.023  13.013   5.748  0.00  0.00     0.193 A 
HETATM    5  C   UNK N   1      20.664  14.458   5.678  0.00  0.00     0.137 A 
HETATM    6  O   UNK N   1      19.676  13.467   5.810  0.00  0.00    -0.362 OA
HETATM    7  C   UNK N   1      20.752  15.129   4.288  0.00  0.00     0.029 C 
HETATM    8  C   UNK N   1      20.038  14.303   3.182  0.00  0.00     0.020 C 
HETATM    9  C   UNK N   1      19.990  14.993   1.798  0.00  0.00     0.046 C 
HETATM   10  C   UNK N   1      20.108  16.493   1.887  0.00  0.00     0.025 A 
HETATM   11  C   UNK N   1      20.169  17.184   3.010  0.00  0.00    -0.009 A 
HETATM   12  C   UNK N   1      20.071  16.523   4.365  0.00  0.00     0.097 C 
HETATM   13  C   UNK N   1      20.714  17.407   5.440  0.00  0.00     0.079 C 
HETATM   14  C   UNK N   1      20.754  16.789   6.844  0.00  0.00     0.166 A 
HETATM   15  C   UNK N   1      20.856  15.302   6.943  0.00  0.00     0.150 A 
HETATM   16  C   UNK N   1      20.666  14.620   8.298  0.00  0.00     0.196 C 
HETATM   17  O   UNK N   1      21.998  16.107   6.926  0.00  0.00    -0.363 OA
HETATM   18  O   UNK N   1      18.714  16.361   4.671  0.00  0.00    -0.384 OA
HETATM   19  C   UNK N   1      20.410  18.652   2.709  0.00  0.00     0.217 A 
HETATM   20  O   UNK N   1      20.443  18.672   1.316  0.00  0.00    -0.313 OA
HETATM   21  C   UNK N   1      20.269  17.435   0.822  0.00  0.00     0.290 A 
HETATM   22  O   UNK N   1      20.272  17.172  -0.369  0.00  0.00    -0.260 OA
HETATM   23  C   UNK N   1      22.237  15.263   3.931  0.00  0.00     0.022 C 
HETATM   24  H   UNK N   1      17.772  16.194   4.831  0.00  0.00     0.211 HD
ENDROOT
BRANCH  16  25
HETATM   25  O   UNK N   1      21.049  15.452   9.355  0.00  0.00    -0.389 OA
HETATM   26  H   UNK N   1      20.393  15.918   9.897  0.00  0.00     0.210 HD
ENDBRANCH  16  25
BRANCH   1  27
HETATM   27  C   UNK N   1      21.615  12.510   9.669  0.00  0.00     0.017 C 
HETATM   28  C   UNK N   1      22.956  12.836  10.304  0.00  0.00     0.012 C 
HETATM   29  C   UNK N   1      20.500  12.773  10.666  0.00  0.00     0.012 C 
ENDBRANCH   1  27
TORSDOF 2
ENDMDL
MODEL 2
REMARK VINA RESULT:      -7.8     11.963     15.458
REMARK  2 active torsions:
REMARK  status: ('A' for Active; 'I' for Inactive)
REMARK    1  A    between atoms: C_4  and  C_2 
REMARK    2  A    between atoms: C_19  and  O_20 
ROOT
HETATM    1  C   UNK N   1      33.173  16.776   5.745  0.00  0.00     0.122 A 
HETATM    2  C   UNK N   1      34.145  17.638   6.487  0.00  0.00     0.192 A 
HETATM    3  O   UNK N   1      34.559  16.553   5.676  0.00  0.00    -0.363 OA
HETATM    4  C   UNK N   1      34.565  17.294   7.934  0.00  0.00     0.193 A 
HETATM    5  C   UNK N   1      34.045  16.035   8.539  0.00  0.00     0.137 A 
HETATM    6  O   UNK N   1      33.420  17.270   8.779  0.00  0.00    -0.362 OA
HETATM    7  C   UNK N   1      34.844  15.452   9.727  0.00  0.00     0.029 C 
HETATM    8  C   UNK N   1      35.167  16.521  10.809  0.00  0.00     0.020 C 
HETATM    9  C   UNK N   1      35.857  15.961  12.076  0.00  0.00     0.046 C 
HETATM   10  C   UNK N   1      35.585  14.495  12.291  0.00  0.00     0.025 A 
HETATM   11  C   UNK N   1      34.787  13.754  11.546  0.00  0.00    -0.009 A 
HETATM   12  C   UNK N   1      34.000  14.331  10.393  0.00  0.00     0.097 C 
HETATM   13  C   UNK N   1      33.632  13.231   9.391  0.00  0.00     0.079 C 
HETATM   14  C   UNK N   1      32.909  13.723   8.129  0.00  0.00     0.166 A 
HETATM   15  C   UNK N   1      33.226  15.099   7.643  0.00  0.00     0.150 A 
HETATM   16  C   UNK N   1      32.374  15.725   6.538  0.00  0.00     0.196 C 
HETATM   17  O   UNK N   1      33.932  13.986   7.180  0.00  0.00    -0.363 OA
HETATM   18  O   UNK N   1      32.820  14.882  10.907  0.00  0.00    -0.384 OA
HETATM   19  C   UNK N   1      34.859  12.302  11.986  0.00  0.00     0.217 A 
HETATM   20  O   UNK N   1      35.752  12.356  13.054  0.00  0.00    -0.313 OA
HETATM   21  C   UNK N   1      36.181  13.614  13.248  0.00  0.00     0.290 A 
HETATM   22  O   UNK N   1      36.982  13.933  14.110  0.00  0.00    -0.260 OA
HETATM   23  C   UNK N   1      36.159  14.892   9.171  0.00  0.00     0.022 C 
HETATM   24  H   UNK N   1      32.045  15.320  11.292  0.00  0.00     0.211 HD
ENDROOT
BRANCH  16  25
HETATM   25  O   UNK N   1      31.831  14.755   5.690  0.00  0.00    -0.389 OA
HETATM   26  H   UNK N   1      30.884  14.737   5.480  0.00  0.00     0.210 HD
ENDBRANCH  16  25
BRANCH   1  27
HETATM   27  C   UNK N   1      32.659  17.359   4.422  0.00  0.00     0.017 C 
HETATM   28  C   UNK N   1      33.034  16.485   3.238  0.00  0.00     0.012 C 
HETATM   29  C   UNK N   1      31.157  17.582   4.437  0.00  0.00     0.012 C 
ENDBRANCH   1  27
TORSDOF 2
ENDMDL
MODEL 3
REMARK VINA RESULT:      -7.6     13.716     17.434
REMARK  2 active torsions:
REMARK  status: ('A' for Active; 'I' for Inactive)
REMARK    1  A    between atoms: C_4  and  C_2 
REMARK    2  A    between atoms: C_19  and  O_20 
ROOT
HETATM    1  C   UNK N   1      34.273  15.930   8.797  0.00  0.00     0.122 A 
HETATM    2  C   UNK N   1      34.355  14.633   8.055  0.00  0.00     0.192 A 
HETATM    3  O   UNK N   1      33.343  14.897   9.010  0.00  0.00    -0.363 OA
HETATM    4  C   UNK N   1      35.191  13.456   8.607  0.00  0.00     0.193 A 
HETATM    5  C   UNK N   1      35.838  13.615   9.939  0.00  0.00     0.137 A 
HETATM    6  O   UNK N   1      36.549  13.851   8.751  0.00  0.00    -0.362 OA
HETATM    7  C   UNK N   1      36.211  12.317  10.691  0.00  0.00     0.029 C 
HETATM    8  C   UNK N   1      36.981  11.309   9.793  0.00  0.00     0.020 C 
HETATM    9  C   UNK N   1      37.485  10.047  10.533  0.00  0.00     0.046 C 
HETATM   10  C   UNK N   1      37.653  10.265  12.015  0.00  0.00     0.025 A 
HETATM   11  C   UNK N   1      37.474  11.415  12.637  0.00  0.00    -0.009 A 
HETATM   12  C   UNK N   1      37.121  12.682  11.896  0.00  0.00     0.097 C 
HETATM   13  C   UNK N   1      36.438  13.681  12.837  0.00  0.00     0.079 C 
HETATM   14  C   UNK N   1      35.950  14.972  12.164  0.00  0.00     0.166 A 
HETATM   15  C   UNK N   1      35.532  14.891  10.733  0.00  0.00     0.150 A 
HETATM   16  C   UNK N   1      35.263  16.177   9.950  0.00  0.00     0.196 C 
HETATM   17  O   UNK N   1      34.611  14.715  11.768  0.00  0.00    -0.363 OA
HETATM   18  O   UNK N   1      38.309  13.253  11.424  0.00  0.00    -0.384 OA
HETATM   19  C   UNK N   1      37.609  11.224  14.138  0.00  0.00     0.217 A 
HETATM   20  O   UNK N   1      37.903   9.866  14.242  0.00  0.00    -0.313 OA
HETATM   21  C   UNK N   1      37.935   9.294  13.027  0.00  0.00     0.290 A 
HETATM   22  O   UNK N   1      38.155   8.110  12.840  0.00  0.00    -0.260 OA
HETATM   23  C   UNK N   1      34.907  11.666  11.167  0.00  0.00     0.022 C 
HETATM   24  H   UNK N   1      39.135  13.593  11.045  0.00  0.00     0.211 HD
ENDROOT
BRANCH  16  25
HETATM   25  O   UNK N   1      34.821  17.208  10.784  0.00  0.00    -0.389 OA
HETATM   26  H   UNK N   1      35.271  18.068  10.811  0.00  0.00     0.210 HD
ENDBRANCH  16  25
BRANCH   1  27
HETATM   27  C   UNK N   1      33.620  17.085   8.025  0.00  0.00     0.017 C 
HETATM   28  C   UNK N   1      32.244  17.422   8.574  0.00  0.00     0.012 C 
HETATM   29  C   UNK N   1      34.485  18.332   8.015  0.00  0.00     0.012 C 
ENDBRANCH   1  27
TORSDOF 2
ENDMDL
MODEL 4
REMARK VINA RESULT:      -7.4     15.252     18.666
REMARK  2 active torsions:
REMARK  status: ('A' for Active; 'I' for Inactive)
REMARK    1  A    between atoms: C_4  and  C_2 
REMARK    2  A    between atoms: C_19  and  O_20 
ROOT
HETATM    1  C   UNK N   1      35.895  12.975  10.378  0.00  0.00     0.122 A 
HETATM    2  C   UNK N   1      35.457  11.546  10.445  0.00  0.00     0.192 A 
HETATM    3  O   UNK N   1      34.552  12.624  10.599  0.00  0.00    -0.363 OA
HETATM    4  C   UNK N   1      35.463  10.778  11.787  0.00  0.00     0.193 A 
HETATM    5  C   UNK N   1      35.832  11.522  13.023  0.00  0.00     0.137 A 
HETATM    6  O   UNK N   1      36.779  10.754  12.326  0.00  0.00    -0.362 OA
HETATM    7  C   UNK N   1      35.349  10.924  14.365  0.00  0.00     0.029 C 
HETATM    8  C   UNK N   1      35.664   9.407  14.489  0.00  0.00     0.020 C 
HETATM    9  C   UNK N   1      35.313   8.791  15.864  0.00  0.00     0.046 C 
HETATM   10  C   UNK N   1      35.278   9.811  16.972  0.00  0.00     0.025 A 
HETATM   11  C   UNK N   1      35.584  11.088  16.838  0.00  0.00    -0.009 A 
HETATM   12  C   UNK N   1      36.067  11.664  15.527  0.00  0.00     0.097 C 
HETATM   13  C   UNK N   1      35.811  13.175  15.479  0.00  0.00     0.079 C 
HETATM   14  C   UNK N   1      36.178  13.849  14.149  0.00  0.00     0.166 A 
HETATM   15  C   UNK N   1      36.062  13.033  12.904  0.00  0.00     0.150 A 
HETATM   16  C   UNK N   1      36.631  13.572  11.592  0.00  0.00     0.196 C 
HETATM   17  O   UNK N   1      34.997  13.812  13.362  0.00  0.00    -0.363 OA
HETATM   18  O   UNK N   1      37.446  11.441  15.438  0.00  0.00    -0.384 OA
HETATM   19  C   UNK N   1      35.313  11.831  18.134  0.00  0.00     0.217 A 
HETATM   20  O   UNK N   1      34.858  10.815  18.972  0.00  0.00    -0.313 OA
HETATM   21  C   UNK N   1      34.833   9.641  18.321  0.00  0.00     0.290 A 
HETATM   22  O   UNK N   1      34.459   8.594  18.822  0.00  0.00    -0.260 OA
HETATM   23  C   UNK N   1      33.830  11.126  14.442  0.00  0.00     0.022 C 
HETATM   24  H   UNK N   1      38.386  11.212  15.363  0.00  0.00     0.211 HD
ENDROOT
BRANCH  16  25
HETATM   25  O   UNK N   1      36.616  14.970  11.555  0.00  0.00    -0.389 OA
HETATM   26  H   UNK N   1      36.206  15.454  10.822  0.00  0.00     0.210 HD
ENDBRANCH  16  25
BRANCH   1  27
HETATM   27  C   UNK N   1      36.074  13.538   8.961  0.00  0.00     0.017 C 
HETATM   28  C   UNK N   1      35.256  14.800   8.750  0.00  0.00     0.012 C 
HETATM   29  C   UNK N   1      37.531  13.812   8.631  0.00  0.00     0.012 C 
ENDBRANCH   1  27
TORSDOF 2
ENDMDL
MODEL 5
REMARK VINA RESULT:      -7.3     15.148     18.600
REMARK  2 active torsions:
REMARK  status: ('A' for Active; 'I' for Inactive)
REMARK    1  A    between atoms: C_4  and  C_2 
REMARK    2  A    between atoms: C_19  and  O_20 
ROOT
HETATM    1  C   UNK N   1      36.028  13.380  10.259  0.00  0.00     0.122 A 
HETATM    2  C   UNK N   1      36.259  14.404  11.326  0.00  0.00     0.192 A 
HETATM    3  O   UNK N   1      37.269  13.503  10.907  0.00  0.00    -0.363 OA
HETATM    4  C   UNK N   1      35.966  14.082  12.809  0.00  0.00     0.193 A 
HETATM    5  C   UNK N   1      35.533  12.700  13.159  0.00  0.00     0.137 A 
HETATM    6  O   UNK N   1      34.597  13.731  12.968  0.00  0.00    -0.362 OA
HETATM    7  C   UNK N   1      35.742  12.255  14.625  0.00  0.00     0.029 C 
HETATM    8  C   UNK N   1      35.214  13.302  15.646  0.00  0.00     0.020 C 
HETATM    9  C   UNK N   1      35.288  12.848  17.123  0.00  0.00     0.046 C 
HETATM   10  C   UNK N   1      35.305  11.348  17.275  0.00  0.00     0.025 A 
HETATM   11  C   UNK N   1      35.191  10.484  16.284  0.00  0.00    -0.009 A 
HETATM   12  C   UNK N   1      34.975  10.924  14.856  0.00  0.00     0.097 C 
HETATM   13  C   UNK N   1      35.433   9.832  13.882  0.00  0.00     0.079 C 
HETATM   14  C   UNK N   1      35.345  10.213  12.398  0.00  0.00     0.166 A 
HETATM   15  C   UNK N   1      35.523  11.652  12.041  0.00  0.00     0.150 A 
HETATM   16  C   UNK N   1      35.217  12.121  10.618  0.00  0.00     0.196 C 
HETATM   17  O   UNK N   1      36.609  10.773  12.071  0.00  0.00    -0.363 OA
HETATM   18  O   UNK N   1      33.604  11.141  14.672  0.00  0.00    -0.384 OA
HETATM   19  C   UNK N   1      35.378   9.068  16.801  0.00  0.00     0.217 A 
HETATM   20  O   UNK N   1      35.573   9.270  18.165  0.00  0.00    -0.313 OA
HETATM   21  C   UNK N   1      35.533  10.580  18.460  0.00  0.00     0.290 A 
HETATM   22  O   UNK N   1      35.692  11.028  19.582  0.00  0.00    -0.260 OA
HETATM   23  C   UNK N   1      37.248  12.064  14.840  0.00  0.00     0.022 C 
HETATM   24  H   UNK N   1      32.661  11.355  14.587  0.00  0.00     0.211 HD
ENDROOT
BRANCH  16  25
HETATM   25  O   UNK N   1      35.422  11.103   9.681  0.00  0.00    -0.389 OA
HETATM   26  H   UNK N   1      35.806  10.249   9.935  0.00  0.00     0.210 HD
ENDBRANCH  16  25
BRANCH   1  27
HETATM   27  C   UNK N   1      36.122  13.903   8.819  0.00  0.00     0.017 C 
HETATM   28  C   UNK N   1      37.210  13.192   8.032  0.00  0.00     0.012 C 
HETATM   29  C   UNK N   1      34.801  13.792   8.079  0.00  0.00     0.012 C 
ENDBRANCH   1  27
TORSDOF 2
ENDMDL
MODEL 6
REMARK VINA RESULT:      -7.3     13.589     15.399
REMARK  2 active torsions:
REMARK  status: ('A' for Active; 'I' for Inactive)
REMARK    1  A    between atoms: C_4  and  C_2 
REMARK    2  A    between atoms: C_19  and  O_20 
ROOT
HETATM    1  C   UNK N   1      36.255  11.411  12.694  0.00  0.00     0.122 A 
HETATM    2  C   UNK N   1      36.102  10.865  11.310  0.00  0.00     0.192 A 
HETATM    3  O   UNK N   1      37.286  11.511  11.743  0.00  0.00    -0.363 OA
HETATM    4  C   UNK N   1      35.512  11.735  10.176  0.00  0.00     0.193 A 
HETATM    5  C   UNK N   1      35.184  13.156  10.476  0.00  0.00     0.137 A 
HETATM    6  O   UNK N   1      34.198  12.156  10.521  0.00  0.00    -0.362 OA
HETATM    7  C   UNK N   1      35.098  14.120   9.270  0.00  0.00     0.029 C 
HETATM    8  C   UNK N   1      34.220  13.556   8.118  0.00  0.00     0.020 C 
HETATM    9  C   UNK N   1      34.002  14.536   6.941  0.00  0.00     0.046 C 
HETATM   10  C   UNK N   1      34.169  15.979   7.341  0.00  0.00     0.025 A 
HETATM   11  C   UNK N   1      34.399  16.404   8.569  0.00  0.00    -0.009 A 
HETATM   12  C   UNK N   1      34.470  15.459   9.745  0.00  0.00     0.097 C 
HETATM   13  C   UNK N   1      35.274  16.086  10.890  0.00  0.00     0.079 C 
HETATM   14  C   UNK N   1      35.490  15.171  12.104  0.00  0.00     0.166 A 
HETATM   15  C   UNK N   1      35.567  13.700  11.857  0.00  0.00     0.150 A 
HETATM   16  C   UNK N   1      35.546  12.734  13.041  0.00  0.00     0.196 C 
HETATM   17  O   UNK N   1      36.716  14.495  11.861  0.00  0.00    -0.363 OA
HETATM   18  O   UNK N   1      33.163  15.225  10.193  0.00  0.00    -0.384 OA
HETATM   19  C   UNK N   1      34.633  17.904   8.569  0.00  0.00     0.217 A 
HETATM   20  O   UNK N   1      34.477  18.232   7.224  0.00  0.00    -0.313 OA
HETATM   21  C   UNK N   1      34.207  17.134   6.498  0.00  0.00     0.290 A 
HETATM   22  O   UNK N   1      34.042  17.142   5.291  0.00  0.00    -0.260 OA
HETATM   23  C   UNK N   1      36.524  14.338   8.749  0.00  0.00     0.022 C 
HETATM   24  H   UNK N   1      32.248  15.020  10.440  0.00  0.00     0.211 HD
ENDROOT
BRANCH  16  25
HETATM   25  O   UNK N   1      36.089  13.312  14.192  0.00  0.00    -0.389 OA
HETATM   26  H   UNK N   1      35.825  14.198  14.489  0.00  0.00     0.210 HD
ENDBRANCH  16  25
BRANCH   1  27
HETATM   27  C   UNK N   1      36.619  10.378  13.769  0.00  0.00     0.017 C 
HETATM   28  C   UNK N   1      37.913  10.735  14.480  0.00  0.00     0.012 C 
HETATM   29  C   UNK N   1      35.509  10.195  14.789  0.00  0.00     0.012 C 
ENDBRANCH   1  27
TORSDOF 2
ENDMDL
MODEL 7
REMARK VINA RESULT:      -7.2     13.303     17.258
REMARK  2 active torsions:
REMARK  status: ('A' for Active; 'I' for Inactive)
REMARK    1  A    between atoms: C_4  and  C_2 
REMARK    2  A    between atoms: C_19  and  O_20 
ROOT
HETATM    1  C   UNK N   1      34.242  16.268   9.314  0.00  0.00     0.122 A 
HETATM    2  C   UNK N   1      35.088  16.645  10.489  0.00  0.00     0.192 A 
HETATM    3  O   UNK N   1      35.644  16.323   9.227  0.00  0.00    -0.363 OA
HETATM    4  C   UNK N   1      35.590  15.570  11.481  0.00  0.00     0.193 A 
HETATM    5  C   UNK N   1      35.284  14.142  11.188  0.00  0.00     0.137 A 
HETATM    6  O   UNK N   1      34.483  14.893  12.064  0.00  0.00    -0.362 OA
HETATM    7  C   UNK N   1      36.192  13.084  11.858  0.00  0.00     0.029 C 
HETATM    8  C   UNK N   1      36.373  13.334  13.381  0.00  0.00     0.020 C 
HETATM    9  C   UNK N   1      37.170  12.234  14.120  0.00  0.00     0.046 C 
HETATM   10  C   UNK N   1      37.132  10.905  13.409  0.00  0.00     0.025 A 
HETATM   11  C   UNK N   1      36.440  10.650  12.315  0.00  0.00    -0.009 A 
HETATM   12  C   UNK N   1      35.546  11.684  11.671  0.00  0.00     0.097 C 
HETATM   13  C   UNK N   1      35.326  11.356  10.190  0.00  0.00     0.079 C 
HETATM   14  C   UNK N   1      34.507  12.396   9.413  0.00  0.00     0.166 A 
HETATM   15  C   UNK N   1      34.597  13.819   9.856  0.00  0.00     0.150 A 
HETATM   16  C   UNK N   1      33.633  14.854   9.275  0.00  0.00     0.196 C 
HETATM   17  O   UNK N   1      35.455  13.308   8.878  0.00  0.00    -0.363 OA
HETATM   18  O   UNK N   1      34.307  11.653  12.325  0.00  0.00    -0.384 OA
HETATM   19  C   UNK N   1      36.743   9.248  11.818  0.00  0.00     0.217 A 
HETATM   20  O   UNK N   1      37.643   8.780  12.774  0.00  0.00    -0.313 OA
HETATM   21  C   UNK N   1      37.879   9.721  13.702  0.00  0.00     0.290 A 
HETATM   22  O   UNK N   1      38.642   9.572  14.641  0.00  0.00    -0.260 OA
HETATM   23  C   UNK N   1      37.563  13.151  11.175  0.00  0.00     0.022 C 
HETATM   24  H   UNK N   1      33.484  11.665  12.837  0.00  0.00     0.211 HD
ENDROOT
BRANCH  16  25
HETATM   25  O   UNK N   1      33.225  14.514   7.982  0.00  0.00    -0.389 OA
HETATM   26  H   UNK N   1      32.448  13.954   7.825  0.00  0.00     0.210 HD
ENDBRANCH  16  25
BRANCH   1  27
HETATM   27  C   UNK N   1      33.613  17.445   8.557  0.00  0.00     0.017 C 
HETATM   28  C   UNK N   1      34.107  17.520   7.122  0.00  0.00     0.012 C 
HETATM   29  C   UNK N   1      32.096  17.394   8.572  0.00  0.00     0.012 C 
ENDBRANCH   1  27
TORSDOF 2
ENDMDL
MODEL 8
REMARK VINA RESULT:      -7.0     12.881     16.319
REMARK  2 active torsions:
REMARK  status: ('A' for Active; 'I' for Inactive)
REMARK    1  A    between atoms: C_4  and  C_2 
REMARK    2  A    between atoms: C_19  and  O_20 
ROOT
HETATM    1  C   UNK N   1      33.466  15.699   6.326  0.00  0.00     0.122 A 
HETATM    2  C   UNK N   1      34.024  14.326   6.120  0.00  0.00     0.192 A 
HETATM    3  O   UNK N   1      32.777  14.551   6.753  0.00  0.00    -0.363 OA
HETATM    4  C   UNK N   1      34.947  13.679   7.177  0.00  0.00     0.193 A 
HETATM    5  C   UNK N   1      35.196  14.421   8.445  0.00  0.00     0.137 A 
HETATM    6  O   UNK N   1      36.101  14.487   7.372  0.00  0.00    -0.362 OA
HETATM    7  C   UNK N   1      35.663  13.585   9.659  0.00  0.00     0.029 C 
HETATM    8  C   UNK N   1      36.840  12.632   9.308  0.00  0.00     0.020 C 
HETATM    9  C   UNK N   1      37.425  11.865  10.518  0.00  0.00     0.046 C 
HETATM   10  C   UNK N   1      37.172  12.562  11.831  0.00  0.00     0.025 A 
HETATM   11  C   UNK N   1      36.587  13.737  11.965  0.00  0.00    -0.009 A 
HETATM   12  C   UNK N   1      36.143  14.554  10.775  0.00  0.00     0.097 C 
HETATM   13  C   UNK N   1      35.040  15.538  11.181  0.00  0.00     0.079 C 
HETATM   14  C   UNK N   1      34.447  16.356  10.025  0.00  0.00     0.166 A 
HETATM   15  C   UNK N   1      34.421  15.723   8.672  0.00  0.00     0.150 A 
HETATM   16  C   UNK N   1      34.061  16.569   7.450  0.00  0.00     0.196 C 
HETATM   17  O   UNK N   1      33.341  15.601   9.550  0.00  0.00    -0.363 OA
HETATM   18  O   UNK N   1      37.246  15.283  10.314  0.00  0.00    -0.384 OA
HETATM   19  C   UNK N   1      36.392  14.059  13.436  0.00  0.00     0.217 A 
HETATM   20  O   UNK N   1      36.956  12.951  14.064  0.00  0.00    -0.313 OA
HETATM   21  C   UNK N   1      37.415  12.075  13.154  0.00  0.00     0.290 A 
HETATM   22  O   UNK N   1      37.940  11.012  13.438  0.00  0.00    -0.260 OA
HETATM   23  C   UNK N   1      34.469  12.750  10.134  0.00  0.00     0.022 C 
HETATM   24  H   UNK N   1      38.038  15.723   9.968  0.00  0.00     0.211 HD
ENDROOT
BRANCH  16  25
HETATM   25  O   UNK N   1      33.204  17.622   7.782  0.00  0.00    -0.389 OA
HETATM   26  H   UNK N   1      33.214  18.027   8.664  0.00  0.00     0.210 HD
ENDBRANCH  16  25
BRANCH   1  27
HETATM   27  C   UNK N   1      32.773  16.315   5.103  0.00  0.00     0.017 C 
HETATM   28  C   UNK N   1      31.285  16.510   5.338  0.00  0.00     0.012 C 
HETATM   29  C   UNK N   1      33.402  17.633   4.689  0.00  0.00     0.012 C 
ENDBRANCH   1  27
TORSDOF 2
ENDMDL
MODEL 9
REMARK VINA RESULT:      -7.0     15.540     17.624
REMARK  2 active torsions:
REMARK  status: ('A' for Active; 'I' for Inactive)
REMARK    1  A    between atoms: C_4  and  C_2 
REMARK    2  A    between atoms: C_19  and  O_20 
ROOT
HETATM    1  C   UNK N   1      26.848  22.875  -7.711  0.00  0.00     0.122 A 
HETATM    2  C   UNK N   1      28.067  22.836  -6.844  0.00  0.00     0.192 A 
HETATM    3  O   UNK N   1      26.777  22.518  -6.353  0.00  0.00    -0.363 OA
HETATM    4  C   UNK N   1      28.534  24.095  -6.078  0.00  0.00     0.193 A 
HETATM    5  C   UNK N   1      27.691  25.321  -6.155  0.00  0.00     0.137 A 
HETATM    6  O   UNK N   1      28.804  25.148  -6.995  0.00  0.00    -0.362 OA
HETATM    7  C   UNK N   1      27.868  26.358  -5.022  0.00  0.00     0.029 C 
HETATM    8  C   UNK N   1      29.360  26.700  -4.755  0.00  0.00     0.020 C 
HETATM    9  C   UNK N   1      29.583  27.825  -3.716  0.00  0.00     0.046 C 
HETATM   10  C   UNK N   1      28.396  28.745  -3.585  0.00  0.00     0.025 A 
HETATM   11  C   UNK N   1      27.299  28.676  -4.315  0.00  0.00    -0.009 A 
HETATM   12  C   UNK N   1      27.137  27.668  -5.428  0.00  0.00     0.097 C 
HETATM   13  C   UNK N   1      25.652  27.420  -5.716  0.00  0.00     0.079 C 
HETATM   14  C   UNK N   1      25.370  26.339  -6.769  0.00  0.00     0.166 A 
HETATM   15  C   UNK N   1      26.350  25.219  -6.889  0.00  0.00     0.150 A 
HETATM   16  C   UNK N   1      26.247  24.248  -8.066  0.00  0.00     0.196 C 
HETATM   17  O   UNK N   1      25.241  25.124  -6.045  0.00  0.00    -0.363 OA
HETATM   18  O   UNK N   1      27.734  28.195  -6.580  0.00  0.00    -0.384 OA
HETATM   19  C   UNK N   1      26.275  29.680  -3.817  0.00  0.00     0.217 A 
HETATM   20  O   UNK N   1      26.950  30.303  -2.769  0.00  0.00    -0.313 OA
HETATM   21  C   UNK N   1      28.178  29.779  -2.620  0.00  0.00     0.290 A 
HETATM   22  O   UNK N   1      28.969  30.135  -1.764  0.00  0.00    -0.260 OA
HETATM   23  C   UNK N   1      27.257  25.762  -3.749  0.00  0.00     0.022 C 
HETATM   24  H   UNK N   1      28.216  28.546  -7.345  0.00  0.00     0.211 HD
ENDROOT
BRANCH  16  25
HETATM   25  O   UNK N   1      24.930  24.122  -8.520  0.00  0.00    -0.389 OA
HETATM   26  H   UNK N   1      24.265  23.624  -8.019  0.00  0.00     0.210 HD
ENDBRANCH  16  25
BRANCH   1  27
HETATM   27  C   UNK N   1      26.638  21.642  -8.600  0.00  0.00     0.017 C 
HETATM   28  C   UNK N   1      25.413  20.848  -8.179  0.00  0.00     0.012 C 
HETATM   29  C   UNK N   1      26.532  22.003 -10.070  0.00  0.00     0.012 C 
ENDBRANCH   1  27
TORSDOF 2
ENDMDL
