REMARK  0 active torsions:
REMARK  status: ('A' for Active; 'I' for Inactive)
ROOT
HETATM    1  C   UNK N   1       2.506   2.473   0.305  0.00  0.00     0.001 A 
HETATM    2  C   UNK N   1       1.278   1.936  -0.070  0.00  0.00     0.011 A 
HETATM    3  C   UNK N   1       1.118   0.558  -0.243  0.00  0.00    -0.014 A 
HETATM    4  C   UNK N   1       2.229  -0.315  -0.032  0.00  0.00     0.045 A 
HETATM    5  C   UNK N   1       3.475   0.256   0.344  0.00  0.00    -0.026 A 
HETATM    6  C   UNK N   1       3.599   1.638   0.506  0.00  0.00     0.010 A 
HETATM    7  C   UNK N   1       4.682  -0.614   0.609  0.00  0.00     0.026 C 
HETATM    8  C   UNK N   1       5.782  -0.391  -0.405  0.00  0.00     0.010 C 
HETATM    9  C   UNK N   1       6.604  -1.667  -0.379  0.00  0.00     0.001 C 
HETATM   10  C   UNK N   1       5.745  -2.742   0.281  0.00  0.00     0.007 C 
HETATM   11  C   UNK N   1       4.403  -2.109   0.596  0.00  0.00     0.012 C 
HETATM   12  C   UNK N   1       3.381  -2.463  -0.473  0.00  0.00     0.128 C 
HETATM   13  N   UNK N   1       2.157  -1.741  -0.207  0.00  0.00    -0.378 N 
HETATM   14  C   UNK N   1       1.006  -2.534   0.181  0.00  0.00     0.142 C 
HETATM   15  C   UNK N   1      -0.264  -2.170  -0.546  0.00  0.00     0.134 C 
HETATM   16  N   UNK N   1      -0.781  -0.950   0.035  0.00  0.00    -0.416 N 
HETATM   17  C   UNK N   1      -0.208   0.105  -0.767  0.00  0.00     0.155 C 
HETATM   18  H   UNK N   1      -1.409  -0.857   0.833  0.00  0.00     0.153 HD
ENDROOT
TORSDOF 0
