MODEL 1
REMARK VINA RESULT:      -7.5      0.000      0.000
REMARK  8 active torsions:
REMARK  status: ('A' for Active; 'I' for Inactive)
REMARK    1  A    between atoms: O_2  and  C_3 
REMARK    2  A    between atoms: C_6  and  C_11 
REMARK    3  A    between atoms: C_8  and  O_9 
REMARK    4  A    between atoms: C_19  and  O_24 
REMARK    5  A    between atoms: C_21  and  O_22 
REMARK    6  A    between atoms: O_24  and  C_25 
REMARK    7  A    between atoms: C_25  and  C_26 
REMARK    8  A    between atoms: C_26  and  O_28 
ROOT
HETATM    1  C   UNK N   1      36.408  12.870  14.254  0.00  0.00     0.090 A 
HETATM    2  C   UNK N   1      37.052  11.921  13.453  0.00  0.00     0.094 A 
HETATM    3  C   UNK N   1      37.314  12.215  12.115  0.00  0.00     0.190 A 
HETATM    4  O   UNK N   1      37.842  11.361  11.428  0.00  0.00    -0.287 OA
HETATM    5  C   UNK N   1      36.898  13.462  11.574  0.00  0.00     0.081 A 
HETATM    6  C   UNK N   1      36.250  14.357  12.470  0.00  0.00     0.095 A 
HETATM    7  O   UNK N   1      36.051  14.034  13.736  0.00  0.00    -0.309 OA
HETATM    8  C   UNK N   1      35.743  15.566  12.023  0.00  0.00     0.075 A 
HETATM    9  C   UNK N   1      35.839  15.934  10.683  0.00  0.00     0.074 A 
HETATM   10  C   UNK N   1      36.484  15.083   9.787  0.00  0.00     0.074 A 
HETATM   11  C   UNK N   1      37.036  13.862  10.202  0.00  0.00     0.087 A 
ENDROOT
BRANCH   1  12
HETATM   12  C   UNK N   1      35.944  12.549  15.615  0.00  0.00     0.001 A 
HETATM   13  C   UNK N   1      35.975  11.219  16.043  0.00  0.00     0.017 A 
HETATM   14  C   UNK N   1      35.701  10.894  17.367  0.00  0.00     0.040 A 
HETATM   15  C   UNK N   1      35.417  11.890  18.305  0.00  0.00     0.101 A 
HETATM   16  C   UNK N   1      35.368  13.248  17.882  0.00  0.00     0.102 A 
HETATM   17  C   UNK N   1      35.629  13.556  16.532  0.00  0.00     0.054 A 
BRANCH  15  18
HETATM   18  O   UNK N   1      35.219  11.495  19.590  0.00  0.00    -0.353 OA
HETATM   19  C   UNK N   1      34.630  10.317  19.982  0.00  0.00     0.210 C 
ENDBRANCH  15  18
BRANCH  16  20
HETATM   20  O   UNK N   1      35.096  14.235  18.769  0.00  0.00    -0.353 OA
HETATM   21  C   UNK N   1      35.403  15.560  18.551  0.00  0.00     0.210 C 
ENDBRANCH  16  20
ENDBRANCH   1  12
BRANCH  11  22
HETATM   22  O   UNK N   1      37.647  13.119   9.244  0.00  0.00    -0.355 OA
HETATM   23  C   UNK N   1      38.843  13.460   8.658  0.00  0.00     0.210 C 
ENDBRANCH  11  22
BRANCH   9  24
HETATM   24  O   UNK N   1      35.307  17.096  10.239  0.00  0.00    -0.341 OA
BRANCH  24  25
HETATM   25  C   UNK N   1      34.423  17.147   9.179  0.00  0.00     0.285 C 
BRANCH  25  26
HETATM   26  C   UNK N   1      34.770  18.263   8.249  0.00  0.00     0.164 C 
HETATM   27  O   UNK N   1      35.359  19.242   8.676  0.00  0.00    -0.648 OA
BRANCH  26  28
HETATM   28  O   UNK N   1      34.446  18.193   6.943  0.00  0.00    -0.775 OA
HETATM   29  H   UNK N   1      34.951  17.968   6.186  0.00  0.00     0.167 HD
ENDBRANCH  26  28
ENDBRANCH  25  26
ENDBRANCH  24  25
ENDBRANCH   9  24
TORSDOF 8
ENDMDL
MODEL 2
REMARK VINA RESULT:      -7.4      1.044      2.145
REMARK  8 active torsions:
REMARK  status: ('A' for Active; 'I' for Inactive)
REMARK    1  A    between atoms: O_2  and  C_3 
REMARK    2  A    between atoms: C_6  and  C_11 
REMARK    3  A    between atoms: C_8  and  O_9 
REMARK    4  A    between atoms: C_19  and  O_24 
REMARK    5  A    between atoms: C_21  and  O_22 
REMARK    6  A    between atoms: O_24  and  C_25 
REMARK    7  A    between atoms: C_25  and  C_26 
REMARK    8  A    between atoms: C_26  and  O_28 
ROOT
HETATM    1  C   UNK N   1      36.667  12.808  13.905  0.00  0.00     0.090 A 
HETATM    2  C   UNK N   1      37.290  11.943  12.999  0.00  0.00     0.094 A 
HETATM    3  C   UNK N   1      37.403  12.316  11.659  0.00  0.00     0.190 A 
HETATM    4  O   UNK N   1      37.916  11.532  10.884  0.00  0.00    -0.287 OA
HETATM    5  C   UNK N   1      36.858  13.554  11.225  0.00  0.00     0.081 A 
HETATM    6  C   UNK N   1      36.244  14.361  12.222  0.00  0.00     0.095 A 
HETATM    7  O   UNK N   1      36.188  13.969  13.483  0.00  0.00    -0.309 OA
HETATM    8  C   UNK N   1      35.620  15.552  11.888  0.00  0.00     0.075 A 
HETATM    9  C   UNK N   1      35.563  15.986  10.565  0.00  0.00     0.074 A 
HETATM   10  C   UNK N   1      36.172  15.223   9.571  0.00  0.00     0.074 A 
HETATM   11  C   UNK N   1      36.838  14.025   9.869  0.00  0.00     0.087 A 
ENDROOT
BRANCH   1  12
HETATM   12  C   UNK N   1      36.357  12.395  15.284  0.00  0.00     0.001 A 
HETATM   13  C   UNK N   1      35.669  13.283  16.117  0.00  0.00     0.017 A 
HETATM   14  C   UNK N   1      35.216  12.874  17.367  0.00  0.00     0.040 A 
HETATM   15  C   UNK N   1      35.409  11.563  17.806  0.00  0.00     0.101 A 
HETATM   16  C   UNK N   1      36.120  10.651  16.976  0.00  0.00     0.102 A 
HETATM   17  C   UNK N   1      36.590  11.087  15.721  0.00  0.00     0.054 A 
BRANCH  15  18
HETATM   18  O   UNK N   1      34.884  11.228  19.013  0.00  0.00    -0.353 OA
HETATM   19  C   UNK N   1      35.578  11.167  20.198  0.00  0.00     0.210 C 
ENDBRANCH  15  18
BRANCH  16  20
HETATM   20  O   UNK N   1      36.323   9.372  17.376  0.00  0.00    -0.353 OA
HETATM   21  C   UNK N   1      35.811   8.278  16.714  0.00  0.00     0.210 C 
ENDBRANCH  16  20
ENDBRANCH   1  12
BRANCH  11  22
HETATM   22  O   UNK N   1      37.399  13.370   8.821  0.00  0.00    -0.355 OA
HETATM   23  C   UNK N   1      36.682  12.852   7.769  0.00  0.00     0.210 C 
ENDBRANCH  11  22
BRANCH   9  24
HETATM   24  O   UNK N   1      34.918  17.129  10.233  0.00  0.00    -0.341 OA
BRANCH  24  25
HETATM   25  C   UNK N   1      34.121  17.228   9.110  0.00  0.00     0.285 C 
BRANCH  25  26
HETATM   26  C   UNK N   1      34.653  18.259   8.169  0.00  0.00     0.164 C 
HETATM   27  O   UNK N   1      34.418  18.164   6.976  0.00  0.00    -0.648 OA
BRANCH  26  28
HETATM   28  O   UNK N   1      35.381  19.295   8.629  0.00  0.00    -0.775 OA
HETATM   29  H   UNK N   1      35.702  19.500   9.485  0.00  0.00     0.167 HD
ENDBRANCH  26  28
ENDBRANCH  25  26
ENDBRANCH  24  25
ENDBRANCH   9  24
TORSDOF 8
ENDMDL
MODEL 3
REMARK VINA RESULT:      -7.1     11.262     15.921
REMARK  8 active torsions:
REMARK  status: ('A' for Active; 'I' for Inactive)
REMARK    1  A    between atoms: O_2  and  C_3 
REMARK    2  A    between atoms: C_6  and  C_11 
REMARK    3  A    between atoms: C_8  and  O_9 
REMARK    4  A    between atoms: C_19  and  O_24 
REMARK    5  A    between atoms: C_21  and  O_22 
REMARK    6  A    between atoms: O_24  and  C_25 
REMARK    7  A    between atoms: C_25  and  C_26 
REMARK    8  A    between atoms: C_26  and  O_28 
ROOT
HETATM    1  C   UNK N   1      26.158  18.820   4.647  0.00  0.00     0.090 A 
HETATM    2  C   UNK N   1      26.115  19.725   3.580  0.00  0.00     0.094 A 
HETATM    3  C   UNK N   1      24.882  20.110   3.054  0.00  0.00     0.190 A 
HETATM    4  O   UNK N   1      24.871  20.869   2.104  0.00  0.00    -0.287 OA
HETATM    5  C   UNK N   1      23.686  19.558   3.588  0.00  0.00     0.081 A 
HETATM    6  C   UNK N   1      23.836  18.646   4.670  0.00  0.00     0.095 A 
HETATM    7  O   UNK N   1      25.030  18.337   5.145  0.00  0.00    -0.309 OA
HETATM    8  C   UNK N   1      22.737  18.000   5.212  0.00  0.00     0.075 A 
HETATM    9  C   UNK N   1      21.458  18.211   4.704  0.00  0.00     0.074 A 
HETATM   10  C   UNK N   1      21.280  19.112   3.656  0.00  0.00     0.074 A 
HETATM   11  C   UNK N   1      22.361  19.809   3.095  0.00  0.00     0.087 A 
ENDROOT
BRANCH   1  12
HETATM   12  C   UNK N   1      27.426  18.239   5.121  0.00  0.00     0.001 A 
HETATM   13  C   UNK N   1      28.361  17.800   4.179  0.00  0.00     0.017 A 
HETATM   14  C   UNK N   1      29.631  17.397   4.577  0.00  0.00     0.040 A 
HETATM   15  C   UNK N   1      30.011  17.450   5.920  0.00  0.00     0.101 A 
HETATM   16  C   UNK N   1      29.066  17.881   6.893  0.00  0.00     0.102 A 
HETATM   17  C   UNK N   1      27.777  18.266   6.474  0.00  0.00     0.054 A 
BRANCH  15  18
HETATM   18  O   UNK N   1      31.289  17.095   6.219  0.00  0.00    -0.353 OA
HETATM   19  C   UNK N   1      32.316  16.972   5.313  0.00  0.00     0.210 C 
ENDBRANCH  15  18
BRANCH  16  20
HETATM   20  O   UNK N   1      29.407  17.941   8.203  0.00  0.00    -0.353 OA
HETATM   21  C   UNK N   1      28.491  17.874   9.230  0.00  0.00     0.210 C 
ENDBRANCH  16  20
ENDBRANCH   1  12
BRANCH  11  22
HETATM   22  O   UNK N   1      22.067  20.665   2.084  0.00  0.00    -0.355 OA
HETATM   23  C   UNK N   1      20.906  20.613   1.350  0.00  0.00     0.210 C 
ENDBRANCH  11  22
BRANCH   9  24
HETATM   24  O   UNK N   1      20.390  17.547   5.206  0.00  0.00    -0.341 OA
BRANCH  24  25
HETATM   25  C   UNK N   1      19.711  16.585   4.484  0.00  0.00     0.285 C 
BRANCH  25  26
HETATM   26  C   UNK N   1      18.969  15.662   5.393  0.00  0.00     0.164 C 
HETATM   27  O   UNK N   1      19.541  14.696   5.869  0.00  0.00    -0.648 OA
BRANCH  26  28
HETATM   28  O   UNK N   1      17.677  15.892   5.698  0.00  0.00    -0.775 OA
HETATM   29  H   UNK N   1      17.239  15.995   6.520  0.00  0.00     0.167 HD
ENDBRANCH  26  28
ENDBRANCH  25  26
ENDBRANCH  24  25
ENDBRANCH   9  24
TORSDOF 8
ENDMDL
MODEL 4
REMARK VINA RESULT:      -7.1     10.751     15.717
REMARK  8 active torsions:
REMARK  status: ('A' for Active; 'I' for Inactive)
REMARK    1  A    between atoms: O_2  and  C_3 
REMARK    2  A    between atoms: C_6  and  C_11 
REMARK    3  A    between atoms: C_8  and  O_9 
REMARK    4  A    between atoms: C_19  and  O_24 
REMARK    5  A    between atoms: C_21  and  O_22 
REMARK    6  A    between atoms: O_24  and  C_25 
REMARK    7  A    between atoms: C_25  and  C_26 
REMARK    8  A    between atoms: C_26  and  O_28 
ROOT
HETATM    1  C   UNK N   1      26.466  18.956   4.579  0.00  0.00     0.090 A 
HETATM    2  C   UNK N   1      26.359  19.833   3.494  0.00  0.00     0.094 A 
HETATM    3  C   UNK N   1      25.097  20.179   3.011  0.00  0.00     0.190 A 
HETATM    4  O   UNK N   1      25.031  20.915   2.045  0.00  0.00    -0.287 OA
HETATM    5  C   UNK N   1      23.937  19.615   3.607  0.00  0.00     0.081 A 
HETATM    6  C   UNK N   1      24.151  18.733   4.702  0.00  0.00     0.095 A 
HETATM    7  O   UNK N   1      25.370  18.460   5.133  0.00  0.00    -0.309 OA
HETATM    8  C   UNK N   1      23.090  18.076   5.303  0.00  0.00     0.075 A 
HETATM    9  C   UNK N   1      21.786  18.247   4.844  0.00  0.00     0.074 A 
HETATM   10  C   UNK N   1      21.546  19.119   3.784  0.00  0.00     0.074 A 
HETATM   11  C   UNK N   1      22.587  19.826   3.163  0.00  0.00     0.087 A 
ENDROOT
BRANCH   1  12
HETATM   12  C   UNK N   1      27.764  18.413   5.013  0.00  0.00     0.001 A 
HETATM   13  C   UNK N   1      28.117  18.503   6.362  0.00  0.00     0.017 A 
HETATM   14  C   UNK N   1      29.255  17.862   6.841  0.00  0.00     0.040 A 
HETATM   15  C   UNK N   1      30.054  17.091   5.994  0.00  0.00     0.101 A 
HETATM   16  C   UNK N   1      29.716  17.001   4.614  0.00  0.00     0.102 A 
HETATM   17  C   UNK N   1      28.571  17.673   4.142  0.00  0.00     0.054 A 
BRANCH  15  18
HETATM   18  O   UNK N   1      31.113  16.450   6.552  0.00  0.00    -0.353 OA
HETATM   19  C   UNK N   1      32.368  16.983   6.728  0.00  0.00     0.210 C 
ENDBRANCH  15  18
BRANCH  16  20
HETATM   20  O   UNK N   1      30.473  16.261   3.768  0.00  0.00    -0.353 OA
HETATM   21  C   UNK N   1      31.536  16.770   3.056  0.00  0.00     0.210 C 
ENDBRANCH  16  20
ENDBRANCH   1  12
BRANCH  11  22
HETATM   22  O   UNK N   1      22.234  20.651   2.146  0.00  0.00    -0.355 OA
HETATM   23  C   UNK N   1      21.013  20.608   1.514  0.00  0.00     0.210 C 
ENDBRANCH  11  22
BRANCH   9  24
HETATM   24  O   UNK N   1      20.755  17.573   5.405  0.00  0.00    -0.341 OA
BRANCH  24  25
HETATM   25  C   UNK N   1      20.910  16.788   6.531  0.00  0.00     0.285 C 
BRANCH  25  26
HETATM   26  C   UNK N   1      20.421  17.502   7.748  0.00  0.00     0.164 C 
HETATM   27  O   UNK N   1      19.930  16.864   8.665  0.00  0.00    -0.648 OA
BRANCH  26  28
HETATM   28  O   UNK N   1      20.524  18.842   7.846  0.00  0.00    -0.775 OA
HETATM   29  H   UNK N   1      20.734  19.499   7.211  0.00  0.00     0.167 HD
ENDBRANCH  26  28
ENDBRANCH  25  26
ENDBRANCH  24  25
ENDBRANCH   9  24
TORSDOF 8
ENDMDL
MODEL 5
REMARK VINA RESULT:      -6.8      6.981     12.439
REMARK  8 active torsions:
REMARK  status: ('A' for Active; 'I' for Inactive)
REMARK    1  A    between atoms: O_2  and  C_3 
REMARK    2  A    between atoms: C_6  and  C_11 
REMARK    3  A    between atoms: C_8  and  O_9 
REMARK    4  A    between atoms: C_19  and  O_24 
REMARK    5  A    between atoms: C_21  and  O_22 
REMARK    6  A    between atoms: O_24  and  C_25 
REMARK    7  A    between atoms: C_25  and  C_26 
REMARK    8  A    between atoms: C_26  and  O_28 
ROOT
HETATM    1  C   UNK N   1      29.413  16.985   4.247  0.00  0.00     0.090 A 
HETATM    2  C   UNK N   1      29.672  15.872   3.441  0.00  0.00     0.094 A 
HETATM    3  C   UNK N   1      30.912  15.238   3.522  0.00  0.00     0.190 A 
HETATM    4  O   UNK N   1      31.127  14.294   2.786  0.00  0.00    -0.287 OA
HETATM    5  C   UNK N   1      31.906  15.746   4.401  0.00  0.00     0.081 A 
HETATM    6  C   UNK N   1      31.545  16.883   5.177  0.00  0.00     0.095 A 
HETATM    7  O   UNK N   1      30.345  17.428   5.077  0.00  0.00    -0.309 OA
HETATM    8  C   UNK N   1      32.467  17.496   6.010  0.00  0.00     0.075 A 
HETATM    9  C   UNK N   1      33.776  17.029   6.100  0.00  0.00     0.074 A 
HETATM   10  C   UNK N   1      34.152  15.907   5.364  0.00  0.00     0.074 A 
HETATM   11  C   UNK N   1      33.243  15.238   4.529  0.00  0.00     0.087 A 
ENDROOT
BRANCH   1  12
HETATM   12  C   UNK N   1      28.200  17.802   4.075  0.00  0.00     0.001 A 
HETATM   13  C   UNK N   1      27.038  17.193   3.591  0.00  0.00     0.017 A 
HETATM   14  C   UNK N   1      25.833  17.886   3.567  0.00  0.00     0.040 A 
HETATM   15  C   UNK N   1      25.747  19.193   4.051  0.00  0.00     0.101 A 
HETATM   16  C   UNK N   1      26.924  19.832   4.534  0.00  0.00     0.102 A 
HETATM   17  C   UNK N   1      28.141  19.122   4.533  0.00  0.00     0.054 A 
BRANCH  15  18
HETATM   18  O   UNK N   1      24.521  19.779   4.047  0.00  0.00    -0.353 OA
HETATM   19  C   UNK N   1      23.986  20.505   3.010  0.00  0.00     0.210 C 
ENDBRANCH  15  18
BRANCH  16  20
HETATM   20  O   UNK N   1      26.871  21.100   5.010  0.00  0.00    -0.353 OA
HETATM   21  C   UNK N   1      27.176  21.437   6.310  0.00  0.00     0.210 C 
ENDBRANCH  16  20
ENDBRANCH   1  12
BRANCH  11  22
HETATM   22  O   UNK N   1      33.719  14.153   3.867  0.00  0.00    -0.355 OA
HETATM   23  C   UNK N   1      35.046  13.795   3.838  0.00  0.00     0.210 C 
ENDBRANCH  11  22
BRANCH   9  24
HETATM   24  O   UNK N   1      34.687  17.654   6.881  0.00  0.00    -0.341 OA
BRANCH  24  25
HETATM   25  C   UNK N   1      34.352  18.231   8.091  0.00  0.00     0.285 C 
BRANCH  25  26
HETATM   26  C   UNK N   1      34.600  17.283   9.219  0.00  0.00     0.164 C 
HETATM   27  O   UNK N   1      33.942  16.259   9.301  0.00  0.00    -0.648 OA
BRANCH  26  28
HETATM   28  O   UNK N   1      35.548  17.546  10.140  0.00  0.00    -0.775 OA
HETATM   29  H   UNK N   1      36.143  16.987  10.599  0.00  0.00     0.167 HD
ENDBRANCH  26  28
ENDBRANCH  25  26
ENDBRANCH  24  25
ENDBRANCH   9  24
TORSDOF 8
ENDMDL
MODEL 6
REMARK VINA RESULT:      -6.6     10.975     15.102
REMARK  8 active torsions:
REMARK  status: ('A' for Active; 'I' for Inactive)
REMARK    1  A    between atoms: O_2  and  C_3 
REMARK    2  A    between atoms: C_6  and  C_11 
REMARK    3  A    between atoms: C_8  and  O_9 
REMARK    4  A    between atoms: C_19  and  O_24 
REMARK    5  A    between atoms: C_21  and  O_22 
REMARK    6  A    between atoms: O_24  and  C_25 
REMARK    7  A    between atoms: C_25  and  C_26 
REMARK    8  A    between atoms: C_26  and  O_28 
ROOT
HETATM    1  C   UNK N   1      25.985  16.729   5.599  0.00  0.00     0.090 A 
HETATM    2  C   UNK N   1      25.110  15.769   6.117  0.00  0.00     0.094 A 
HETATM    3  C   UNK N   1      23.745  15.862   5.842  0.00  0.00     0.190 A 
HETATM    4  O   UNK N   1      23.000  15.036   6.333  0.00  0.00    -0.287 OA
HETATM    5  C   UNK N   1      23.257  16.946   5.064  0.00  0.00     0.081 A 
HETATM    6  C   UNK N   1      24.226  17.870   4.585  0.00  0.00     0.095 A 
HETATM    7  O   UNK N   1      25.511  17.718   4.856  0.00  0.00    -0.309 OA
HETATM    8  C   UNK N   1      23.844  18.999   3.879  0.00  0.00     0.075 A 
HETATM    9  C   UNK N   1      22.500  19.270   3.632  0.00  0.00     0.074 A 
HETATM   10  C   UNK N   1      21.530  18.373   4.075  0.00  0.00     0.074 A 
HETATM   11  C   UNK N   1      21.875  17.203   4.770  0.00  0.00     0.087 A 
ENDROOT
BRANCH   1  12
HETATM   12  C   UNK N   1      27.400  16.788   6.003  0.00  0.00     0.001 A 
HETATM   13  C   UNK N   1      28.357  16.157   5.203  0.00  0.00     0.017 A 
HETATM   14  C   UNK N   1      29.714  16.324   5.458  0.00  0.00     0.040 A 
HETATM   15  C   UNK N   1      30.152  17.148   6.497  0.00  0.00     0.101 A 
HETATM   16  C   UNK N   1      29.190  17.786   7.329  0.00  0.00     0.102 A 
HETATM   17  C   UNK N   1      27.819  17.589   7.069  0.00  0.00     0.054 A 
BRANCH  15  18
HETATM   18  O   UNK N   1      31.494  17.305   6.642  0.00  0.00    -0.353 OA
HETATM   19  C   UNK N   1      32.422  17.226   5.631  0.00  0.00     0.210 C 
ENDBRANCH  15  18
BRANCH  16  20
HETATM   20  O   UNK N   1      29.585  18.590   8.346  0.00  0.00    -0.353 OA
HETATM   21  C   UNK N   1      29.381  18.292   9.675  0.00  0.00     0.210 C 
ENDBRANCH  16  20
ENDBRANCH   1  12
BRANCH  11  22
HETATM   22  O   UNK N   1      20.848  16.400   5.146  0.00  0.00    -0.355 OA
HETATM   23  C   UNK N   1      20.088  15.667   4.266  0.00  0.00     0.210 C 
ENDBRANCH  11  22
BRANCH   9  24
HETATM   24  O   UNK N   1      22.124  20.395   2.979  0.00  0.00    -0.341 OA
BRANCH  24  25
HETATM   25  C   UNK N   1      20.826  20.605   2.556  0.00  0.00     0.285 C 
BRANCH  25  26
HETATM   26  C   UNK N   1      20.795  21.047   1.130  0.00  0.00     0.164 C 
HETATM   27  O   UNK N   1      20.997  20.235   0.243  0.00  0.00    -0.648 OA
BRANCH  26  28
HETATM   28  O   UNK N   1      20.538  22.332   0.816  0.00  0.00    -0.775 OA
HETATM   29  H   UNK N   1      19.750  22.837   0.853  0.00  0.00     0.167 HD
ENDBRANCH  26  28
ENDBRANCH  25  26
ENDBRANCH  24  25
ENDBRANCH   9  24
TORSDOF 8
ENDMDL
MODEL 7
REMARK VINA RESULT:      -6.4      3.448      6.471
REMARK  8 active torsions:
REMARK  status: ('A' for Active; 'I' for Inactive)
REMARK    1  A    between atoms: O_2  and  C_3 
REMARK    2  A    between atoms: C_6  and  C_11 
REMARK    3  A    between atoms: C_8  and  O_9 
REMARK    4  A    between atoms: C_19  and  O_24 
REMARK    5  A    between atoms: C_21  and  O_22 
REMARK    6  A    between atoms: O_24  and  C_25 
REMARK    7  A    between atoms: C_25  and  C_26 
REMARK    8  A    between atoms: C_26  and  O_28 
ROOT
HETATM    1  C   UNK N   1      35.003  14.879   9.315  0.00  0.00     0.090 A 
HETATM    2  C   UNK N   1      35.648  14.803   8.076  0.00  0.00     0.094 A 
HETATM    3  C   UNK N   1      35.080  15.427   6.965  0.00  0.00     0.190 A 
HETATM    4  O   UNK N   1      35.640  15.317   5.892  0.00  0.00    -0.287 OA
HETATM    5  C   UNK N   1      33.840  16.108   7.099  0.00  0.00     0.081 A 
HETATM    6  C   UNK N   1      33.263  16.128   8.399  0.00  0.00     0.095 A 
HETATM    7  O   UNK N   1      33.860  15.539   9.422  0.00  0.00    -0.309 OA
HETATM    8  C   UNK N   1      32.022  16.703   8.618  0.00  0.00     0.075 A 
HETATM    9  C   UNK N   1      31.297  17.265   7.570  0.00  0.00     0.074 A 
HETATM   10  C   UNK N   1      31.845  17.274   6.289  0.00  0.00     0.074 A 
HETATM   11  C   UNK N   1      33.111  16.727   6.028  0.00  0.00     0.087 A 
ENDROOT
BRANCH   1  12
HETATM   12  C   UNK N   1      35.455  14.092  10.475  0.00  0.00     0.001 A 
HETATM   13  C   UNK N   1      35.274  14.615  11.758  0.00  0.00     0.017 A 
HETATM   14  C   UNK N   1      35.536  13.840  12.883  0.00  0.00     0.040 A 
HETATM   15  C   UNK N   1      35.956  12.514  12.757  0.00  0.00     0.101 A 
HETATM   16  C   UNK N   1      36.159  11.971  11.457  0.00  0.00     0.102 A 
HETATM   17  C   UNK N   1      35.908  12.777  10.329  0.00  0.00     0.054 A 
BRANCH  15  18
HETATM   18  O   UNK N   1      36.133  11.807  13.904  0.00  0.00    -0.353 OA
HETATM   19  C   UNK N   1      37.276  11.798  14.669  0.00  0.00     0.210 C 
ENDBRANCH  15  18
BRANCH  16  20
HETATM   20  O   UNK N   1      36.567  10.688  11.304  0.00  0.00    -0.353 OA
HETATM   21  C   UNK N   1      37.882  10.326  11.115  0.00  0.00     0.210 C 
ENDBRANCH  16  20
ENDBRANCH   1  12
BRANCH  11  22
HETATM   22  O   UNK N   1      33.546  16.800   4.744  0.00  0.00    -0.355 OA
HETATM   23  C   UNK N   1      32.749  17.165   3.685  0.00  0.00     0.210 C 
ENDBRANCH  11  22
BRANCH   9  24
HETATM   24  O   UNK N   1      30.066  17.789   7.777  0.00  0.00    -0.341 OA
BRANCH  24  25
HETATM   25  C   UNK N   1      29.623  18.164   9.030  0.00  0.00     0.285 C 
BRANCH  25  26
HETATM   26  C   UNK N   1      28.135  18.068   9.119  0.00  0.00     0.164 C 
HETATM   27  O   UNK N   1      27.623  17.074   9.606  0.00  0.00    -0.648 OA
BRANCH  26  28
HETATM   28  O   UNK N   1      27.356  19.073   8.674  0.00  0.00    -0.775 OA
HETATM   29  H   UNK N   1      26.434  19.227   8.748  0.00  0.00     0.167 HD
ENDBRANCH  26  28
ENDBRANCH  25  26
ENDBRANCH  24  25
ENDBRANCH   9  24
TORSDOF 8
ENDMDL
MODEL 8
REMARK VINA RESULT:      -6.4      7.263     11.684
REMARK  8 active torsions:
REMARK  status: ('A' for Active; 'I' for Inactive)
REMARK    1  A    between atoms: O_2  and  C_3 
REMARK    2  A    between atoms: C_6  and  C_11 
REMARK    3  A    between atoms: C_8  and  O_9 
REMARK    4  A    between atoms: C_19  and  O_24 
REMARK    5  A    between atoms: C_21  and  O_22 
REMARK    6  A    between atoms: O_24  and  C_25 
REMARK    7  A    between atoms: C_25  and  C_26 
REMARK    8  A    between atoms: C_26  and  O_28 
ROOT
HETATM    1  C   UNK N   1      30.922  16.531   5.605  0.00  0.00     0.090 A 
HETATM    2  C   UNK N   1      30.392  15.285   5.255  0.00  0.00     0.094 A 
HETATM    3  C   UNK N   1      29.145  15.218   4.632  0.00  0.00     0.190 A 
HETATM    4  O   UNK N   1      28.689  14.122   4.370  0.00  0.00    -0.287 OA
HETATM    5  C   UNK N   1      28.417  16.413   4.388  0.00  0.00     0.081 A 
HETATM    6  C   UNK N   1      29.041  17.629   4.783  0.00  0.00     0.095 A 
HETATM    7  O   UNK N   1      30.237  17.633   5.347  0.00  0.00    -0.309 OA
HETATM    8  C   UNK N   1      28.382  18.841   4.654  0.00  0.00     0.075 A 
HETATM    9  C   UNK N   1      27.086  18.903   4.149  0.00  0.00     0.074 A 
HETATM   10  C   UNK N   1      26.457  17.729   3.739  0.00  0.00     0.074 A 
HETATM   11  C   UNK N   1      27.097  16.484   3.826  0.00  0.00     0.087 A 
ENDROOT
BRANCH   1  12
HETATM   12  C   UNK N   1      32.141  16.653   6.424  0.00  0.00     0.001 A 
HETATM   13  C   UNK N   1      32.032  17.140   7.729  0.00  0.00     0.017 A 
HETATM   14  C   UNK N   1      33.126  17.119   8.587  0.00  0.00     0.040 A 
HETATM   15  C   UNK N   1      34.349  16.584   8.176  0.00  0.00     0.101 A 
HETATM   16  C   UNK N   1      34.480  16.096   6.845  0.00  0.00     0.102 A 
HETATM   17  C   UNK N   1      33.367  16.144   5.983  0.00  0.00     0.054 A 
BRANCH  15  18
HETATM   18  O   UNK N   1      35.351  16.546   9.093  0.00  0.00    -0.353 OA
HETATM   19  C   UNK N   1      35.206  16.761  10.443  0.00  0.00     0.210 C 
ENDBRANCH  15  18
BRANCH  16  20
HETATM   20  O   UNK N   1      35.655  15.572   6.418  0.00  0.00    -0.353 OA
HETATM   21  C   UNK N   1      35.740  14.485   5.576  0.00  0.00     0.210 C 
ENDBRANCH  16  20
ENDBRANCH   1  12
BRANCH  11  22
HETATM   22  O   UNK N   1      26.390  15.410   3.390  0.00  0.00    -0.355 OA
HETATM   23  C   UNK N   1      25.936  15.265   2.100  0.00  0.00     0.210 C 
ENDBRANCH  11  22
BRANCH   9  24
HETATM   24  O   UNK N   1      26.427  20.083   4.062  0.00  0.00    -0.341 OA
BRANCH  24  25
HETATM   25  C   UNK N   1      25.056  20.175   4.197  0.00  0.00     0.285 C 
BRANCH  25  26
HETATM   26  C   UNK N   1      24.432  20.702   2.946  0.00  0.00     0.164 C 
HETATM   27  O   UNK N   1      23.283  21.110   2.972  0.00  0.00    -0.648 OA
BRANCH  26  28
HETATM   28  O   UNK N   1      25.130  20.738   1.795  0.00  0.00    -0.775 OA
HETATM   29  H   UNK N   1      24.861  20.671   0.899  0.00  0.00     0.167 HD
ENDBRANCH  26  28
ENDBRANCH  25  26
ENDBRANCH  24  25
ENDBRANCH   9  24
TORSDOF 8
ENDMDL
MODEL 9
REMARK VINA RESULT:      -6.2      5.348     10.010
REMARK  8 active torsions:
REMARK  status: ('A' for Active; 'I' for Inactive)
REMARK    1  A    between atoms: O_2  and  C_3 
REMARK    2  A    between atoms: C_6  and  C_11 
REMARK    3  A    between atoms: C_8  and  O_9 
REMARK    4  A    between atoms: C_19  and  O_24 
REMARK    5  A    between atoms: C_21  and  O_22 
REMARK    6  A    between atoms: O_24  and  C_25 
REMARK    7  A    between atoms: C_25  and  C_26 
REMARK    8  A    between atoms: C_26  and  O_28 
ROOT
HETATM    1  C   UNK N   1      32.128  16.696   8.307  0.00  0.00     0.090 A 
HETATM    2  C   UNK N   1      33.206  17.470   8.750  0.00  0.00     0.094 A 
HETATM    3  C   UNK N   1      34.383  16.840   9.157  0.00  0.00     0.190 A 
HETATM    4  O   UNK N   1      35.294  17.531   9.571  0.00  0.00    -0.287 OA
HETATM    5  C   UNK N   1      34.462  15.421   9.145  0.00  0.00     0.081 A 
HETATM    6  C   UNK N   1      33.312  14.725   8.680  0.00  0.00     0.095 A 
HETATM    7  O   UNK N   1      32.232  15.376   8.282  0.00  0.00    -0.309 OA
HETATM    8  C   UNK N   1      33.263  13.341   8.698  0.00  0.00     0.075 A 
HETATM    9  C   UNK N   1      34.331  12.591   9.186  0.00  0.00     0.074 A 
HETATM   10  C   UNK N   1      35.477  13.247   9.632  0.00  0.00     0.074 A 
HETATM   11  C   UNK N   1      35.580  14.646   9.606  0.00  0.00     0.087 A 
ENDROOT
BRANCH   1  12
HETATM   12  C   UNK N   1      30.806  17.289   8.041  0.00  0.00     0.001 A 
HETATM   13  C   UNK N   1      30.299  18.238   8.933  0.00  0.00     0.017 A 
HETATM   14  C   UNK N   1      29.135  18.938   8.636  0.00  0.00     0.040 A 
HETATM   15  C   UNK N   1      28.463  18.732   7.429  0.00  0.00     0.101 A 
HETATM   16  C   UNK N   1      28.959  17.759   6.516  0.00  0.00     0.102 A 
HETATM   17  C   UNK N   1      30.128  17.045   6.842  0.00  0.00     0.054 A 
BRANCH  15  18
HETATM   18  O   UNK N   1      27.367  19.499   7.189  0.00  0.00    -0.353 OA
HETATM   19  C   UNK N   1      27.365  20.708   6.535  0.00  0.00     0.210 C 
ENDBRANCH  15  18
BRANCH  16  20
HETATM   20  O   UNK N   1      28.327  17.538   5.338  0.00  0.00    -0.353 OA
HETATM   21  C   UNK N   1      28.988  17.247   4.165  0.00  0.00     0.210 C 
ENDBRANCH  16  20
ENDBRANCH   1  12
BRANCH  11  22
HETATM   22  O   UNK N   1      36.745  15.173  10.058  0.00  0.00    -0.355 OA
HETATM   23  C   UNK N   1      37.957  14.528   9.984  0.00  0.00     0.210 C 
ENDBRANCH  11  22
BRANCH   9  24
HETATM   24  O   UNK N   1      34.266  11.241   9.242  0.00  0.00    -0.341 OA
BRANCH  24  25
HETATM   25  C   UNK N   1      33.766  10.570  10.341  0.00  0.00     0.285 C 
BRANCH  25  26
HETATM   26  C   UNK N   1      32.645   9.665   9.948  0.00  0.00     0.164 C 
HETATM   27  O   UNK N   1      31.734  10.097   9.263  0.00  0.00    -0.648 OA
BRANCH  26  28
HETATM   28  O   UNK N   1      32.638   8.374  10.335  0.00  0.00    -0.775 OA
HETATM   29  H   UNK N   1      32.575   7.576   9.847  0.00  0.00     0.167 HD
ENDBRANCH  26  28
ENDBRANCH  25  26
ENDBRANCH  24  25
ENDBRANCH   9  24
TORSDOF 8
ENDMDL
