MODEL 1
REMARK VINA RESULT:      -6.4      0.000      0.000
REMARK  1 active torsions:
REMARK  status: ('A' for Active; 'I' for Inactive)
REMARK    1  A    between atoms: C_17  and  C_14 
ROOT
HETATM    1  C   UNK N   1      33.577  16.611   6.601  0.00  0.00     0.310 C 
HETATM    2  C   UNK N   1      29.473  17.894   9.659  0.00  0.00     0.001 A 
HETATM    3  C   UNK N   1      28.484  18.608   8.988  0.00  0.00     0.001 A 
HETATM    4  C   UNK N   1      30.371  17.107   8.940  0.00  0.00     0.009 A 
HETATM    5  C   UNK N   1      28.393  18.534   7.597  0.00  0.00     0.011 A 
HETATM    6  C   UNK N   1      32.210  16.641   4.706  0.00  0.00     0.298 C 
HETATM    7  C   UNK N   1      30.895  17.069   4.060  0.00  0.00     0.199 C 
HETATM    8  C   UNK N   1      31.292  16.158   6.844  0.00  0.00     0.311 C 
HETATM    9  C   UNK N   1      30.295  17.029   7.543  0.00  0.00    -0.021 A 
HETATM   10  C   UNK N   1      29.285  17.750   6.849  0.00  0.00    -0.017 A 
HETATM   11  C   UNK N   1      29.172  17.665   5.322  0.00  0.00     0.188 C 
HETATM   12  N   UNK N   1      32.257  16.978   6.124  0.00  0.00     0.090 N 
HETATM   13  O   UNK N   1      30.337  18.167   4.728  0.00  0.00    -0.375 OA
ENDROOT
BRANCH  11  14
HETATM   14  C   UNK N   1      27.956  18.234   4.599  0.00  0.00    -0.025 A 
HETATM   15  C   UNK N   1      27.804  19.599   4.307  0.00  0.00     0.010 A 
HETATM   16  C   UNK N   1      26.667  20.068   3.645  0.00  0.00     0.001 A 
HETATM   17  C   UNK N   1      25.666  19.175   3.261  0.00  0.00     0.000 A 
HETATM   18  C   UNK N   1      25.799  17.815   3.548  0.00  0.00     0.001 A 
HETATM   19  C   UNK N   1      26.935  17.349   4.218  0.00  0.00     0.010 A 
ENDBRANCH  11  14
TORSDOF 1
ENDMDL
MODEL 2
REMARK VINA RESULT:      -6.3      1.270      3.603
REMARK  1 active torsions:
REMARK  status: ('A' for Active; 'I' for Inactive)
REMARK    1  A    between atoms: C_17  and  C_14 
ROOT
HETATM    1  C   UNK N   1      32.505  15.754   8.816  0.00  0.00     0.310 C 
HETATM    2  C   UNK N   1      33.154  16.519   3.636  0.00  0.00     0.001 A 
HETATM    3  C   UNK N   1      31.956  16.691   2.947  0.00  0.00     0.001 A 
HETATM    4  C   UNK N   1      33.207  16.755   5.009  0.00  0.00     0.009 A 
HETATM    5  C   UNK N   1      30.812  17.102   3.632  0.00  0.00     0.011 A 
HETATM    6  C   UNK N   1      30.496  16.945   8.770  0.00  0.00     0.298 C 
HETATM    7  C   UNK N   1      29.350  17.528   7.945  0.00  0.00     0.199 C 
HETATM    8  C   UNK N   1      32.203  17.403   7.180  0.00  0.00     0.311 C 
HETATM    9  C   UNK N   1      32.064  17.163   5.709  0.00  0.00    -0.021 A 
HETATM   10  C   UNK N   1      30.837  17.347   5.014  0.00  0.00    -0.017 A 
HETATM   11  C   UNK N   1      29.578  17.809   5.758  0.00  0.00     0.188 C 
HETATM   12  N   UNK N   1      31.526  16.350   7.927  0.00  0.00     0.090 N 
HETATM   13  O   UNK N   1      29.217  16.858   6.722  0.00  0.00    -0.375 OA
ENDROOT
BRANCH  11  14
HETATM   14  C   UNK N   1      28.334  18.239   4.987  0.00  0.00    -0.025 A 
HETATM   15  C   UNK N   1      27.350  17.339   4.549  0.00  0.00     0.010 A 
HETATM   16  C   UNK N   1      26.231  17.786   3.844  0.00  0.00     0.001 A 
HETATM   17  C   UNK N   1      26.078  19.146   3.571  0.00  0.00     0.000 A 
HETATM   18  C   UNK N   1      27.049  20.055   3.995  0.00  0.00     0.001 A 
HETATM   19  C   UNK N   1      28.172  19.603   4.694  0.00  0.00     0.010 A 
ENDBRANCH  11  14
TORSDOF 1
ENDMDL
MODEL 3
REMARK VINA RESULT:      -6.3      2.388      6.692
REMARK  1 active torsions:
REMARK  status: ('A' for Active; 'I' for Inactive)
REMARK    1  A    between atoms: C_17  and  C_14 
ROOT
HETATM    1  C   UNK N   1      27.745  18.976   6.402  0.00  0.00     0.310 C 
HETATM    2  C   UNK N   1      31.962  17.403   3.647  0.00  0.00     0.001 A 
HETATM    3  C   UNK N   1      33.104  17.243   4.426  0.00  0.00     0.001 A 
HETATM    4  C   UNK N   1      30.702  17.366   4.243  0.00  0.00     0.009 A 
HETATM    5  C   UNK N   1      32.986  17.044   5.802  0.00  0.00     0.011 A 
HETATM    6  C   UNK N   1      28.601  17.982   8.335  0.00  0.00     0.298 C 
HETATM    7  C   UNK N   1      29.804  17.393   9.069  0.00  0.00     0.199 C 
HETATM    8  C   UNK N   1      29.184  17.140   6.189  0.00  0.00     0.311 C 
HETATM    9  C   UNK N   1      30.570  17.174   5.625  0.00  0.00    -0.021 A 
HETATM   10  C   UNK N   1      31.731  17.003   6.429  0.00  0.00    -0.017 A 
HETATM   11  C   UNK N   1      31.609  16.774   7.941  0.00  0.00     0.188 C 
HETATM   12  N   UNK N   1      28.927  18.349   6.962  0.00  0.00     0.090 N 
HETATM   13  O   UNK N   1      31.006  17.885   8.545  0.00  0.00    -0.375 OA
ENDROOT
BRANCH  11  14
HETATM   14  C   UNK N   1      32.822  16.352   8.763  0.00  0.00    -0.025 A 
HETATM   15  C   UNK N   1      33.872  17.225   9.089  0.00  0.00     0.010 A 
HETATM   16  C   UNK N   1      34.962  16.786   9.844  0.00  0.00     0.001 A 
HETATM   17  C   UNK N   1      35.015  15.463  10.286  0.00  0.00     0.000 A 
HETATM   18  C   UNK N   1      33.981  14.580   9.967  0.00  0.00     0.001 A 
HETATM   19  C   UNK N   1      32.895  15.021   9.205  0.00  0.00     0.010 A 
ENDBRANCH  11  14
TORSDOF 1
ENDMDL
MODEL 4
REMARK VINA RESULT:      -6.2     11.160     13.443
REMARK  1 active torsions:
REMARK  status: ('A' for Active; 'I' for Inactive)
REMARK    1  A    between atoms: C_17  and  C_14 
ROOT
HETATM    1  C   UNK N   1      30.625  21.083  -4.154  0.00  0.00     0.310 C 
HETATM    2  C   UNK N   1      26.730  22.028  -7.586  0.00  0.00     0.001 A 
HETATM    3  C   UNK N   1      25.916  23.097  -7.220  0.00  0.00     0.001 A 
HETATM    4  C   UNK N   1      28.021  21.928  -7.069  0.00  0.00     0.009 A 
HETATM    5  C   UNK N   1      26.395  24.067  -6.338  0.00  0.00     0.011 A 
HETATM    6  C   UNK N   1      30.617  23.322  -3.485  0.00  0.00     0.298 C 
HETATM    7  C   UNK N   1      29.888  24.664  -3.447  0.00  0.00     0.199 C 
HETATM    8  C   UNK N   1      29.910  22.718  -5.672  0.00  0.00     0.311 C 
HETATM    9  C   UNK N   1      28.511  22.892  -6.178  0.00  0.00    -0.021 A 
HETATM   10  C   UNK N   1      27.690  23.991  -5.802  0.00  0.00    -0.017 A 
HETATM   11  C   UNK N   1      28.213  25.066  -4.842  0.00  0.00     0.188 C 
HETATM   12  N   UNK N   1      29.890  22.330  -4.267  0.00  0.00     0.090 N 
HETATM   13  O   UNK N   1      28.506  24.493  -3.597  0.00  0.00    -0.375 OA
ENDROOT
BRANCH  11  14
HETATM   14  C   UNK N   1      27.436  26.360  -4.627  0.00  0.00    -0.025 A 
HETATM   15  C   UNK N   1      27.579  27.489  -5.449  0.00  0.00     0.010 A 
HETATM   16  C   UNK N   1      26.843  28.651  -5.206  0.00  0.00     0.001 A 
HETATM   17  C   UNK N   1      25.950  28.699  -4.135  0.00  0.00     0.000 A 
HETATM   18  C   UNK N   1      25.799  27.587  -3.305  0.00  0.00     0.001 A 
HETATM   19  C   UNK N   1      26.542  26.427  -3.547  0.00  0.00     0.010 A 
ENDBRANCH  11  14
TORSDOF 1
ENDMDL
MODEL 5
REMARK VINA RESULT:      -6.1      9.588     12.705
REMARK  1 active torsions:
REMARK  status: ('A' for Active; 'I' for Inactive)
REMARK    1  A    between atoms: C_17  and  C_14 
ROOT
HETATM    1  C   UNK N   1      36.914   9.399  11.237  0.00  0.00     0.310 C 
HETATM    2  C   UNK N   1      35.915  14.511  10.398  0.00  0.00     0.001 A 
HETATM    3  C   UNK N   1      35.488  15.187  11.538  0.00  0.00     0.001 A 
HETATM    4  C   UNK N   1      36.634  13.323  10.522  0.00  0.00     0.009 A 
HETATM    5  C   UNK N   1      35.782  14.674  12.802  0.00  0.00     0.011 A 
HETATM    6  C   UNK N   1      37.399   9.833  13.481  0.00  0.00     0.298 C 
HETATM    7  C   UNK N   1      37.302  10.786  14.670  0.00  0.00     0.199 C 
HETATM    8  C   UNK N   1      37.711  11.518  11.835  0.00  0.00     0.311 C 
HETATM    9  C   UNK N   1      36.930  12.795  11.785  0.00  0.00    -0.021 A 
HETATM   10  C   UNK N   1      36.503  13.480  12.956  0.00  0.00    -0.017 A 
HETATM   11  C   UNK N   1      36.831  12.929  14.349  0.00  0.00     0.188 C 
HETATM   12  N   UNK N   1      36.853  10.422  12.264  0.00  0.00     0.090 N 
HETATM   13  O   UNK N   1      36.230  11.674  14.520  0.00  0.00    -0.375 OA
ENDROOT
BRANCH  11  14
HETATM   14  C   UNK N   1      36.591  13.773  15.596  0.00  0.00    -0.025 A 
HETATM   15  C   UNK N   1      37.284  14.964  15.864  0.00  0.00     0.010 A 
HETATM   16  C   UNK N   1      37.027  15.699  17.023  0.00  0.00     0.001 A 
HETATM   17  C   UNK N   1      36.067  15.252  17.932  0.00  0.00     0.000 A 
HETATM   18  C   UNK N   1      35.371  14.067  17.683  0.00  0.00     0.001 A 
HETATM   19  C   UNK N   1      35.636  13.330  16.525  0.00  0.00     0.010 A 
ENDBRANCH  11  14
TORSDOF 1
ENDMDL
MODEL 6
REMARK VINA RESULT:      -6.1     10.939     13.512
REMARK  1 active torsions:
REMARK  status: ('A' for Active; 'I' for Inactive)
REMARK    1  A    between atoms: C_17  and  C_14 
ROOT
HETATM    1  C   UNK N   1      37.452   8.202  17.921  0.00  0.00     0.310 C 
HETATM    2  C   UNK N   1      35.107  12.706  19.356  0.00  0.00     0.001 A 
HETATM    3  C   UNK N   1      35.220  13.717  18.406  0.00  0.00     0.001 A 
HETATM    4  C   UNK N   1      35.255  11.373  18.975  0.00  0.00     0.009 A 
HETATM    5  C   UNK N   1      35.479  13.394  17.073  0.00  0.00     0.011 A 
HETATM    6  C   UNK N   1      37.149   8.730  15.665  0.00  0.00     0.298 C 
HETATM    7  C   UNK N   1      36.843   9.790  14.609  0.00  0.00     0.199 C 
HETATM    8  C   UNK N   1      35.660   9.582  17.310  0.00  0.00     0.311 C 
HETATM    9  C   UNK N   1      35.521  11.036  17.642  0.00  0.00    -0.021 A 
HETATM   10  C   UNK N   1      35.633  12.060  16.662  0.00  0.00    -0.017 A 
HETATM   11  C   UNK N   1      35.907  11.713  15.193  0.00  0.00     0.188 C 
HETATM   12  N   UNK N   1      37.053   9.265  17.018  0.00  0.00     0.090 N 
HETATM   13  O   UNK N   1      37.149  11.074  15.078  0.00  0.00    -0.375 OA
ENDROOT
BRANCH  11  14
HETATM   14  C   UNK N   1      35.788  12.777  14.107  0.00  0.00    -0.025 A 
HETATM   15  C   UNK N   1      36.441  14.017  14.170  0.00  0.00     0.010 A 
HETATM   16  C   UNK N   1      36.295  14.958  13.148  0.00  0.00     0.001 A 
HETATM   17  C   UNK N   1      35.493  14.667  12.044  0.00  0.00     0.000 A 
HETATM   18  C   UNK N   1      34.832  13.440  11.968  0.00  0.00     0.001 A 
HETATM   19  C   UNK N   1      34.974  12.503  12.996  0.00  0.00     0.010 A 
ENDBRANCH  11  14
TORSDOF 1
ENDMDL
MODEL 7
REMARK VINA RESULT:      -6.1     10.642     13.320
REMARK  1 active torsions:
REMARK  status: ('A' for Active; 'I' for Inactive)
REMARK    1  A    between atoms: C_17  and  C_14 
ROOT
HETATM    1  C   UNK N   1      36.014  10.248  10.671  0.00  0.00     0.310 C 
HETATM    2  C   UNK N   1      36.285   8.366  15.594  0.00  0.00     0.001 A 
HETATM    3  C   UNK N   1      36.706   9.312  16.526  0.00  0.00     0.001 A 
HETATM    4  C   UNK N   1      35.736   8.782  14.382  0.00  0.00     0.009 A 
HETATM    5  C   UNK N   1      36.575  10.672  16.245  0.00  0.00     0.011 A 
HETATM    6  C   UNK N   1      35.646  12.407  11.486  0.00  0.00     0.298 C 
HETATM    7  C   UNK N   1      35.708  13.379  12.662  0.00  0.00     0.199 C 
HETATM    8  C   UNK N   1      34.999  10.511  12.766  0.00  0.00     0.311 C 
HETATM    9  C   UNK N   1      35.605  10.145  14.086  0.00  0.00    -0.021 A 
HETATM   10  C   UNK N   1      36.026  11.119  15.033  0.00  0.00    -0.017 A 
HETATM   11  C   UNK N   1      35.876  12.616  14.737  0.00  0.00     0.188 C 
HETATM   12  N   UNK N   1      36.020  11.053  11.878  0.00  0.00     0.090 N 
HETATM   13  O   UNK N   1      36.644  12.960  13.616  0.00  0.00    -0.375 OA
ENDROOT
BRANCH  11  14
HETATM   14  C   UNK N   1      36.098  13.651  15.834  0.00  0.00    -0.025 A 
HETATM   15  C   UNK N   1      37.065  14.666  15.750  0.00  0.00     0.010 A 
HETATM   16  C   UNK N   1      37.228  15.588  16.786  0.00  0.00     0.001 A 
HETATM   17  C   UNK N   1      36.422  15.509  17.922  0.00  0.00     0.000 A 
HETATM   18  C   UNK N   1      35.458  14.503  18.024  0.00  0.00     0.001 A 
HETATM   19  C   UNK N   1      35.302  13.577  16.988  0.00  0.00     0.010 A 
ENDBRANCH  11  14
TORSDOF 1
ENDMDL
MODEL 8
REMARK VINA RESULT:      -6.0      2.295      5.585
REMARK  1 active torsions:
REMARK  status: ('A' for Active; 'I' for Inactive)
REMARK    1  A    between atoms: C_17  and  C_14 
ROOT
HETATM    1  C   UNK N   1      25.091  14.732   4.165  0.00  0.00     0.310 C 
HETATM    2  C   UNK N   1      26.495  19.814   3.951  0.00  0.00     0.001 A 
HETATM    3  C   UNK N   1      27.664  20.096   4.653  0.00  0.00     0.001 A 
HETATM    4  C   UNK N   1      26.234  18.511   3.529  0.00  0.00     0.009 A 
HETATM    5  C   UNK N   1      28.573  19.074   4.931  0.00  0.00     0.011 A 
HETATM    6  C   UNK N   1      27.319  14.100   4.476  0.00  0.00     0.298 C 
HETATM    7  C   UNK N   1      28.744  14.504   4.848  0.00  0.00     0.199 C 
HETATM    8  C   UNK N   1      26.788  16.105   3.314  0.00  0.00     0.311 C 
HETATM    9  C   UNK N   1      27.136  17.475   3.807  0.00  0.00    -0.021 A 
HETATM   10  C   UNK N   1      28.336  17.753   4.518  0.00  0.00    -0.017 A 
HETATM   11  C   UNK N   1      29.345  16.638   4.818  0.00  0.00     0.188 C 
HETATM   12  N   UNK N   1      26.421  15.248   4.434  0.00  0.00     0.090 N 
HETATM   13  O   UNK N   1      28.752  15.664   5.633  0.00  0.00    -0.375 OA
ENDROOT
BRANCH  11  14
HETATM   14  C   UNK N   1      30.731  16.969   5.360  0.00  0.00    -0.025 A 
HETATM   15  C   UNK N   1      31.019  17.062   6.731  0.00  0.00     0.010 A 
HETATM   16  C   UNK N   1      32.307  17.372   7.174  0.00  0.00     0.001 A 
HETATM   17  C   UNK N   1      33.328  17.589   6.248  0.00  0.00     0.000 A 
HETATM   18  C   UNK N   1      33.058  17.504   4.881  0.00  0.00     0.001 A 
HETATM   19  C   UNK N   1      31.766  17.202   4.440  0.00  0.00     0.010 A 
ENDBRANCH  11  14
TORSDOF 1
ENDMDL
MODEL 9
REMARK VINA RESULT:      -5.9      2.435      4.555
REMARK  1 active torsions:
REMARK  status: ('A' for Active; 'I' for Inactive)
REMARK    1  A    between atoms: C_17  and  C_14 
ROOT
HETATM    1  C   UNK N   1      29.034  13.416   1.518  0.00  0.00     0.310 C 
HETATM    2  C   UNK N   1      32.951  16.292   3.574  0.00  0.00     0.001 A 
HETATM    3  C   UNK N   1      32.540  17.542   4.031  0.00  0.00     0.001 A 
HETATM    4  C   UNK N   1      32.021  15.264   3.431  0.00  0.00     0.009 A 
HETATM    5  C   UNK N   1      31.198  17.761   4.346  0.00  0.00     0.011 A 
HETATM    6  C   UNK N   1      27.475  14.532   2.854  0.00  0.00     0.298 C 
HETATM    7  C   UNK N   1      27.144  15.734   3.736  0.00  0.00     0.199 C 
HETATM    8  C   UNK N   1      29.733  14.318   3.564  0.00  0.00     0.311 C 
HETATM    9  C   UNK N   1      30.670  15.474   3.738  0.00  0.00    -0.021 A 
HETATM   10  C   UNK N   1      30.240  16.744   4.210  0.00  0.00    -0.017 A 
HETATM   11  C   UNK N   1      28.770  16.991   4.568  0.00  0.00     0.188 C 
HETATM   12  N   UNK N   1      28.865  14.544   2.415  0.00  0.00     0.090 N 
HETATM   13  O   UNK N   1      27.967  16.826   3.431  0.00  0.00    -0.375 OA
ENDROOT
BRANCH  11  14
HETATM   14  C   UNK N   1      28.350  18.262   5.298  0.00  0.00    -0.025 A 
HETATM   15  C   UNK N   1      28.381  18.394   6.695  0.00  0.00     0.010 A 
HETATM   16  C   UNK N   1      27.983  19.581   7.313  0.00  0.00     0.001 A 
HETATM   17  C   UNK N   1      27.549  20.658   6.538  0.00  0.00     0.000 A 
HETATM   18  C   UNK N   1      27.507  20.542   5.147  0.00  0.00     0.001 A 
HETATM   19  C   UNK N   1      27.900  19.350   4.532  0.00  0.00     0.010 A 
ENDBRANCH  11  14
TORSDOF 1
ENDMDL
