MODEL 1
REMARK VINA RESULT:      -5.7      0.000      0.000
REMARK  3 active torsions:
REMARK  status: ('A' for Active; 'I' for Inactive)
REMARK    1  A    between atoms: C_2  and  C_3 
REMARK    2  A    between atoms: C_3  and  C_4 
REMARK    3  A    between atoms: C_3  and  N_6 
ROOT
HETATM    1  N   UNK N   1      21.254  18.625   3.541  0.00  0.00    -0.277 N 
HETATM    2  C   UNK N   1      20.904  17.671   2.663  0.00  0.00     0.158 A 
HETATM    3  C   UNK N   1      19.855  18.085   1.914  0.00  0.00     0.154 A 
HETATM    4  N   UNK N   1      19.458  19.313   2.294  0.00  0.00    -0.291 N 
HETATM    5  C   UNK N   1      20.337  19.623   3.306  0.00  0.00     0.330 A 
HETATM    6  O   UNK N   1      20.305  20.676   3.917  0.00  0.00    -0.246 OA
HETATM    7  N   UNK N   1      19.342  17.315   0.920  0.00  0.00    -0.346 N 
ATOM      8  HN  UNK N   1      18.576  17.654   0.337  1.00  0.00     0.167 HD
HETATM    9  C   UNK N   1      19.883  16.069   0.725  0.00  0.00     0.128 A 
HETATM   10  C   UNK N   1      20.956  15.628   1.547  0.00  0.00     0.103 A 
HETATM   11  N   UNK N   1      21.468  16.462   2.490  0.00  0.00    -0.331 N 
ATOM     12  HN  UNK N   1      22.267  16.175   3.057  1.00  0.00     0.168 HD
HETATM   13  C   UNK N   1      21.458  14.288   1.480  0.00  0.00    -0.058 C 
HETATM   14  C   UNK N   1      21.925  13.176   1.476  0.00  0.00     0.019 C 
HETATM   15  H   UNK N   1      18.720  19.857   1.937  0.00  0.00     0.172 HD
ENDROOT
BRANCH   1  16
HETATM   16  C   UNK N   1      22.414  18.633   4.463  0.00  0.00     0.095 C 
BRANCH  16  17
HETATM   17  C   UNK N   1      22.369  17.570   5.560  0.00  0.00     0.021 C 
HETATM   18  C   UNK N   1      21.220  17.843   6.523  0.00  0.00     0.007 C 
ENDBRANCH  16  17
BRANCH  16  19
HETATM   19  C   UNK N   1      23.798  18.804   3.789  0.00  0.00     0.021 C 
HETATM   20  C   UNK N   1      24.077  20.200   3.239  0.00  0.00     0.007 C 
ENDBRANCH  16  19
ENDBRANCH   1  16
TORSDOF 3
ENDMDL
MODEL 2
REMARK VINA RESULT:      -5.7     16.092     17.919
REMARK  3 active torsions:
REMARK  status: ('A' for Active; 'I' for Inactive)
REMARK    1  A    between atoms: C_2  and  C_3 
REMARK    2  A    between atoms: C_3  and  C_4 
REMARK    3  A    between atoms: C_3  and  N_6 
ROOT
HETATM    1  N   UNK N   1      35.287  12.735  13.341  0.00  0.00    -0.277 N 
HETATM    2  C   UNK N   1      35.147  13.711  12.429  0.00  0.00     0.158 A 
HETATM    3  C   UNK N   1      36.069  14.681  12.633  0.00  0.00     0.154 A 
HETATM    4  N   UNK N   1      36.829  14.392  13.705  0.00  0.00    -0.291 N 
HETATM    5  C   UNK N   1      36.321  13.185  14.128  0.00  0.00     0.330 A 
HETATM    6  O   UNK N   1      36.755  12.581  15.093  0.00  0.00    -0.246 OA
HETATM    7  N   UNK N   1      36.163  15.759  11.813  0.00  0.00    -0.346 N 
ATOM      8  HN  UNK N   1      36.888  16.463  11.953  1.00  0.00     0.167 HD
HETATM    9  C   UNK N   1      35.255  15.871  10.790  0.00  0.00     0.128 A 
HETATM   10  C   UNK N   1      34.263  14.869  10.612  0.00  0.00     0.103 A 
HETATM   11  N   UNK N   1      34.249  13.782  11.429  0.00  0.00    -0.331 N 
ATOM     12  HN  UNK N   1      33.572  13.034  11.285  1.00  0.00     0.168 HD
HETATM   13  C   UNK N   1      33.207  15.011   9.654  0.00  0.00    -0.058 C 
HETATM   14  C   UNK N   1      32.293  15.069   8.870  0.00  0.00     0.019 C 
HETATM   15  H   UNK N   1      37.567  14.915  14.093  0.00  0.00     0.172 HD
ENDROOT
BRANCH   1  16
HETATM   16  C   UNK N   1      34.567  11.442  13.409  0.00  0.00     0.095 C 
BRANCH  16  17
HETATM   17  C   UNK N   1      35.365  10.237  12.912  0.00  0.00     0.021 C 
HETATM   18  C   UNK N   1      34.497   9.347  12.030  0.00  0.00     0.007 C 
ENDBRANCH  16  17
BRANCH  16  19
HETATM   19  C   UNK N   1      33.769  11.193  14.713  0.00  0.00     0.021 C 
HETATM   20  C   UNK N   1      34.403  10.193  15.674  0.00  0.00     0.007 C 
ENDBRANCH  16  19
ENDBRANCH   1  16
TORSDOF 3
ENDMDL
MODEL 3
REMARK VINA RESULT:      -5.6      0.627      1.920
REMARK  3 active torsions:
REMARK  status: ('A' for Active; 'I' for Inactive)
REMARK    1  A    between atoms: C_2  and  C_3 
REMARK    2  A    between atoms: C_3  and  C_4 
REMARK    3  A    between atoms: C_3  and  N_6 
ROOT
HETATM    1  N   UNK N   1      21.277  18.259   3.414  0.00  0.00    -0.277 N 
HETATM    2  C   UNK N   1      20.818  17.429   2.464  0.00  0.00     0.158 A 
HETATM    3  C   UNK N   1      19.772  17.990   1.814  0.00  0.00     0.154 A 
HETATM    4  N   UNK N   1      19.485  19.197   2.335  0.00  0.00    -0.291 N 
HETATM    5  C   UNK N   1      20.428  19.338   3.327  0.00  0.00     0.330 A 
HETATM    6  O   UNK N   1      20.502  20.322   4.042  0.00  0.00    -0.246 OA
HETATM    7  N   UNK N   1      19.160  17.366   0.776  0.00  0.00    -0.346 N 
ATOM      8  HN  UNK N   1      18.397  17.816   0.269  1.00  0.00     0.167 HD
HETATM    9  C   UNK N   1      19.597  16.112   0.430  0.00  0.00     0.128 A 
HETATM   10  C   UNK N   1      20.668  15.514   1.148  0.00  0.00     0.103 A 
HETATM   11  N   UNK N   1      21.282  16.207   2.143  0.00  0.00    -0.331 N 
ATOM     12  HN  UNK N   1      22.081  15.808   2.636  1.00  0.00     0.168 HD
HETATM   13  C   UNK N   1      21.066  14.156   0.921  0.00  0.00    -0.058 C 
HETATM   14  C   UNK N   1      21.447  13.020   0.782  0.00  0.00     0.019 C 
HETATM   15  H   UNK N   1      18.775  19.826   2.072  0.00  0.00     0.172 HD
ENDROOT
BRANCH   1  16
HETATM   16  C   UNK N   1      22.473  18.090   4.272  0.00  0.00     0.095 C 
BRANCH  16  17
HETATM   17  C   UNK N   1      23.636  19.025   3.943  0.00  0.00     0.021 C 
HETATM   18  C   UNK N   1      24.969  18.334   4.203  0.00  0.00     0.007 C 
ENDBRANCH  16  17
BRANCH  16  19
HETATM   19  C   UNK N   1      22.188  17.924   5.786  0.00  0.00     0.021 C 
HETATM   20  C   UNK N   1      22.255  16.489   6.299  0.00  0.00     0.007 C 
ENDBRANCH  16  19
ENDBRANCH   1  16
TORSDOF 3
ENDMDL
MODEL 4
REMARK VINA RESULT:      -5.4     13.203     15.123
REMARK  3 active torsions:
REMARK  status: ('A' for Active; 'I' for Inactive)
REMARK    1  A    between atoms: C_2  and  C_3 
REMARK    2  A    between atoms: C_3  and  C_4 
REMARK    3  A    between atoms: C_3  and  N_6 
ROOT
HETATM    1  N   UNK N   1      34.266  16.084   7.606  0.00  0.00    -0.277 N 
HETATM    2  C   UNK N   1      34.554  15.813   8.889  0.00  0.00     0.158 A 
HETATM    3  C   UNK N   1      34.813  16.956   9.566  0.00  0.00     0.154 A 
HETATM    4  N   UNK N   1      34.733  18.019   8.743  0.00  0.00    -0.291 N 
HETATM    5  C   UNK N   1      34.399  17.451   7.536  0.00  0.00     0.330 A 
HETATM    6  O   UNK N   1      34.229  18.100   6.519  0.00  0.00    -0.246 OA
HETATM    7  N   UNK N   1      35.088  16.952  10.895  0.00  0.00    -0.346 N 
ATOM      8  HN  UNK N   1      35.243  17.824  11.401  1.00  0.00     0.167 HD
HETATM    9  C   UNK N   1      35.152  15.740  11.536  0.00  0.00     0.128 A 
HETATM   10  C   UNK N   1      34.922  14.542  10.806  0.00  0.00     0.103 A 
HETATM   11  N   UNK N   1      34.595  14.608   9.488  0.00  0.00    -0.331 N 
ATOM     12  HN  UNK N   1      34.384  13.759   8.963  1.00  0.00     0.168 HD
HETATM   13  C   UNK N   1      35.119  13.250  11.393  0.00  0.00    -0.058 C 
HETATM   14  C   UNK N   1      35.268  12.133  11.824  0.00  0.00     0.019 C 
HETATM   15  H   UNK N   1      34.879  18.969   8.953  0.00  0.00     0.172 HD
ENDROOT
BRANCH   1  16
HETATM   16  C   UNK N   1      33.812  15.142   6.556  0.00  0.00     0.095 C 
BRANCH  16  17
HETATM   17  C   UNK N   1      32.341  15.279   6.164  0.00  0.00     0.021 C 
HETATM   18  C   UNK N   1      32.213  15.742   4.717  0.00  0.00     0.007 C 
ENDBRANCH  16  17
BRANCH  16  19
HETATM   19  C   UNK N   1      34.783  14.961   5.362  0.00  0.00     0.021 C 
HETATM   20  C   UNK N   1      36.216  14.607   5.747  0.00  0.00     0.007 C 
ENDBRANCH  16  19
ENDBRANCH   1  16
TORSDOF 3
ENDMDL
MODEL 5
REMARK VINA RESULT:      -5.3     10.053     12.179
REMARK  3 active torsions:
REMARK  status: ('A' for Active; 'I' for Inactive)
REMARK    1  A    between atoms: C_2  and  C_3 
REMARK    2  A    between atoms: C_3  and  C_4 
REMARK    3  A    between atoms: C_3  and  N_6 
ROOT
HETATM    1  N   UNK N   1      32.210  16.185   8.071  0.00  0.00    -0.277 N 
HETATM    2  C   UNK N   1      31.077  16.787   8.466  0.00  0.00     0.158 A 
HETATM    3  C   UNK N   1      30.716  16.350   9.695  0.00  0.00     0.154 A 
HETATM    4  N   UNK N   1      31.583  15.422  10.140  0.00  0.00    -0.291 N 
HETATM    5  C   UNK N   1      32.496  15.335   9.114  0.00  0.00     0.330 A 
HETATM    6  O   UNK N   1      33.458  14.587   9.140  0.00  0.00    -0.246 OA
HETATM    7  N   UNK N   1      29.625  16.843  10.334  0.00  0.00    -0.346 N 
ATOM      8  HN  UNK N   1      29.385  16.534  11.277  1.00  0.00     0.167 HD
HETATM    9  C   UNK N   1      28.854  17.768   9.675  0.00  0.00     0.128 A 
HETATM   10  C   UNK N   1      29.219  18.187   8.366  0.00  0.00     0.103 A 
HETATM   11  N   UNK N   1      30.353  17.702   7.795  0.00  0.00    -0.331 N 
ATOM     12  HN  UNK N   1      30.651  18.027   6.875  1.00  0.00     0.168 HD
HETATM   13  C   UNK N   1      28.374  19.037   7.581  0.00  0.00    -0.058 C 
HETATM   14  C   UNK N   1      27.709  19.747   6.869  0.00  0.00     0.019 C 
HETATM   15  H   UNK N   1      31.569  14.927  10.990  0.00  0.00     0.172 HD
ENDROOT
BRANCH   1  16
HETATM   16  C   UNK N   1      33.010  16.456   6.853  0.00  0.00     0.095 C 
BRANCH  16  17
HETATM   17  C   UNK N   1      32.320  16.089   5.539  0.00  0.00     0.021 C 
HETATM   18  C   UNK N   1      32.200  17.312   4.638  0.00  0.00     0.007 C 
ENDBRANCH  16  17
BRANCH  16  19
HETATM   19  C   UNK N   1      33.752  17.815   6.833  0.00  0.00     0.021 C 
HETATM   20  C   UNK N   1      34.447  18.187   8.139  0.00  0.00     0.007 C 
ENDBRANCH  16  19
ENDBRANCH   1  16
TORSDOF 3
ENDMDL
MODEL 6
REMARK VINA RESULT:      -5.3      7.039      9.292
REMARK  3 active torsions:
REMARK  status: ('A' for Active; 'I' for Inactive)
REMARK    1  A    between atoms: C_2  and  C_3 
REMARK    2  A    between atoms: C_3  and  C_4 
REMARK    3  A    between atoms: C_3  and  N_6 
ROOT
HETATM    1  N   UNK N   1      29.358  17.657   6.692  0.00  0.00    -0.277 N 
HETATM    2  C   UNK N   1      28.426  18.597   6.464  0.00  0.00     0.158 A 
HETATM    3  C   UNK N   1      28.009  19.139   7.632  0.00  0.00     0.154 A 
HETATM    4  N   UNK N   1      28.629  18.552   8.672  0.00  0.00    -0.291 N 
HETATM    5  C   UNK N   1      29.455  17.636   8.064  0.00  0.00     0.330 A 
HETATM    6  O   UNK N   1      30.198  16.894   8.682  0.00  0.00    -0.246 OA
HETATM    7  N   UNK N   1      27.100  20.146   7.666  0.00  0.00    -0.346 N 
ATOM      8  HN  UNK N   1      26.822  20.573   8.550  1.00  0.00     0.167 HD
HETATM    9  C   UNK N   1      26.565  20.572   6.475  0.00  0.00     0.128 A 
HETATM   10  C   UNK N   1      26.979  19.966   5.258  0.00  0.00     0.103 A 
HETATM   11  N   UNK N   1      27.934  19.000   5.277  0.00  0.00    -0.331 N 
ATOM     12  HN  UNK N   1      28.272  18.587   4.408  1.00  0.00     0.168 HD
HETATM   13  C   UNK N   1      26.349  20.273   4.008  0.00  0.00    -0.058 C 
HETATM   14  C   UNK N   1      25.861  20.485   2.926  0.00  0.00     0.019 C 
HETATM   15  H   UNK N   1      28.519  18.734   9.633  0.00  0.00     0.172 HD
ENDROOT
BRANCH   1  16
HETATM   16  C   UNK N   1      30.157  16.906   5.695  0.00  0.00     0.095 C 
BRANCH  16  17
HETATM   17  C   UNK N   1      31.639  17.277   5.652  0.00  0.00     0.021 C 
HETATM   18  C   UNK N   1      32.066  17.611   4.227  0.00  0.00     0.007 C 
ENDBRANCH  16  17
BRANCH  16  19
HETATM   19  C   UNK N   1      29.871  15.386   5.623  0.00  0.00     0.021 C 
HETATM   20  C   UNK N   1      28.418  15.018   5.338  0.00  0.00     0.007 C 
ENDBRANCH  16  19
ENDBRANCH   1  16
TORSDOF 3
ENDMDL
MODEL 7
REMARK VINA RESULT:      -5.2     17.026     18.574
REMARK  3 active torsions:
REMARK  status: ('A' for Active; 'I' for Inactive)
REMARK    1  A    between atoms: C_2  and  C_3 
REMARK    2  A    between atoms: C_3  and  C_4 
REMARK    3  A    between atoms: C_3  and  N_6 
ROOT
HETATM    1  N   UNK N   1      35.530  12.931  14.279  0.00  0.00    -0.277 N 
HETATM    2  C   UNK N   1      35.365  12.495  13.020  0.00  0.00     0.158 A 
HETATM    3  C   UNK N   1      36.143  13.207  12.171  0.00  0.00     0.154 A 
HETATM    4  N   UNK N   1      36.824  14.157  12.838  0.00  0.00    -0.291 N 
HETATM    5  C   UNK N   1      36.423  13.969  14.140  0.00  0.00     0.330 A 
HETATM    6  O   UNK N   1      36.829  14.647  15.067  0.00  0.00    -0.246 OA
HETATM    7  N   UNK N   1      36.189  12.928  10.843  0.00  0.00    -0.346 N 
ATOM      8  HN  UNK N   1      36.809  13.446  10.219  1.00  0.00     0.167 HD
HETATM    9  C   UNK N   1      35.378  11.928  10.366  0.00  0.00     0.128 A 
HETATM   10  C   UNK N   1      34.533  11.217  11.261  0.00  0.00     0.103 A 
HETATM   11  N   UNK N   1      34.568  11.500  12.590  0.00  0.00    -0.331 N 
ATOM     12  HN  UNK N   1      34.000  10.968  13.249  1.00  0.00     0.168 HD
HETATM   13  C   UNK N   1      33.566  10.268  10.794  0.00  0.00    -0.058 C 
HETATM   14  C   UNK N   1      32.732   9.460  10.468  0.00  0.00     0.019 C 
HETATM   15  H   UNK N   1      37.454  14.824  12.482  0.00  0.00     0.172 HD
ENDROOT
BRANCH   1  16
HETATM   16  C   UNK N   1      34.964  12.358  15.523  0.00  0.00     0.095 C 
BRANCH  16  17
HETATM   17  C   UNK N   1      35.768  11.205  16.122  0.00  0.00     0.021 C 
HETATM   18  C   UNK N   1      34.886   9.974  16.301  0.00  0.00     0.007 C 
ENDBRANCH  16  17
BRANCH  16  19
HETATM   19  C   UNK N   1      34.451  13.391  16.558  0.00  0.00     0.021 C 
HETATM   20  C   UNK N   1      35.146  13.341  17.915  0.00  0.00     0.007 C 
ENDBRANCH  16  19
ENDBRANCH   1  16
TORSDOF 3
ENDMDL
MODEL 8
REMARK VINA RESULT:      -5.2     12.004     13.550
REMARK  3 active torsions:
REMARK  status: ('A' for Active; 'I' for Inactive)
REMARK    1  A    between atoms: C_2  and  C_3 
REMARK    2  A    between atoms: C_3  and  C_4 
REMARK    3  A    between atoms: C_3  and  N_6 
ROOT
HETATM    1  N   UNK N   1      26.209  26.078  -5.314  0.00  0.00    -0.277 N 
HETATM    2  C   UNK N   1      25.932  25.256  -6.338  0.00  0.00     0.158 A 
HETATM    3  C   UNK N   1      25.815  23.980  -5.900  0.00  0.00     0.154 A 
HETATM    4  N   UNK N   1      26.042  23.914  -4.575  0.00  0.00    -0.291 N 
HETATM    5  C   UNK N   1      26.288  25.225  -4.237  0.00  0.00     0.330 A 
HETATM    6  O   UNK N   1      26.539  25.584  -3.101  0.00  0.00    -0.246 OA
HETATM    7  N   UNK N   1      25.492  22.964  -6.740  0.00  0.00    -0.346 N 
ATOM      8  HN  UNK N   1      25.369  22.014  -6.391  1.00  0.00     0.167 HD
HETATM    9  C   UNK N   1      25.338  23.255  -8.073  0.00  0.00     0.128 A 
HETATM   10  C   UNK N   1      25.505  24.591  -8.529  0.00  0.00     0.103 A 
HETATM   11  N   UNK N   1      25.773  25.579  -7.635  0.00  0.00    -0.331 N 
ATOM     12  HN  UNK N   1      25.852  26.549  -7.942  1.00  0.00     0.168 HD
HETATM   13  C   UNK N   1      25.497  24.920  -9.923  0.00  0.00    -0.058 C 
HETATM   14  C   UNK N   1      25.503  25.264 -11.079  0.00  0.00     0.019 C 
HETATM   15  H   UNK N   1      26.034  23.123  -3.990  0.00  0.00     0.172 HD
ENDROOT
BRANCH   1  16
HETATM   16  C   UNK N   1      26.300  27.557  -5.331  0.00  0.00     0.095 C 
BRANCH  16  17
HETATM   17  C   UNK N   1      25.495  28.262  -4.239  0.00  0.00     0.021 C 
HETATM   18  C   UNK N   1      26.365  29.275  -3.504  0.00  0.00     0.007 C 
ENDBRANCH  16  17
BRANCH  16  19
HETATM   19  C   UNK N   1      27.719  28.133  -5.559  0.00  0.00     0.021 C 
HETATM   20  C   UNK N   1      27.952  28.744  -6.937  0.00  0.00     0.007 C 
ENDBRANCH  16  19
ENDBRANCH   1  16
TORSDOF 3
ENDMDL
MODEL 9
REMARK VINA RESULT:      -5.2      3.412      5.078
REMARK  3 active torsions:
REMARK  status: ('A' for Active; 'I' for Inactive)
REMARK    1  A    between atoms: C_2  and  C_3 
REMARK    2  A    between atoms: C_3  and  C_4 
REMARK    3  A    between atoms: C_3  and  N_6 
ROOT
HETATM    1  N   UNK N   1      25.374  19.409   4.364  0.00  0.00    -0.277 N 
HETATM    2  C   UNK N   1      24.077  19.078   4.475  0.00  0.00     0.158 A 
HETATM    3  C   UNK N   1      23.353  19.683   3.505  0.00  0.00     0.154 A 
HETATM    4  N   UNK N   1      24.143  20.458   2.740  0.00  0.00    -0.291 N 
HETATM    5  C   UNK N   1      25.388  20.275   3.296  0.00  0.00     0.330 A 
HETATM    6  O   UNK N   1      26.393  20.818   2.873  0.00  0.00    -0.246 OA
HETATM    7  N   UNK N   1      22.019  19.471   3.375  0.00  0.00    -0.346 N 
ATOM      8  HN  UNK N   1      21.490  19.902   2.616  1.00  0.00     0.167 HD
HETATM    9  C   UNK N   1      21.402  18.661   4.295  0.00  0.00     0.128 A 
HETATM   10  C   UNK N   1      22.165  18.066   5.336  0.00  0.00     0.103 A 
HETATM   11  N   UNK N   1      23.509  18.267   5.386  0.00  0.00    -0.331 N 
ATOM     12  HN  UNK N   1      24.075  17.810   6.101  1.00  0.00     0.168 HD
HETATM   13  C   UNK N   1      21.549  17.332   6.402  0.00  0.00    -0.058 C 
HETATM   14  C   UNK N   1      21.094  16.706   7.327  0.00  0.00     0.019 C 
HETATM   15  H   UNK N   1      23.893  21.019   1.971  0.00  0.00     0.172 HD
ENDROOT
BRANCH   1  16
HETATM   16  C   UNK N   1      26.519  18.881   5.143  0.00  0.00     0.095 C 
BRANCH  16  17
HETATM   17  C   UNK N   1      27.361  17.834   4.415  0.00  0.00     0.021 C 
HETATM   18  C   UNK N   1      28.845  18.056   4.689  0.00  0.00     0.007 C 
ENDBRANCH  16  17
BRANCH  16  19
HETATM   19  C   UNK N   1      27.339  19.940   5.921  0.00  0.00     0.021 C 
HETATM   20  C   UNK N   1      26.505  20.976   6.669  0.00  0.00     0.007 C 
ENDBRANCH  16  19
ENDBRANCH   1  16
TORSDOF 3
ENDMDL
