MODEL 1
REMARK VINA RESULT:      -7.2      0.000      0.000
REMARK  5 active torsions:
REMARK  status: ('A' for Active; 'I' for Inactive)
REMARK    1  A    between atoms: C_2  and  O_3 
REMARK    2  A    between atoms: O_3  and  C_4 
REMARK    3  A    between atoms: C_7  and  C_10 
REMARK    4  A    between atoms: C_11  and  C_21 
REMARK    5  A    between atoms: C_24  and  S_27 
ROOT
HETATM    1  C   UNK N   1      20.244  16.577   1.289  0.00  0.00     0.073 A 
HETATM    2  C   UNK N   1      20.386  17.080   2.590  0.00  0.00     0.034 A 
HETATM    3  C   UNK N   1      20.466  18.446   2.422  0.00  0.00     0.088 A 
HETATM    4  C   UNK N   1      20.667  19.467   3.344  0.00  0.00     0.036 A 
HETATM    5  C   UNK N   1      20.780  20.772   2.840  0.00  0.00     0.021 A 
HETATM    6  C   UNK N   1      20.698  20.996   1.450  0.00  0.00     0.109 A 
HETATM    7  N   UNK N   1      20.513  19.942   0.605  0.00  0.00    -0.290 N 
ATOM      8  HN  UNK N   1      20.458  20.092  -0.403  1.00  0.00     0.188 HD
HETATM    9  N   UNK N   1      20.405  18.718   1.110  0.00  0.00    -0.196 N 
HETATM   10  N   UNK N   1      20.279  17.604   0.407  0.00  0.00    -0.278 N 
ATOM     11  HN  UNK N   1      20.218  17.532  -0.609  1.00  0.00     0.189 HD
ENDROOT
BRANCH   2  12
HETATM   12  C   UNK N   1      20.558  16.286   3.824  0.00  0.00    -0.021 A 
HETATM   13  C   UNK N   1      21.862  16.006   4.249  0.00  0.00     0.014 A 
HETATM   14  C   UNK N   1      22.106  15.240   5.376  0.00  0.00     0.024 A 
HETATM   15  C   UNK N   1      21.040  14.686   6.101  0.00  0.00     0.058 A 
HETATM   16  C   UNK N   1      19.712  15.040   5.720  0.00  0.00     0.024 A 
HETATM   17  C   UNK N   1      19.478  15.842   4.592  0.00  0.00     0.014 A 
BRANCH  15  18
HETATM   18  S   UNK N   1      21.461  13.690   7.600  0.00  0.00     0.171 S 
HETATM   19  O   UNK N   1      20.930  12.264   7.801  0.00  0.00    -0.223 OA
HETATM   20  O   UNK N   1      20.105  14.134   8.168  0.00  0.00    -0.223 OA
HETATM   21  C   UNK N   1      21.017  12.678   6.136  0.00  0.00     0.167 C 
ENDBRANCH  15  18
ENDBRANCH   2  12
BRANCH   1  22
HETATM   22  C   UNK N   1      20.104  15.157   0.904  0.00  0.00    -0.007 A 
HETATM   23  C   UNK N   1      18.840  14.591   0.635  0.00  0.00     0.016 A 
HETATM   24  C   UNK N   1      18.709  13.218   0.401  0.00  0.00     0.037 A 
HETATM   25  C   UNK N   1      19.846  12.399   0.469  0.00  0.00     0.068 A 
HETATM   26  C   UNK N   1      21.098  12.971   0.698  0.00  0.00     0.037 A 
HETATM   27  C   UNK N   1      21.233  14.343   0.888  0.00  0.00     0.016 A 
BRANCH  25  28
HETATM   28  O   UNK N   1      19.779  11.060   0.350  0.00  0.00    -0.352 OA
BRANCH  28  29
HETATM   29  C   UNK N   1      20.384  10.176   1.201  0.00  0.00     0.171 C 
HETATM   30  C   UNK N   1      19.500  10.081   2.430  0.00  0.00     0.034 C 
ENDBRANCH  28  29
ENDBRANCH  25  28
ENDBRANCH   1  22
TORSDOF 5
ENDMDL
MODEL 2
REMARK VINA RESULT:      -7.1     11.218     13.441
REMARK  5 active torsions:
REMARK  status: ('A' for Active; 'I' for Inactive)
REMARK    1  A    between atoms: C_2  and  O_3 
REMARK    2  A    between atoms: O_3  and  C_4 
REMARK    3  A    between atoms: C_7  and  C_10 
REMARK    4  A    between atoms: C_11  and  C_21 
REMARK    5  A    between atoms: C_24  and  S_27 
ROOT
HETATM    1  C   UNK N   1      30.534  17.443   7.043  0.00  0.00     0.073 A 
HETATM    2  C   UNK N   1      30.374  17.202   5.671  0.00  0.00     0.034 A 
HETATM    3  C   UNK N   1      29.119  17.696   5.381  0.00  0.00     0.088 A 
HETATM    4  C   UNK N   1      28.389  17.692   4.198  0.00  0.00     0.036 A 
HETATM    5  C   UNK N   1      27.086  18.212   4.248  0.00  0.00     0.021 A 
HETATM    6  C   UNK N   1      26.572  18.700   5.467  0.00  0.00     0.109 A 
HETATM    7  N   UNK N   1      27.343  18.658   6.591  0.00  0.00    -0.290 N 
ATOM      8  HN  UNK N   1      26.979  19.003   7.480  1.00  0.00     0.188 HD
HETATM    9  N   UNK N   1      28.575  18.165   6.514  0.00  0.00    -0.196 N 
HETATM   10  N   UNK N   1      29.408  18.015   7.531  0.00  0.00    -0.278 N 
ATOM     11  HN  UNK N   1      29.235  18.281   8.501  1.00  0.00     0.189 HD
ENDROOT
BRANCH   2  12
HETATM   12  C   UNK N   1      31.299  16.452   4.796  0.00  0.00    -0.021 A 
HETATM   13  C   UNK N   1      31.192  15.057   4.769  0.00  0.00     0.014 A 
HETATM   14  C   UNK N   1      32.044  14.281   4.002  0.00  0.00     0.024 A 
HETATM   15  C   UNK N   1      33.072  14.881   3.259  0.00  0.00     0.058 A 
HETATM   16  C   UNK N   1      33.130  16.305   3.219  0.00  0.00     0.024 A 
HETATM   17  C   UNK N   1      32.240  17.082   3.979  0.00  0.00     0.014 A 
BRANCH  15  18
HETATM   18  S   UNK N   1      34.152  13.768   2.253  0.00  0.00     0.171 S 
HETATM   19  O   UNK N   1      35.653  13.620   2.538  0.00  0.00    -0.223 OA
HETATM   20  O   UNK N   1      34.559  15.021   1.464  0.00  0.00    -0.223 OA
HETATM   21  C   UNK N   1      34.784  14.086   3.945  0.00  0.00     0.167 C 
ENDBRANCH  15  18
ENDBRANCH   2  12
BRANCH   1  22
HETATM   22  C   UNK N   1      31.720  17.112   7.862  0.00  0.00    -0.007 A 
HETATM   23  C   UNK N   1      32.831  17.979   7.927  0.00  0.00     0.016 A 
HETATM   24  C   UNK N   1      33.996  17.594   8.599  0.00  0.00     0.037 A 
HETATM   25  C   UNK N   1      34.063  16.319   9.181  0.00  0.00     0.068 A 
HETATM   26  C   UNK N   1      32.947  15.483   9.145  0.00  0.00     0.037 A 
HETATM   27  C   UNK N   1      31.773  15.884   8.514  0.00  0.00     0.016 A 
BRANCH  25  28
HETATM   28  O   UNK N   1      35.184  15.848   9.759  0.00  0.00    -0.352 OA
BRANCH  28  29
HETATM   29  C   UNK N   1      35.701  16.312  10.937  0.00  0.00     0.171 C 
HETATM   30  C   UNK N   1      35.709  15.140  11.899  0.00  0.00     0.034 C 
ENDBRANCH  28  29
ENDBRANCH  25  28
ENDBRANCH   1  22
TORSDOF 5
ENDMDL
MODEL 3
REMARK VINA RESULT:      -7.0      5.595      8.458
REMARK  5 active torsions:
REMARK  status: ('A' for Active; 'I' for Inactive)
REMARK    1  A    between atoms: C_2  and  O_3 
REMARK    2  A    between atoms: O_3  and  C_4 
REMARK    3  A    between atoms: C_7  and  C_10 
REMARK    4  A    between atoms: C_11  and  C_21 
REMARK    5  A    between atoms: C_24  and  S_27 
ROOT
HETATM    1  C   UNK N   1      24.370  13.255   8.511  0.00  0.00     0.073 A 
HETATM    2  C   UNK N   1      22.995  13.043   8.682  0.00  0.00     0.034 A 
HETATM    3  C   UNK N   1      22.866  12.680  10.006  0.00  0.00     0.088 A 
HETATM    4  C   UNK N   1      21.751  12.294  10.741  0.00  0.00     0.036 A 
HETATM    5  C   UNK N   1      21.965  11.902  12.071  0.00  0.00     0.021 A 
HETATM    6  C   UNK N   1      23.272  11.903  12.602  0.00  0.00     0.109 A 
HETATM    7  N   UNK N   1      24.320  12.281  11.815  0.00  0.00    -0.290 N 
ATOM      8  HN  UNK N   1      25.270  12.280  12.187  1.00  0.00     0.188 HD
HETATM    9  N   UNK N   1      24.088  12.652  10.560  0.00  0.00    -0.196 N 
HETATM   10  N   UNK N   1      25.011  12.988   9.674  0.00  0.00    -0.278 N 
ATOM     11  HN  UNK N   1      26.017  13.038   9.837  1.00  0.00     0.189 HD
ENDROOT
BRANCH   2  12
HETATM   12  C   UNK N   1      21.965  13.068   7.623  0.00  0.00    -0.021 A 
HETATM   13  C   UNK N   1      21.696  11.877   6.939  0.00  0.00     0.014 A 
HETATM   14  C   UNK N   1      20.770  11.826   5.912  0.00  0.00     0.024 A 
HETATM   15  C   UNK N   1      20.102  12.990   5.502  0.00  0.00     0.058 A 
HETATM   16  C   UNK N   1      20.311  14.185   6.251  0.00  0.00     0.024 A 
HETATM   17  C   UNK N   1      21.232  14.216   7.311  0.00  0.00     0.014 A 
BRANCH  15  18
HETATM   18  S   UNK N   1      18.872  12.825   4.132  0.00  0.00     0.171 S 
HETATM   19  O   UNK N   1      18.844  13.798   2.945  0.00  0.00    -0.223 OA
HETATM   20  O   UNK N   1      18.048  13.896   4.860  0.00  0.00    -0.223 OA
HETATM   21  C   UNK N   1      20.409  13.701   3.648  0.00  0.00     0.167 C 
ENDBRANCH  15  18
ENDBRANCH   2  12
BRANCH   1  22
HETATM   22  C   UNK N   1      25.049  13.676   7.267  0.00  0.00    -0.007 A 
HETATM   23  C   UNK N   1      25.307  12.760   6.227  0.00  0.00     0.016 A 
HETATM   24  C   UNK N   1      26.066  13.140   5.114  0.00  0.00     0.037 A 
HETATM   25  C   UNK N   1      26.597  14.437   5.057  0.00  0.00     0.068 A 
HETATM   26  C   UNK N   1      26.306  15.349   6.071  0.00  0.00     0.037 A 
HETATM   27  C   UNK N   1      25.515  14.983   7.157  0.00  0.00     0.016 A 
BRANCH  25  28
HETATM   28  O   UNK N   1      27.413  14.839   4.064  0.00  0.00    -0.352 OA
BRANCH  28  29
HETATM   29  C   UNK N   1      27.211  15.956   3.302  0.00  0.00     0.171 C 
HETATM   30  C   UNK N   1      26.125  15.608   2.301  0.00  0.00     0.034 C 
ENDBRANCH  28  29
ENDBRANCH  25  28
ENDBRANCH   1  22
TORSDOF 5
ENDMDL
MODEL 4
REMARK VINA RESULT:      -6.9     14.314     16.390
REMARK  5 active torsions:
REMARK  status: ('A' for Active; 'I' for Inactive)
REMARK    1  A    between atoms: C_2  and  O_3 
REMARK    2  A    between atoms: O_3  and  C_4 
REMARK    3  A    between atoms: C_7  and  C_10 
REMARK    4  A    between atoms: C_11  and  C_21 
REMARK    5  A    between atoms: C_24  and  S_27 
ROOT
HETATM    1  C   UNK N   1      26.485  26.230  -7.269  0.00  0.00     0.073 A 
HETATM    2  C   UNK N   1      27.326  25.108  -7.265  0.00  0.00     0.034 A 
HETATM    3  C   UNK N   1      27.033  24.456  -8.445  0.00  0.00     0.088 A 
HETATM    4  C   UNK N   1      27.507  23.257  -8.966  0.00  0.00     0.036 A 
HETATM    5  C   UNK N   1      26.945  22.817 -10.174  0.00  0.00     0.021 A 
HETATM    6  C   UNK N   1      25.937  23.581 -10.798  0.00  0.00     0.109 A 
HETATM    7  N   UNK N   1      25.512  24.741 -10.219  0.00  0.00    -0.290 N 
ATOM      8  HN  UNK N   1      24.779  25.299 -10.659  1.00  0.00     0.188 HD
HETATM    9  N   UNK N   1      26.065  25.136  -9.077  0.00  0.00    -0.196 N 
HETATM   10  N   UNK N   1      25.714  26.206  -8.382  0.00  0.00    -0.278 N 
ATOM     11  HN  UNK N   1      24.997  26.886  -8.637  1.00  0.00     0.189 HD
ENDROOT
BRANCH   2  12
HETATM   12  C   UNK N   1      28.207  24.674  -6.161  0.00  0.00    -0.021 A 
HETATM   13  C   UNK N   1      29.589  24.809  -6.332  0.00  0.00     0.014 A 
HETATM   14  C   UNK N   1      30.482  24.395  -5.358  0.00  0.00     0.024 A 
HETATM   15  C   UNK N   1      30.016  23.786  -4.183  0.00  0.00     0.058 A 
HETATM   16  C   UNK N   1      28.608  23.725  -3.970  0.00  0.00     0.024 A 
HETATM   17  C   UNK N   1      27.712  24.176  -4.953  0.00  0.00     0.014 A 
BRANCH  15  18
HETATM   18  S   UNK N   1      31.279  23.278  -2.933  0.00  0.00     0.171 S 
HETATM   19  O   UNK N   1      31.346  21.847  -2.383  0.00  0.00    -0.223 OA
HETATM   20  O   UNK N   1      30.189  23.494  -1.873  0.00  0.00    -0.223 OA
HETATM   21  C   UNK N   1      30.641  21.891  -3.948  0.00  0.00     0.167 C 
ENDBRANCH  15  18
ENDBRANCH   2  12
BRANCH   1  22
HETATM   22  C   UNK N   1      26.408  27.276  -6.228  0.00  0.00    -0.007 A 
HETATM   23  C   UNK N   1      27.315  28.356  -6.205  0.00  0.00     0.016 A 
HETATM   24  C   UNK N   1      27.314  29.265  -5.141  0.00  0.00     0.037 A 
HETATM   25  C   UNK N   1      26.420  29.073  -4.076  0.00  0.00     0.068 A 
HETATM   26  C   UNK N   1      25.501  28.025  -4.124  0.00  0.00     0.037 A 
HETATM   27  C   UNK N   1      25.475  27.147  -5.203  0.00  0.00     0.016 A 
BRANCH  25  28
HETATM   28  O   UNK N   1      26.430  29.852  -2.978  0.00  0.00    -0.352 OA
BRANCH  28  29
HETATM   29  C   UNK N   1      27.487  30.630  -2.591  0.00  0.00     0.171 C 
HETATM   30  C   UNK N   1      28.183  29.888  -1.466  0.00  0.00     0.034 C 
ENDBRANCH  28  29
ENDBRANCH  25  28
ENDBRANCH   1  22
TORSDOF 5
ENDMDL
MODEL 5
REMARK VINA RESULT:      -6.9     13.709     14.773
REMARK  5 active torsions:
REMARK  status: ('A' for Active; 'I' for Inactive)
REMARK    1  A    between atoms: C_2  and  O_3 
REMARK    2  A    between atoms: O_3  and  C_4 
REMARK    3  A    between atoms: C_7  and  C_10 
REMARK    4  A    between atoms: C_11  and  C_21 
REMARK    5  A    between atoms: C_24  and  S_27 
ROOT
HETATM    1  C   UNK N   1      26.302  26.505  -5.250  0.00  0.00     0.073 A 
HETATM    2  C   UNK N   1      27.340  26.570  -4.310  0.00  0.00     0.034 A 
HETATM    3  C   UNK N   1      27.244  27.840  -3.781  0.00  0.00     0.088 A 
HETATM    4  C   UNK N   1      28.035  28.500  -2.848  0.00  0.00     0.036 A 
HETATM    5  C   UNK N   1      27.716  29.839  -2.572  0.00  0.00     0.021 A 
HETATM    6  C   UNK N   1      26.639  30.456  -3.241  0.00  0.00     0.109 A 
HETATM    7  N   UNK N   1      25.916  29.748  -4.155  0.00  0.00    -0.290 N 
ATOM      8  HN  UNK N   1      25.138  30.186  -4.649  1.00  0.00     0.188 HD
HETATM    9  N   UNK N   1      26.237  28.480  -4.393  0.00  0.00    -0.196 N 
HETATM   10  N   UNK N   1      25.659  27.696  -5.289  0.00  0.00    -0.278 N 
ATOM     11  HN  UNK N   1      24.876  27.943  -5.895  1.00  0.00     0.189 HD
ENDROOT
BRANCH   2  12
HETATM   12  C   UNK N   1      28.377  25.543  -4.074  0.00  0.00    -0.021 A 
HETATM   13  C   UNK N   1      29.573  25.641  -4.793  0.00  0.00     0.014 A 
HETATM   14  C   UNK N   1      30.580  24.700  -4.653  0.00  0.00     0.024 A 
HETATM   15  C   UNK N   1      30.402  23.593  -3.809  0.00  0.00     0.058 A 
HETATM   16  C   UNK N   1      29.220  23.537  -3.014  0.00  0.00     0.024 A 
HETATM   17  C   UNK N   1      28.219  24.514  -3.143  0.00  0.00     0.014 A 
BRANCH  15  18
HETATM   18  S   UNK N   1      31.803  22.396  -3.674  0.00  0.00     0.171 S 
HETATM   19  O   UNK N   1      31.586  20.879  -3.763  0.00  0.00    -0.223 OA
HETATM   20  O   UNK N   1      31.408  22.234  -2.199  0.00  0.00    -0.223 OA
HETATM   21  C   UNK N   1      30.357  21.744  -4.594  0.00  0.00     0.167 C 
ENDBRANCH  15  18
ENDBRANCH   2  12
BRANCH   1  22
HETATM   22  C   UNK N   1      25.954  25.346  -6.099  0.00  0.00    -0.007 A 
HETATM   23  C   UNK N   1      25.725  24.071  -5.541  0.00  0.00     0.016 A 
HETATM   24  C   UNK N   1      25.527  22.957  -6.365  0.00  0.00     0.037 A 
HETATM   25  C   UNK N   1      25.590  23.115  -7.757  0.00  0.00     0.068 A 
HETATM   26  C   UNK N   1      25.778  24.385  -8.302  0.00  0.00     0.037 A 
HETATM   27  C   UNK N   1      25.933  25.499  -7.482  0.00  0.00     0.016 A 
BRANCH  25  28
HETATM   28  O   UNK N   1      25.504  22.073  -8.605  0.00  0.00    -0.352 OA
BRANCH  28  29
HETATM   29  C   UNK N   1      25.974  20.817  -8.337  0.00  0.00     0.171 C 
HETATM   30  C   UNK N   1      27.476  20.863  -8.543  0.00  0.00     0.034 C 
ENDBRANCH  28  29
ENDBRANCH  25  28
ENDBRANCH   1  22
TORSDOF 5
ENDMDL
MODEL 6
REMARK VINA RESULT:      -6.9     14.015     15.750
REMARK  5 active torsions:
REMARK  status: ('A' for Active; 'I' for Inactive)
REMARK    1  A    between atoms: C_2  and  O_3 
REMARK    2  A    between atoms: O_3  and  C_4 
REMARK    3  A    between atoms: C_7  and  C_10 
REMARK    4  A    between atoms: C_11  and  C_21 
REMARK    5  A    between atoms: C_24  and  S_27 
ROOT
HETATM    1  C   UNK N   1      29.820  26.204  -4.001  0.00  0.00     0.073 A 
HETATM    2  C   UNK N   1      28.650  26.363  -4.757  0.00  0.00     0.034 A 
HETATM    3  C   UNK N   1      28.356  27.707  -4.655  0.00  0.00     0.088 A 
HETATM    4  C   UNK N   1      27.286  28.445  -5.147  0.00  0.00     0.036 A 
HETATM    5  C   UNK N   1      27.233  29.804  -4.799  0.00  0.00     0.021 A 
HETATM    6  C   UNK N   1      28.235  30.357  -3.976  0.00  0.00     0.109 A 
HETATM    7  N   UNK N   1      29.248  29.566  -3.520  0.00  0.00    -0.290 N 
ATOM      8  HN  UNK N   1      29.976  29.955  -2.918  1.00  0.00     0.188 HD
HETATM    9  N   UNK N   1      29.276  28.284  -3.868  0.00  0.00    -0.196 N 
HETATM   10  N   UNK N   1      30.165  27.394  -3.456  0.00  0.00    -0.278 N 
ATOM     11  HN  UNK N   1      30.961  27.572  -2.843  1.00  0.00     0.189 HD
ENDROOT
BRANCH   2  12
HETATM   12  C   UNK N   1      27.856  25.285  -5.383  0.00  0.00    -0.021 A 
HETATM   13  C   UNK N   1      28.346  24.709  -6.560  0.00  0.00     0.014 A 
HETATM   14  C   UNK N   1      27.644  23.718  -7.226  0.00  0.00     0.024 A 
HETATM   15  C   UNK N   1      26.393  23.295  -6.752  0.00  0.00     0.058 A 
HETATM   16  C   UNK N   1      25.932  23.821  -5.509  0.00  0.00     0.024 A 
HETATM   17  C   UNK N   1      26.668  24.804  -4.828  0.00  0.00     0.014 A 
BRANCH  15  18
HETATM   18  S   UNK N   1      25.536  21.958  -7.697  0.00  0.00     0.171 S 
HETATM   19  O   UNK N   1      24.260  22.227  -8.507  0.00  0.00    -0.223 OA
HETATM   20  O   UNK N   1      24.588  21.836  -6.494  0.00  0.00    -0.223 OA
HETATM   21  C   UNK N   1      25.216  23.645  -8.342  0.00  0.00     0.167 C 
ENDBRANCH  15  18
ENDBRANCH   2  12
BRANCH   1  22
HETATM   22  C   UNK N   1      30.568  24.946  -3.790  0.00  0.00    -0.007 A 
HETATM   23  C   UNK N   1      31.688  24.618  -4.581  0.00  0.00     0.016 A 
HETATM   24  C   UNK N   1      32.305  23.368  -4.459  0.00  0.00     0.037 A 
HETATM   25  C   UNK N   1      31.777  22.428  -3.562  0.00  0.00     0.068 A 
HETATM   26  C   UNK N   1      30.693  22.773  -2.755  0.00  0.00     0.037 A 
HETATM   27  C   UNK N   1      30.107  24.032  -2.847  0.00  0.00     0.016 A 
BRANCH  25  28
HETATM   28  O   UNK N   1      32.261  21.175  -3.463  0.00  0.00    -0.352 OA
BRANCH  28  29
HETATM   29  C   UNK N   1      33.495  20.859  -2.962  0.00  0.00     0.171 C 
HETATM   30  C   UNK N   1      34.103  19.847  -3.913  0.00  0.00     0.034 C 
ENDBRANCH  28  29
ENDBRANCH  25  28
ENDBRANCH   1  22
TORSDOF 5
ENDMDL
MODEL 7
REMARK VINA RESULT:      -6.7     14.454     17.669
REMARK  5 active torsions:
REMARK  status: ('A' for Active; 'I' for Inactive)
REMARK    1  A    between atoms: C_2  and  O_3 
REMARK    2  A    between atoms: O_3  and  C_4 
REMARK    3  A    between atoms: C_7  and  C_10 
REMARK    4  A    between atoms: C_11  and  C_21 
REMARK    5  A    between atoms: C_24  and  S_27 
ROOT
HETATM    1  C   UNK N   1      25.790  24.423  -6.370  0.00  0.00     0.073 A 
HETATM    2  C   UNK N   1      26.447  24.399  -7.609  0.00  0.00     0.034 A 
HETATM    3  C   UNK N   1      26.197  23.136  -8.104  0.00  0.00     0.088 A 
HETATM    4  C   UNK N   1      26.633  22.510  -9.266  0.00  0.00     0.036 A 
HETATM    5  C   UNK N   1      26.262  21.169  -9.449  0.00  0.00     0.021 A 
HETATM    6  C   UNK N   1      25.488  20.515  -8.468  0.00  0.00     0.109 A 
HETATM    7  N   UNK N   1      25.109  21.191  -7.346  0.00  0.00    -0.290 N 
ATOM      8  HN  UNK N   1      24.554  20.726  -6.627  1.00  0.00     0.188 HD
HETATM    9  N   UNK N   1      25.470  22.461  -7.201  0.00  0.00    -0.196 N 
HETATM   10  N   UNK N   1      25.219  23.217  -6.143  0.00  0.00    -0.278 N 
ATOM     11  HN  UNK N   1      24.694  22.941  -5.313  1.00  0.00     0.189 HD
ENDROOT
BRANCH   2  12
HETATM   12  C   UNK N   1      27.323  25.454  -8.160  0.00  0.00    -0.021 A 
HETATM   13  C   UNK N   1      28.609  25.585  -7.624  0.00  0.00     0.014 A 
HETATM   14  C   UNK N   1      29.478  26.570  -8.063  0.00  0.00     0.024 A 
HETATM   15  C   UNK N   1      29.067  27.495  -9.035  0.00  0.00     0.058 A 
HETATM   16  C   UNK N   1      27.789  27.311  -9.640  0.00  0.00     0.024 A 
HETATM   17  C   UNK N   1      26.929  26.289  -9.208  0.00  0.00     0.014 A 
BRANCH  15  18
HETATM   18  S   UNK N   1      30.298  28.766  -9.569  0.00  0.00     0.171 S 
HETATM   19  O   UNK N   1      30.060  30.267  -9.352  0.00  0.00    -0.223 OA
HETATM   20  O   UNK N   1      29.436  28.945 -10.827  0.00  0.00    -0.223 OA
HETATM   21  C   UNK N   1      29.207  29.318  -8.202  0.00  0.00     0.167 C 
ENDBRANCH  15  18
ENDBRANCH   2  12
BRANCH   1  22
HETATM   22  C   UNK N   1      25.732  25.559  -5.426  0.00  0.00    -0.007 A 
HETATM   23  C   UNK N   1      24.987  26.720  -5.720  0.00  0.00     0.016 A 
HETATM   24  C   UNK N   1      25.047  27.838  -4.881  0.00  0.00     0.037 A 
HETATM   25  C   UNK N   1      25.885  27.806  -3.757  0.00  0.00     0.068 A 
HETATM   26  C   UNK N   1      26.591  26.642  -3.451  0.00  0.00     0.037 A 
HETATM   27  C   UNK N   1      26.496  25.516  -4.264  0.00  0.00     0.016 A 
BRANCH  25  28
HETATM   28  O   UNK N   1      26.065  28.877  -2.961  0.00  0.00    -0.352 OA
BRANCH  28  29
HETATM   29  C   UNK N   1      27.122  29.740  -3.053  0.00  0.00     0.171 C 
HETATM   30  C   UNK N   1      26.592  31.011  -3.688  0.00  0.00     0.034 C 
ENDBRANCH  28  29
ENDBRANCH  25  28
ENDBRANCH   1  22
TORSDOF 5
ENDMDL
MODEL 8
REMARK VINA RESULT:      -6.6     12.081     14.365
REMARK  5 active torsions:
REMARK  status: ('A' for Active; 'I' for Inactive)
REMARK    1  A    between atoms: C_2  and  O_3 
REMARK    2  A    between atoms: O_3  and  C_4 
REMARK    3  A    between atoms: C_7  and  C_10 
REMARK    4  A    between atoms: C_11  and  C_21 
REMARK    5  A    between atoms: C_24  and  S_27 
ROOT
HETATM    1  C   UNK N   1      31.704  16.936   8.498  0.00  0.00     0.073 A 
HETATM    2  C   UNK N   1      31.269  16.958   7.166  0.00  0.00     0.034 A 
HETATM    3  C   UNK N   1      30.067  17.632   7.208  0.00  0.00     0.088 A 
HETATM    4  C   UNK N   1      29.145  17.915   6.207  0.00  0.00     0.036 A 
HETATM    5  C   UNK N   1      27.960  18.561   6.592  0.00  0.00     0.021 A 
HETATM    6  C   UNK N   1      27.745  18.883   7.948  0.00  0.00     0.109 A 
HETATM    7  N   UNK N   1      28.690  18.561   8.877  0.00  0.00    -0.290 N 
ATOM      8  HN  UNK N   1      28.542  18.784   9.862  1.00  0.00     0.188 HD
HETATM    9  N   UNK N   1      29.805  17.954   8.484  0.00  0.00    -0.196 N 
HETATM   10  N   UNK N   1      30.776  17.536   9.281  0.00  0.00    -0.278 N 
ATOM     11  HN  UNK N   1      30.818  17.647  10.294  1.00  0.00     0.189 HD
ENDROOT
BRANCH   2  12
HETATM   12  C   UNK N   1      31.908  16.273   6.022  0.00  0.00    -0.021 A 
HETATM   13  C   UNK N   1      31.623  14.917   5.827  0.00  0.00     0.014 A 
HETATM   14  C   UNK N   1      32.208  14.196   4.799  0.00  0.00     0.024 A 
HETATM   15  C   UNK N   1      33.141  14.807   3.947  0.00  0.00     0.058 A 
HETATM   16  C   UNK N   1      33.368  16.207   4.092  0.00  0.00     0.024 A 
HETATM   17  C   UNK N   1      32.746  16.933   5.121  0.00  0.00     0.014 A 
BRANCH  15  18
HETATM   18  S   UNK N   1      33.859  13.772   2.595  0.00  0.00     0.171 S 
HETATM   19  O   UNK N   1      35.373  13.554   2.457  0.00  0.00    -0.223 OA
HETATM   20  O   UNK N   1      34.113  15.086   1.843  0.00  0.00    -0.223 OA
HETATM   21  C   UNK N   1      34.928  13.898   4.080  0.00  0.00     0.167 C 
ENDBRANCH  15  18
ENDBRANCH   2  12
BRANCH   1  22
HETATM   22  C   UNK N   1      32.956  16.337   9.007  0.00  0.00    -0.007 A 
HETATM   23  C   UNK N   1      33.011  14.989   9.417  0.00  0.00     0.016 A 
HETATM   24  C   UNK N   1      34.164  14.473  10.018  0.00  0.00     0.037 A 
HETATM   25  C   UNK N   1      35.259  15.321  10.240  0.00  0.00     0.068 A 
HETATM   26  C   UNK N   1      35.212  16.643   9.798  0.00  0.00     0.037 A 
HETATM   27  C   UNK N   1      34.080  17.143   9.162  0.00  0.00     0.016 A 
BRANCH  25  28
HETATM   28  O   UNK N   1      36.362  14.916  10.899  0.00  0.00    -0.352 OA
BRANCH  28  29
HETATM   29  C   UNK N   1      36.507  13.688  11.483  0.00  0.00     0.171 C 
HETATM   30  C   UNK N   1      36.373  13.901  12.979  0.00  0.00     0.034 C 
ENDBRANCH  28  29
ENDBRANCH  25  28
ENDBRANCH   1  22
TORSDOF 5
ENDMDL
MODEL 9
REMARK VINA RESULT:      -6.4      8.753      9.832
REMARK  5 active torsions:
REMARK  status: ('A' for Active; 'I' for Inactive)
REMARK    1  A    between atoms: C_2  and  O_3 
REMARK    2  A    between atoms: O_3  and  C_4 
REMARK    3  A    between atoms: C_7  and  C_10 
REMARK    4  A    between atoms: C_11  and  C_21 
REMARK    5  A    between atoms: C_24  and  S_27 
ROOT
HETATM    1  C   UNK N   1      27.556  16.992   4.515  0.00  0.00     0.073 A 
HETATM    2  C   UNK N   1      28.353  17.740   5.392  0.00  0.00     0.034 A 
HETATM    3  C   UNK N   1      27.598  18.862   5.668  0.00  0.00     0.088 A 
HETATM    4  C   UNK N   1      27.884  19.988   6.431  0.00  0.00     0.036 A 
HETATM    5  C   UNK N   1      26.921  21.009   6.451  0.00  0.00     0.021 A 
HETATM    6  C   UNK N   1      25.732  20.866   5.707  0.00  0.00     0.109 A 
HETATM    7  N   UNK N   1      25.527  19.737   4.970  0.00  0.00    -0.290 N 
ATOM      8  HN  UNK N   1      24.672  19.626   4.423  1.00  0.00     0.188 HD
HETATM    9  N   UNK N   1      26.453  18.784   4.973  0.00  0.00    -0.196 N 
HETATM   10  N   UNK N   1      26.410  17.668   4.264  0.00  0.00    -0.278 N 
ATOM     11  HN  UNK N   1      25.655  17.371   3.645  1.00  0.00     0.189 HD
ENDROOT
BRANCH   2  12
HETATM   12  C   UNK N   1      29.742  17.437   5.793  0.00  0.00    -0.021 A 
HETATM   13  C   UNK N   1      29.965  16.977   7.095  0.00  0.00     0.014 A 
HETATM   14  C   UNK N   1      31.241  16.703   7.557  0.00  0.00     0.024 A 
HETATM   15  C   UNK N   1      32.355  16.924   6.734  0.00  0.00     0.058 A 
HETATM   16  C   UNK N   1      32.125  17.312   5.381  0.00  0.00     0.024 A 
HETATM   17  C   UNK N   1      30.823  17.558   4.916  0.00  0.00     0.014 A 
BRANCH  15  18
HETATM   18  S   UNK N   1      34.018  16.517   7.430  0.00  0.00     0.171 S 
HETATM   19  O   UNK N   1      35.008  17.610   7.855  0.00  0.00    -0.223 OA
HETATM   20  O   UNK N   1      34.570  16.752   6.016  0.00  0.00    -0.223 OA
HETATM   21  C   UNK N   1      33.384  18.162   7.936  0.00  0.00     0.167 C 
ENDBRANCH  15  18
ENDBRANCH   2  12
BRANCH   1  22
HETATM   22  C   UNK N   1      27.895  15.682   3.918  0.00  0.00    -0.007 A 
HETATM   23  C   UNK N   1      27.845  14.495   4.678  0.00  0.00     0.016 A 
HETATM   24  C   UNK N   1      28.294  13.284   4.139  0.00  0.00     0.037 A 
HETATM   25  C   UNK N   1      28.826  13.267   2.841  0.00  0.00     0.068 A 
HETATM   26  C   UNK N   1      28.838  14.438   2.082  0.00  0.00     0.037 A 
HETATM   27  C   UNK N   1      28.352  15.633   2.604  0.00  0.00     0.016 A 
BRANCH  25  28
HETATM   28  O   UNK N   1      29.363  12.159   2.297  0.00  0.00    -0.352 OA
BRANCH  28  29
HETATM   29  C   UNK N   1      29.128  11.733   1.018  0.00  0.00     0.171 C 
HETATM   30  C   UNK N   1      27.757  11.085   1.022  0.00  0.00     0.034 C 
ENDBRANCH  28  29
ENDBRANCH  25  28
ENDBRANCH   1  22
TORSDOF 5
ENDMDL
