REMARK  3 active torsions:
REMARK  status: ('A' for Active; 'I' for Inactive)
REMARK    1  A    between atoms: C_4  and  C_7 
REMARK    2  A    between atoms: C_7  and  N_8 
REMARK    3  A    between atoms: N_11  and  C_15 
ROOT
HETATM    1  N   UNK N   1      -0.136   2.658  -0.000  0.00  0.00    -0.254 N 
HETATM    2  C   UNK N   1       0.419   1.369  -0.000  0.00  0.00     0.343 A 
HETATM    3  O   UNK N   1       1.623   1.228  -0.000  0.00  0.00    -0.245 OA
HETATM    4  N   UNK N   1      -0.475   0.293   0.000  0.00  0.00    -0.227 N 
HETATM    5  S   UNK N   1      -1.951   1.029   0.000  0.00  0.00     0.060 SA
HETATM    6  C   UNK N   1      -1.513   2.598   0.000  0.00  0.00     0.311 A 
HETATM    7  O   UNK N   1      -2.282   3.538   0.000  0.00  0.00    -0.258 OA
ENDROOT
BRANCH   4   8
HETATM    8  C   UNK N   1      -0.311  -1.162   0.000  0.00  0.00     0.062 A 
HETATM    9  C   UNK N   1      -1.486  -1.940  -0.000  0.00  0.00     0.031 A 
HETATM   10  C   UNK N   1      -1.451  -3.332  -0.000  0.00  0.00     0.003 A 
HETATM   11  C   UNK N   1      -0.234  -4.000  -0.000  0.00  0.00     0.012 A 
HETATM   12  C   UNK N   1       0.957  -3.282  -0.000  0.00  0.00    -0.024 A 
HETATM   13  C   UNK N   1       0.944  -1.860   0.000  0.00  0.00     0.002 A 
HETATM   14  C   UNK N   1       2.169  -3.983  -0.000  0.00  0.00     0.012 A 
HETATM   15  C   UNK N   1       2.179  -1.206   0.000  0.00  0.00     0.014 A 
HETATM   16  C   UNK N   1       3.386  -1.903   0.000  0.00  0.00     0.001 A 
HETATM   17  C   UNK N   1       3.382  -3.294   0.000  0.00  0.00     0.001 A 
ENDBRANCH   4   8
BRANCH   1  18
HETATM   18  C   UNK N   1       0.812   3.792  -0.000  0.00  0.00     0.176 C 
BRANCH  18  19
HETATM   19  C   UNK N   1       0.434   5.242  -0.000  0.00  0.00    -0.040 A 
HETATM   20  C   UNK N   1       1.496   6.154  -0.000  0.00  0.00     0.009 A 
HETATM   21  C   UNK N   1       1.255   7.528  -0.000  0.00  0.00     0.001 A 
HETATM   22  C   UNK N   1      -0.058   8.002   0.000  0.00  0.00     0.000 A 
HETATM   23  C   UNK N   1      -1.124   7.099   0.000  0.00  0.00     0.001 A 
HETATM   24  C   UNK N   1      -0.875   5.725   0.000  0.00  0.00     0.009 A 
ENDBRANCH  18  19
ENDBRANCH   1  18
TORSDOF 3
