REMARK  5 active torsions:
REMARK  status: ('A' for Active; 'I' for Inactive)
REMARK    1  A    between atoms: C_12  and  C_9 
REMARK    2  A    between atoms: C_15  and  N_22 
REMARK    3  A    between atoms: C_17  and  N_24 
REMARK    4  A    between atoms: O_26  and  C_18 
REMARK    5  A    between atoms: O_27  and  C_19 
ROOT
HETATM    1  C   UNK N   1       3.244  -2.171  -0.290  0.00  0.00     0.069 C 
HETATM    2  C   UNK N   1       1.824  -1.875  -0.772  0.00  0.00     0.278 C 
HETATM    3  C   UNK N   1       5.451  -1.015  -0.071  0.00  0.00     0.047 A 
HETATM    4  C   UNK N   1       4.255   1.499  -0.191  0.00  0.00     0.049 A 
HETATM    5  C   UNK N   1       1.448   1.556   0.652  0.00  0.00     0.067 C 
HETATM    6  C   UNK N   1      -0.143  -0.634  -0.319  0.00  0.00     0.300 C 
HETATM    7  C   UNK N   1       4.063  -0.915  -0.180  0.00  0.00    -0.045 A 
HETATM    8  C   UNK N   1       3.457   0.354  -0.222  0.00  0.00    -0.016 A 
HETATM    9  C   UNK N   1      -0.049   1.770   0.440  0.00  0.00     0.101 C 
HETATM   10  C   UNK N   1       1.960   0.495  -0.328  0.00  0.00     0.258 C 
HETATM   11  C   UNK N   1      -0.809   0.423   0.582  0.00  0.00     0.137 C 
HETATM   12  C   UNK N   1       6.258   0.128  -0.006  0.00  0.00     0.102 A 
HETATM   13  C   UNK N   1       5.649   1.411  -0.073  0.00  0.00     0.102 A 
HETATM   14  N   UNK N   1       1.275  -0.768  -0.001  0.00  0.00     0.100 N 
ENDROOT
BRANCH  11  15
HETATM   15  N   UNK N   1      -2.236   0.448   0.255  0.00  0.00    -0.343 N 
HETATM   16  C   UNK N   1      -3.010  -0.757   0.350  0.00  0.00     0.134 C 
HETATM   17  C   UNK N   1      -4.447  -0.328   0.033  0.00  0.00     0.041 C 
HETATM   18  C   UNK N   1      -4.380   1.110  -0.500  0.00  0.00     0.111 C 
HETATM   19  C   UNK N   1      -2.982   1.475  -0.200  0.00  0.00     0.220 C 
HETATM   20  O   UNK N   1      -2.551   2.603  -0.388  0.00  0.00    -0.273 OA
BRANCH  17  21
HETATM   21  C   UNK N   1      -5.089  -1.263  -0.978  0.00  0.00     0.228 C 
HETATM   22  F   UNK N   1      -5.125  -2.553  -0.478  0.00  0.00    -0.255 F 
ENDBRANCH  17  21
ENDBRANCH  11  15
BRANCH   9  23
HETATM   23  N   UNK N   1      -0.519   2.733   1.423  0.00  0.00    -0.424 N 
HETATM   24  H   UNK N   1      -0.098   3.356   2.113  0.00  0.00     0.150 HD
HETATM   25  H   UNK N   1      -1.536   2.804   1.423  0.00  0.00     0.150 HD
ENDBRANCH   9  23
BRANCH  13  26
HETATM   26  O   UNK N   1       6.398   2.540  -0.016  0.00  0.00    -0.353 OA
HETATM   27  C   UNK N   1       5.860   3.808  -0.033  0.00  0.00     0.210 C 
ENDBRANCH  13  26
BRANCH  12  28
HETATM   28  O   UNK N   1       7.598  -0.058   0.121  0.00  0.00    -0.353 OA
HETATM   29  C   UNK N   1       8.533   0.942   0.264  0.00  0.00     0.210 C 
ENDBRANCH  12  28
TORSDOF 5
