REMARK  11 active torsions:
REMARK  status: ('A' for Active; 'I' for Inactive)
REMARK    1  A    between atoms: C_2  and  C_3 
REMARK    2  A    between atoms: C_3  and  C_4 
REMARK    3  A    between atoms: C_4  and  C_5 
REMARK    4  A    between atoms: C_4  and  N_24 
REMARK       I    between atoms: C_5  and  N_7 
REMARK    5  A    between atoms: N_7  and  C_8 
REMARK    6  A    between atoms: N_10  and  C_14 
REMARK    7  A    between atoms: C_14  and  C_17 
REMARK    8  A    between atoms: C_17  and  N_18 
REMARK    9  A    between atoms: N_18  and  C_19 
REMARK   10  A    between atoms: C_19  and  C_20 
REMARK   11  A    between atoms: C_25  and  N_24 
ROOT
HETATM    1  C   UNK N   1       4.591  -1.194  -2.008  0.00  0.00     0.245 C 
HETATM    2  O   UNK N   1       3.952  -1.485  -3.004  0.00  0.00    -0.271 OA
HETATM    3  N   UNK N   1       5.953  -1.165  -2.096  0.00  0.00    -0.310 N 
HETATM    4  H   UNK N   1       6.350  -1.502  -2.932  0.00  0.00     0.170 HD
ENDROOT
BRANCH   1   5
HETATM    5  C   UNK N   1       3.819  -0.977  -0.722  0.00  0.00     0.170 C 
BRANCH   5   6
HETATM    6  C   UNK N   1       4.131   0.310   0.029  0.00  0.00     0.034 C 
BRANCH   6   7
HETATM    7  C   UNK N   1       3.675   1.535  -0.725  0.00  0.00    -0.002 C 
HETATM    8  C   UNK N   1       3.914   2.746   0.151  0.00  0.00     0.005 C 
ENDBRANCH   6   7
ENDBRANCH   5   6
BRANCH   5   9
HETATM    9  N   UNK N   1       3.919  -2.127   0.178  0.00  0.00    -0.405 N 
HETATM   10  H   UNK N   1       4.766  -2.676   0.325  0.00  0.00     0.154 HD
BRANCH   9  11
HETATM   11  C   UNK N   1       2.628  -2.384   0.842  0.00  0.00     0.082 C 
HETATM   12  C   UNK N   1       1.678  -3.234  -0.022  0.00  0.00     0.029 C 
HETATM   13  C   UNK N   1       0.285  -3.258   0.609  0.00  0.00     0.041 C 
HETATM   14  C   UNK N   1      -0.239  -1.859   0.585  0.00  0.00    -0.046 A 
HETATM   15  C   UNK N   1      -1.533  -1.588   0.129  0.00  0.00     0.050 A 
HETATM   16  C   UNK N   1       0.605  -0.810   0.982  0.00  0.00    -0.011 A 
HETATM   17  C   UNK N   1      -1.989  -0.267   0.071  0.00  0.00     0.119 A 
HETATM   18  C   UNK N   1      -1.143   0.783   0.443  0.00  0.00     0.085 A 
HETATM   19  F   UNK N   1      -3.248  -0.002  -0.352  0.00  0.00    -0.206 F 
HETATM   20  C   UNK N   1       0.153   0.516   0.896  0.00  0.00     0.126 A 
HETATM   21  F   UNK N   1       0.966   1.544   1.242  0.00  0.00    -0.205 F 
HETATM   22  C   UNK N   1       1.994  -1.119   1.482  0.00  0.00     0.067 C 
ENDBRANCH   9  11
ENDBRANCH   5   9
ENDBRANCH   1   5
BRANCH   3  23
HETATM   23  C   UNK N   1       6.854  -0.699  -1.106  0.00  0.00     0.124 A 
HETATM   24  C   UNK N   1       6.921   0.581  -0.592  0.00  0.00     0.141 A 
HETATM   25  N   UNK N   1       7.967   0.611   0.255  0.00  0.00    -0.339 N 
HETATM   26  C   UNK N   1       8.538  -0.616   0.209  0.00  0.00     0.185 A 
HETATM   27  N   UNK N   1       7.877  -1.433  -0.635  0.00  0.00    -0.337 N 
ATOM     28  HN  UNK N   1       8.104  -2.400  -0.866  1.00  0.00     0.168 HD
BRANCH  25  29
HETATM   29  C   UNK N   1       8.441   1.761   1.045  0.00  0.00     0.046 C 
HETATM   30  C   UNK N   1       7.273   2.647   1.451  0.00  0.00     0.040 C 
HETATM   31  C   UNK N   1       9.097   1.292   2.338  0.00  0.00     0.040 C 
BRANCH  29  32
HETATM   32  C   UNK N   1       9.420   2.618   0.233  0.00  0.00     0.144 C 
BRANCH  32  33
HETATM   33  N   UNK N   1      10.482   1.827  -0.382  0.00  0.00    -0.418 N 
HETATM   34  H   UNK N   1      10.464   1.442  -1.327  0.00  0.00     0.153 HD
BRANCH  33  35
HETATM   35  C   UNK N   1      11.572   1.676   0.574  0.00  0.00     0.122 C 
BRANCH  35  36
HETATM   36  C   UNK N   1      12.819   1.102  -0.093  0.00  0.00    -0.036 C 
HETATM   37  C   UNK N   1      13.877   0.872   0.966  0.00  0.00     0.016 C 
HETATM   38  C   UNK N   1      13.359   2.080  -1.119  0.00  0.00     0.016 C 
HETATM   39  C   UNK N   1      12.512  -0.223  -0.767  0.00  0.00     0.016 C 
ENDBRANCH  35  36
ENDBRANCH  33  35
ENDBRANCH  32  33
ENDBRANCH  29  32
ENDBRANCH  25  29
ENDBRANCH   3  23
TORSDOF 11
