MODEL 1
REMARK VINA RESULT:      -7.8      0.000      0.000
REMARK  3 active torsions:
REMARK  status: ('A' for Active; 'I' for Inactive)
REMARK       I    between atoms: N_2  and  C_3 
REMARK    1  A    between atoms: C_3  and  C_5 
REMARK    2  A    between atoms: C_15  and  C_10 
REMARK    3  A    between atoms: C_15  and  O_24 
ROOT
HETATM    1  C   UNK N   1      21.797  19.513   3.531  0.00  0.00     0.032 A 
HETATM    2  C   UNK N   1      21.962  18.435   4.416  0.00  0.00     0.018 A 
HETATM    3  C   UNK N   1      23.229  18.037   4.834  0.00  0.00     0.013 A 
HETATM    4  C   UNK N   1      24.355  18.712   4.375  0.00  0.00    -0.025 A 
HETATM    5  C   UNK N   1      25.612  18.329   4.821  0.00  0.00     0.023 A 
HETATM    6  C   UNK N   1      26.763  19.018   4.413  0.00  0.00    -0.017 A 
HETATM    7  C   UNK N   1      26.630  20.099   3.524  0.00  0.00     0.011 A 
HETATM    8  C   UNK N   1      25.364  20.476   3.047  0.00  0.00     0.013 A 
HETATM    9  C   UNK N   1      24.221  19.794   3.482  0.00  0.00    -0.025 A 
HETATM   10  C   UNK N   1      22.944  20.188   3.063  0.00  0.00     0.029 A 
ENDROOT
BRANCH   6  11
HETATM   11  C   UNK N   1      28.113  18.655   5.001  0.00  0.00     0.130 A 
HETATM   12  C   UNK N   1      28.551  17.199   4.650  0.00  0.00     0.070 A 
HETATM   13  C   UNK N   1      28.842  16.451   5.981  0.00  0.00     0.133 A 
HETATM   14  N   UNK N   1      28.486  17.433   6.968  0.00  0.00    -0.342 N 
HETATM   15  C   UNK N   1      28.117  18.584   6.480  0.00  0.00     0.067 A 
HETATM   16  C   UNK N   1      28.425  17.513   8.302  0.00  0.00     0.183 A 
HETATM   17  C   UNK N   1      27.812  19.438   7.520  0.00  0.00     0.117 A 
HETATM   18  N   UNK N   1      28.004  18.749   8.673  0.00  0.00    -0.360 N 
ATOM     19  HN  UNK N   1      27.861  19.090   9.624  1.00  0.00     0.166 HD
BRANCH  11  20
HETATM   20  O   UNK N   1      29.079  19.563   4.562  0.00  0.00    -0.378 OA
HETATM   21  H   UNK N   1      29.322  20.366   4.077  0.00  0.00     0.211 HD
ENDBRANCH  11  20
ENDBRANCH   6  11
BRANCH   1  22
HETATM   22  C   UNK N   1      20.403  19.897   3.138  0.00  0.00     0.251 C 
HETATM   23  N   UNK N   1      19.626  19.171   2.290  0.00  0.00    -0.361 N 
HETATM   24  C   UNK N   1      20.026  17.952   1.635  0.00  0.00     0.149 C 
HETATM   25  H   UNK N   1      18.718  19.506   2.109  0.00  0.00     0.162 HD
HETATM   26  O   UNK N   1      19.938  20.930   3.599  0.00  0.00    -0.268 OA
ENDBRANCH   1  22
TORSDOF 3
ENDMDL
MODEL 2
REMARK VINA RESULT:      -7.7      3.790      9.060
REMARK  3 active torsions:
REMARK  status: ('A' for Active; 'I' for Inactive)
REMARK       I    between atoms: N_2  and  C_3 
REMARK    1  A    between atoms: C_3  and  C_5 
REMARK    2  A    between atoms: C_15  and  C_10 
REMARK    3  A    between atoms: C_15  and  O_24 
ROOT
HETATM    1  C   UNK N   1      33.132  17.835   7.945  0.00  0.00     0.032 A 
HETATM    2  C   UNK N   1      33.123  17.434   6.600  0.00  0.00     0.018 A 
HETATM    3  C   UNK N   1      31.929  17.152   5.943  0.00  0.00     0.013 A 
HETATM    4  C   UNK N   1      30.720  17.268   6.620  0.00  0.00    -0.025 A 
HETATM    5  C   UNK N   1      29.532  17.016   5.950  0.00  0.00     0.023 A 
HETATM    6  C   UNK N   1      28.294  17.169   6.591  0.00  0.00    -0.017 A 
HETATM    7  C   UNK N   1      28.271  17.566   7.939  0.00  0.00     0.011 A 
HETATM    8  C   UNK N   1      29.469  17.797   8.633  0.00  0.00     0.013 A 
HETATM    9  C   UNK N   1      30.698  17.664   7.973  0.00  0.00    -0.025 A 
HETATM   10  C   UNK N   1      31.903  17.942   8.629  0.00  0.00     0.029 A 
ENDROOT
BRANCH   6  11
HETATM   11  C   UNK N   1      27.007  16.998   5.808  0.00  0.00     0.130 A 
HETATM   12  C   UNK N   1      27.172  16.055   4.576  0.00  0.00     0.070 A 
HETATM   13  C   UNK N   1      26.715  16.832   3.310  0.00  0.00     0.133 A 
HETATM   14  N   UNK N   1      26.419  18.134   3.841  0.00  0.00    -0.342 N 
HETATM   15  C   UNK N   1      26.553  18.237   5.133  0.00  0.00     0.067 A 
HETATM   16  C   UNK N   1      26.024  19.323   3.373  0.00  0.00     0.183 A 
HETATM   17  C   UNK N   1      26.234  19.522   5.520  0.00  0.00     0.117 A 
HETATM   18  N   UNK N   1      25.905  20.207   4.396  0.00  0.00    -0.360 N 
ATOM     19  HN  UNK N   1      25.625  21.187   4.333  1.00  0.00     0.166 HD
BRANCH  11  20
HETATM   20  O   UNK N   1      26.002  16.515   6.648  0.00  0.00    -0.378 OA
HETATM   21  H   UNK N   1      25.679  16.296   7.535  0.00  0.00     0.211 HD
ENDBRANCH  11  20
ENDBRANCH   6  11
BRANCH   1  22
HETATM   22  C   UNK N   1      34.454  18.139   8.583  0.00  0.00     0.251 C 
HETATM   23  N   UNK N   1      35.072  17.319   9.475  0.00  0.00    -0.361 N 
HETATM   24  C   UNK N   1      34.551  16.064   9.950  0.00  0.00     0.149 C 
HETATM   25  H   UNK N   1      35.947  17.608   9.824  0.00  0.00     0.162 HD
HETATM   26  O   UNK N   1      35.005  19.191   8.293  0.00  0.00    -0.268 OA
ENDBRANCH   1  22
TORSDOF 3
ENDMDL
MODEL 3
REMARK VINA RESULT:      -7.3      5.276      8.450
REMARK  3 active torsions:
REMARK  status: ('A' for Active; 'I' for Inactive)
REMARK       I    between atoms: N_2  and  C_3 
REMARK    1  A    between atoms: C_3  and  C_5 
REMARK    2  A    between atoms: C_15  and  C_10 
REMARK    3  A    between atoms: C_15  and  O_24 
ROOT
HETATM    1  C   UNK N   1      21.226  13.211   9.430  0.00  0.00     0.032 A 
HETATM    2  C   UNK N   1      21.668  12.449   8.336  0.00  0.00     0.018 A 
HETATM    3  C   UNK N   1      21.853  13.030   7.084  0.00  0.00     0.013 A 
HETATM    4  C   UNK N   1      21.599  14.386   6.905  0.00  0.00    -0.025 A 
HETATM    5  C   UNK N   1      21.816  14.964   5.662  0.00  0.00     0.023 A 
HETATM    6  C   UNK N   1      21.615  16.337   5.459  0.00  0.00    -0.017 A 
HETATM    7  C   UNK N   1      21.169  17.125   6.535  0.00  0.00     0.011 A 
HETATM    8  C   UNK N   1      20.921  16.543   7.789  0.00  0.00     0.013 A 
HETATM    9  C   UNK N   1      21.149  15.174   7.983  0.00  0.00    -0.025 A 
HETATM   10  C   UNK N   1      20.962  14.583   9.238  0.00  0.00     0.029 A 
ENDROOT
BRANCH   6  11
HETATM   11  C   UNK N   1      21.966  16.967   4.126  0.00  0.00     0.130 A 
HETATM   12  C   UNK N   1      22.994  18.132   4.262  0.00  0.00     0.070 A 
HETATM   13  C   UNK N   1      22.372  19.400   3.612  0.00  0.00     0.133 A 
HETATM   14  N   UNK N   1      21.061  18.942   3.243  0.00  0.00    -0.342 N 
HETATM   15  C   UNK N   1      20.836  17.683   3.490  0.00  0.00     0.067 A 
HETATM   16  C   UNK N   1      19.957  19.457   2.690  0.00  0.00     0.183 A 
HETATM   17  C   UNK N   1      19.556  17.365   3.086  0.00  0.00     0.117 A 
HETATM   18  N   UNK N   1      19.002  18.498   2.585  0.00  0.00    -0.360 N 
ATOM     19  HN  UNK N   1      18.061  18.606   2.206  1.00  0.00     0.166 HD
BRANCH  11  20
HETATM   20  O   UNK N   1      22.463  15.991   3.259  0.00  0.00    -0.378 OA
HETATM   21  H   UNK N   1      23.170  15.650   2.690  0.00  0.00     0.211 HD
ENDBRANCH  11  20
ENDBRANCH   6  11
BRANCH   1  22
HETATM   22  C   UNK N   1      21.066  12.522  10.751  0.00  0.00     0.251 C 
HETATM   23  N   UNK N   1      22.105  12.035  11.483  0.00  0.00    -0.361 N 
HETATM   24  C   UNK N   1      23.490  12.087  11.097  0.00  0.00     0.149 C 
HETATM   25  H   UNK N   1      21.890  11.612  12.346  0.00  0.00     0.162 HD
HETATM   26  O   UNK N   1      19.936  12.381  11.195  0.00  0.00    -0.268 OA
ENDBRANCH   1  22
TORSDOF 3
ENDMDL
MODEL 4
REMARK VINA RESULT:      -7.3      3.932      9.235
REMARK  3 active torsions:
REMARK  status: ('A' for Active; 'I' for Inactive)
REMARK       I    between atoms: N_2  and  C_3 
REMARK    1  A    between atoms: C_3  and  C_5 
REMARK    2  A    between atoms: C_15  and  C_10 
REMARK    3  A    between atoms: C_15  and  O_24 
ROOT
HETATM    1  C   UNK N   1      33.470  17.800   7.835  0.00  0.00     0.032 A 
HETATM    2  C   UNK N   1      33.679  17.454   6.490  0.00  0.00     0.018 A 
HETATM    3  C   UNK N   1      32.609  17.151   5.652  0.00  0.00     0.013 A 
HETATM    4  C   UNK N   1      31.309  17.191   6.145  0.00  0.00    -0.025 A 
HETATM    5  C   UNK N   1      30.246  16.919   5.295  0.00  0.00     0.023 A 
HETATM    6  C   UNK N   1      28.921  16.997   5.748  0.00  0.00    -0.017 A 
HETATM    7  C   UNK N   1      28.680  17.338   7.091  0.00  0.00     0.011 A 
HETATM    8  C   UNK N   1      29.751  17.589   7.964  0.00  0.00     0.013 A 
HETATM    9  C   UNK N   1      31.069  17.531   7.491  0.00  0.00    -0.025 A 
HETATM   10  C   UNK N   1      32.149  17.831   8.330  0.00  0.00     0.029 A 
ENDROOT
BRANCH   6  11
HETATM   11  C   UNK N   1      27.774  16.807   4.776  0.00  0.00     0.130 A 
HETATM   12  C   UNK N   1      27.015  18.135   4.473  0.00  0.00     0.070 A 
HETATM   13  C   UNK N   1      25.511  17.916   4.801  0.00  0.00     0.133 A 
HETATM   14  N   UNK N   1      25.507  16.580   5.332  0.00  0.00    -0.342 N 
HETATM   15  C   UNK N   1      26.666  15.986   5.316  0.00  0.00     0.067 A 
HETATM   16  C   UNK N   1      24.616  15.731   5.856  0.00  0.00     0.183 A 
HETATM   17  C   UNK N   1      26.530  14.716   5.839  0.00  0.00     0.117 A 
HETATM   18  N   UNK N   1      25.226  14.564   6.185  0.00  0.00    -0.360 N 
ATOM     19  HN  UNK N   1      24.794  13.741   6.607  1.00  0.00     0.166 HD
BRANCH  11  20
HETATM   20  O   UNK N   1      28.250  16.247   3.588  0.00  0.00    -0.378 OA
HETATM   21  H   UNK N   1      28.177  15.592   2.877  0.00  0.00     0.211 HD
ENDBRANCH  11  20
ENDBRANCH   6  11
BRANCH   1  22
HETATM   22  C   UNK N   1      34.667  18.131   8.673  0.00  0.00     0.251 C 
HETATM   23  N   UNK N   1      35.148  17.327   9.660  0.00  0.00    -0.361 N 
HETATM   24  C   UNK N   1      34.577  16.066  10.057  0.00  0.00     0.149 C 
HETATM   25  H   UNK N   1      35.950  17.633  10.143  0.00  0.00     0.162 HD
HETATM   26  O   UNK N   1      35.242  19.190   8.466  0.00  0.00    -0.268 OA
ENDBRANCH   1  22
TORSDOF 3
ENDMDL
MODEL 5
REMARK VINA RESULT:      -7.2      4.438      6.892
REMARK  3 active torsions:
REMARK  status: ('A' for Active; 'I' for Inactive)
REMARK       I    between atoms: N_2  and  C_3 
REMARK    1  A    between atoms: C_3  and  C_5 
REMARK    2  A    between atoms: C_15  and  C_10 
REMARK    3  A    between atoms: C_15  and  O_24 
ROOT
HETATM    1  C   UNK N   1      27.975  18.324   5.735  0.00  0.00     0.032 A 
HETATM    2  C   UNK N   1      28.106  17.797   7.030  0.00  0.00     0.018 A 
HETATM    3  C   UNK N   1      29.289  17.189   7.442  0.00  0.00     0.013 A 
HETATM    4  C   UNK N   1      30.364  17.098   6.564  0.00  0.00    -0.025 A 
HETATM    5  C   UNK N   1      31.550  16.519   6.992  0.00  0.00     0.023 A 
HETATM    6  C   UNK N   1      32.668  16.453   6.147  0.00  0.00    -0.017 A 
HETATM    7  C   UNK N   1      32.566  16.969   4.843  0.00  0.00     0.011 A 
HETATM    8  C   UNK N   1      31.361  17.533   4.393  0.00  0.00     0.013 A 
HETATM    9  C   UNK N   1      30.260  17.613   5.256  0.00  0.00    -0.025 A 
HETATM   10  C   UNK N   1      29.067  18.221   4.847  0.00  0.00     0.029 A 
ENDROOT
BRANCH   6  11
HETATM   11  C   UNK N   1      33.986  15.920   6.672  0.00  0.00     0.130 A 
HETATM   12  C   UNK N   1      33.910  14.414   7.073  0.00  0.00     0.070 A 
HETATM   13  C   UNK N   1      34.366  14.287   8.553  0.00  0.00     0.133 A 
HETATM   14  N   UNK N   1      34.577  15.658   8.927  0.00  0.00    -0.342 N 
HETATM   15  C   UNK N   1      34.397  16.517   7.964  0.00  0.00     0.067 A 
HETATM   16  C   UNK N   1      34.926  16.338  10.025  0.00  0.00     0.183 A 
HETATM   17  C   UNK N   1      34.637  17.788   8.442  0.00  0.00     0.117 A 
HETATM   18  N   UNK N   1      34.966  17.667   9.753  0.00  0.00    -0.360 N 
ATOM     19  HN  UNK N   1      35.196  18.421  10.401  1.00  0.00     0.166 HD
BRANCH  11  20
HETATM   20  O   UNK N   1      34.987  16.110   5.717  0.00  0.00    -0.378 OA
HETATM   21  H   UNK N   1      35.300  16.053   4.801  0.00  0.00     0.211 HD
ENDBRANCH  11  20
ENDBRANCH   6  11
BRANCH   1  22
HETATM   22  C   UNK N   1      26.679  18.980   5.368  0.00  0.00     0.251 C 
HETATM   23  N   UNK N   1      26.424  20.306   5.540  0.00  0.00    -0.361 N 
HETATM   24  C   UNK N   1      27.338  21.261   6.110  0.00  0.00     0.149 C 
HETATM   25  H   UNK N   1      25.543  20.638   5.251  0.00  0.00     0.162 HD
HETATM   26  O   UNK N   1      25.794  18.283   4.894  0.00  0.00    -0.268 OA
ENDBRANCH   1  22
TORSDOF 3
ENDMDL
MODEL 6
REMARK VINA RESULT:      -7.0      4.322      6.857
REMARK  3 active torsions:
REMARK  status: ('A' for Active; 'I' for Inactive)
REMARK       I    between atoms: N_2  and  C_3 
REMARK    1  A    between atoms: C_3  and  C_5 
REMARK    2  A    between atoms: C_15  and  C_10 
REMARK    3  A    between atoms: C_15  and  O_24 
ROOT
HETATM    1  C   UNK N   1      27.684  18.641   5.660  0.00  0.00     0.032 A 
HETATM    2  C   UNK N   1      28.516  18.293   4.583  0.00  0.00     0.018 A 
HETATM    3  C   UNK N   1      29.749  17.683   4.796  0.00  0.00     0.013 A 
HETATM    4  C   UNK N   1      30.172  17.407   6.092  0.00  0.00    -0.025 A 
HETATM    5  C   UNK N   1      31.387  16.769   6.295  0.00  0.00     0.023 A 
HETATM    6  C   UNK N   1      31.822  16.436   7.586  0.00  0.00    -0.017 A 
HETATM    7  C   UNK N   1      31.012  16.774   8.685  0.00  0.00     0.011 A 
HETATM    8  C   UNK N   1      29.793  17.443   8.490  0.00  0.00     0.013 A 
HETATM    9  C   UNK N   1      29.361  17.749   7.193  0.00  0.00    -0.025 A 
HETATM   10  C   UNK N   1      28.123  18.366   6.972  0.00  0.00     0.029 A 
ENDROOT
BRANCH   6  11
HETATM   11  C   UNK N   1      33.098  15.639   7.775  0.00  0.00     0.130 A 
HETATM   12  C   UNK N   1      32.829  14.157   8.180  0.00  0.00     0.070 A 
HETATM   13  C   UNK N   1      33.590  13.875   9.506  0.00  0.00     0.133 A 
HETATM   14  N   UNK N   1      34.145  15.163   9.819  0.00  0.00    -0.342 N 
HETATM   15  C   UNK N   1      33.911  16.086   8.930  0.00  0.00     0.067 A 
HETATM   16  C   UNK N   1      34.869  15.712  10.802  0.00  0.00     0.183 A 
HETATM   17  C   UNK N   1      34.500  17.265   9.337  0.00  0.00     0.117 A 
HETATM   18  N   UNK N   1      35.101  17.021  10.529  0.00  0.00    -0.360 N 
ATOM     19  HN  UNK N   1      35.620  17.686  11.103  1.00  0.00     0.166 HD
BRANCH  11  20
HETATM   20  O   UNK N   1      33.860  15.684   6.607  0.00  0.00    -0.378 OA
HETATM   21  H   UNK N   1      33.937  15.858   5.656  0.00  0.00     0.211 HD
ENDBRANCH  11  20
ENDBRANCH   6  11
BRANCH   1  22
HETATM   22  C   UNK N   1      26.363  19.279   5.355  0.00  0.00     0.251 C 
HETATM   23  N   UNK N   1      26.098  20.601   5.542  0.00  0.00    -0.361 N 
HETATM   24  C   UNK N   1      27.024  21.568   6.071  0.00  0.00     0.149 C 
HETATM   25  H   UNK N   1      25.200  20.921   5.295  0.00  0.00     0.162 HD
HETATM   26  O   UNK N   1      25.467  18.570   4.922  0.00  0.00    -0.268 OA
ENDBRANCH   1  22
TORSDOF 3
ENDMDL
MODEL 7
REMARK VINA RESULT:      -7.0      7.390     10.896
REMARK  3 active torsions:
REMARK  status: ('A' for Active; 'I' for Inactive)
REMARK       I    between atoms: N_2  and  C_3 
REMARK    1  A    between atoms: C_3  and  C_5 
REMARK    2  A    between atoms: C_15  and  C_10 
REMARK    3  A    between atoms: C_15  and  O_24 
ROOT
HETATM    1  C   UNK N   1      31.303  16.856   7.272  0.00  0.00     0.032 A 
HETATM    2  C   UNK N   1      32.119  17.943   7.629  0.00  0.00     0.018 A 
HETATM    3  C   UNK N   1      33.267  17.757   8.395  0.00  0.00     0.013 A 
HETATM    4  C   UNK N   1      33.621  16.480   8.816  0.00  0.00    -0.025 A 
HETATM    5  C   UNK N   1      34.784  16.300   9.552  0.00  0.00     0.023 A 
HETATM    6  C   UNK N   1      35.194  15.020   9.952  0.00  0.00    -0.017 A 
HETATM    7  C   UNK N   1      34.396  13.913   9.613  0.00  0.00     0.011 A 
HETATM    8  C   UNK N   1      33.204  14.089   8.892  0.00  0.00     0.013 A 
HETATM    9  C   UNK N   1      32.819  15.371   8.478  0.00  0.00    -0.025 A 
HETATM   10  C   UNK N   1      31.664  15.565   7.710  0.00  0.00     0.029 A 
ENDROOT
BRANCH   6  11
HETATM   11  C   UNK N   1      36.523  14.834  10.656  0.00  0.00     0.130 A 
HETATM   12  C   UNK N   1      37.527  13.972   9.830  0.00  0.00     0.070 A 
HETATM   13  C   UNK N   1      37.979  12.778  10.718  0.00  0.00     0.133 A 
HETATM   14  N   UNK N   1      37.185  12.960  11.901  0.00  0.00    -0.342 N 
HETATM   15  C   UNK N   1      36.434  14.025  11.893  0.00  0.00     0.067 A 
HETATM   16  C   UNK N   1      36.988  12.326  13.063  0.00  0.00     0.183 A 
HETATM   17  C   UNK N   1      35.732  14.092  13.079  0.00  0.00     0.117 A 
HETATM   18  N   UNK N   1      36.085  13.007  13.814  0.00  0.00    -0.360 N 
ATOM     19  HN  UNK N   1      35.741  12.754  14.741  1.00  0.00     0.166 HD
BRANCH  11  20
HETATM   20  O   UNK N   1      37.086  16.081  10.939  0.00  0.00    -0.378 OA
HETATM   21  H   UNK N   1      37.515  16.899  10.644  0.00  0.00     0.211 HD
ENDBRANCH  11  20
ENDBRANCH   6  11
BRANCH   1  22
HETATM   22  C   UNK N   1      30.093  17.128   6.432  0.00  0.00     0.251 C 
HETATM   23  N   UNK N   1      28.860  17.395   6.942  0.00  0.00    -0.361 N 
HETATM   24  C   UNK N   1      28.531  17.437   8.343  0.00  0.00     0.149 C 
HETATM   25  H   UNK N   1      28.134  17.574   6.301  0.00  0.00     0.162 HD
HETATM   26  O   UNK N   1      30.216  17.098   5.216  0.00  0.00    -0.268 OA
ENDBRANCH   1  22
TORSDOF 3
ENDMDL
MODEL 8
REMARK VINA RESULT:      -6.9     14.579     17.850
REMARK  3 active torsions:
REMARK  status: ('A' for Active; 'I' for Inactive)
REMARK       I    between atoms: N_2  and  C_3 
REMARK    1  A    between atoms: C_3  and  C_5 
REMARK    2  A    between atoms: C_15  and  C_10 
REMARK    3  A    between atoms: C_15  and  O_24 
ROOT
HETATM    1  C   UNK N   1      35.118  11.104  19.106  0.00  0.00     0.032 A 
HETATM    2  C   UNK N   1      35.205  12.471  18.794  0.00  0.00     0.018 A 
HETATM    3  C   UNK N   1      35.238  12.903  17.471  0.00  0.00     0.013 A 
HETATM    4  C   UNK N   1      35.183  11.976  16.436  0.00  0.00    -0.025 A 
HETATM    5  C   UNK N   1      35.184  12.417  15.120  0.00  0.00     0.023 A 
HETATM    6  C   UNK N   1      35.082  11.511  14.054  0.00  0.00    -0.017 A 
HETATM    7  C   UNK N   1      34.997  10.136  14.336  0.00  0.00     0.011 A 
HETATM    8  C   UNK N   1      35.022   9.680  15.664  0.00  0.00     0.013 A 
HETATM    9  C   UNK N   1      35.100  10.598  16.719  0.00  0.00    -0.025 A 
HETATM   10  C   UNK N   1      35.071  10.169  18.052  0.00  0.00     0.029 A 
ENDROOT
BRANCH   6  11
HETATM   11  C   UNK N   1      34.971  12.023  12.632  0.00  0.00     0.130 A 
HETATM   12  C   UNK N   1      34.405  10.952  11.649  0.00  0.00     0.070 A 
HETATM   13  C   UNK N   1      35.426  10.776  10.489  0.00  0.00     0.133 A 
HETATM   14  N   UNK N   1      36.501  11.638  10.896  0.00  0.00    -0.342 N 
HETATM   15  C   UNK N   1      36.280  12.300  11.996  0.00  0.00     0.067 A 
HETATM   16  C   UNK N   1      37.717  11.975  10.449  0.00  0.00     0.183 A 
HETATM   17  C   UNK N   1      37.375  13.093  12.273  0.00  0.00     0.117 A 
HETATM   18  N   UNK N   1      38.285  12.876  11.290  0.00  0.00    -0.360 N 
ATOM     19  HN  UNK N   1      39.207  13.303  11.202  1.00  0.00     0.166 HD
BRANCH  11  20
HETATM   20  O   UNK N   1      34.173  13.168  12.602  0.00  0.00    -0.378 OA
HETATM   21  H   UNK N   1      33.319  13.595  12.437  0.00  0.00     0.211 HD
ENDBRANCH  11  20
ENDBRANCH   6  11
BRANCH   1  22
HETATM   22  C   UNK N   1      35.069  10.712  20.552  0.00  0.00     0.251 C 
HETATM   23  N   UNK N   1      36.159  10.330  21.271  0.00  0.00    -0.361 N 
HETATM   24  C   UNK N   1      37.500  10.226  20.758  0.00  0.00     0.149 C 
HETATM   25  H   UNK N   1      36.019  10.106  22.220  0.00  0.00     0.162 HD
HETATM   26  O   UNK N   1      33.986  10.727  21.117  0.00  0.00    -0.268 OA
ENDBRANCH   1  22
TORSDOF 3
ENDMDL
MODEL 9
REMARK VINA RESULT:      -6.7     10.563     13.371
REMARK  3 active torsions:
REMARK  status: ('A' for Active; 'I' for Inactive)
REMARK       I    between atoms: N_2  and  C_3 
REMARK    1  A    between atoms: C_3  and  C_5 
REMARK    2  A    between atoms: C_15  and  C_10 
REMARK    3  A    between atoms: C_15  and  O_24 
ROOT
HETATM    1  C   UNK N   1      32.809  20.481  -4.241  0.00  0.00     0.032 A 
HETATM    2  C   UNK N   1      32.156  20.479  -5.484  0.00  0.00     0.018 A 
HETATM    3  C   UNK N   1      30.989  21.213  -5.683  0.00  0.00     0.013 A 
HETATM    4  C   UNK N   1      30.456  21.965  -4.641  0.00  0.00    -0.025 A 
HETATM    5  C   UNK N   1      29.312  22.718  -4.857  0.00  0.00     0.023 A 
HETATM    6  C   UNK N   1      28.775  23.523  -3.841  0.00  0.00    -0.017 A 
HETATM    7  C   UNK N   1      29.405  23.543  -2.585  0.00  0.00     0.011 A 
HETATM    8  C   UNK N   1      30.549  22.763  -2.350  0.00  0.00     0.013 A 
HETATM    9  C   UNK N   1      31.087  21.982  -3.381  0.00  0.00    -0.025 A 
HETATM   10  C   UNK N   1      32.258  21.239  -3.186  0.00  0.00     0.029 A 
ENDROOT
BRANCH   6  11
HETATM   11  C   UNK N   1      27.592  24.425  -4.133  0.00  0.00     0.130 A 
HETATM   12  C   UNK N   1      26.719  23.910  -5.319  0.00  0.00     0.070 A 
HETATM   13  C   UNK N   1      26.623  25.047  -6.375  0.00  0.00     0.133 A 
HETATM   14  N   UNK N   1      27.473  26.059  -5.811  0.00  0.00    -0.342 N 
HETATM   15  C   UNK N   1      27.974  25.761  -4.645  0.00  0.00     0.067 A 
HETATM   16  C   UNK N   1      27.914  27.276  -6.149  0.00  0.00     0.183 A 
HETATM   17  C   UNK N   1      28.758  26.808  -4.210  0.00  0.00     0.117 A 
HETATM   18  N   UNK N   1      28.720  27.764  -5.172  0.00  0.00    -0.360 N 
ATOM     19  HN  UNK N   1      29.199  28.665  -5.163  1.00  0.00     0.166 HD
BRANCH  11  20
HETATM   20  O   UNK N   1      26.806  24.559  -2.986  0.00  0.00    -0.378 OA
HETATM   21  H   UNK N   1      26.726  24.724  -2.034  0.00  0.00     0.211 HD
ENDBRANCH  11  20
ENDBRANCH   6  11
BRANCH   1  22
HETATM   22  C   UNK N   1      34.069  19.682  -4.105  0.00  0.00     0.251 C 
HETATM   23  N   UNK N   1      35.318  20.208  -4.228  0.00  0.00    -0.361 N 
HETATM   24  C   UNK N   1      35.615  21.585  -4.523  0.00  0.00     0.149 C 
HETATM   25  H   UNK N   1      36.081  19.596  -4.106  0.00  0.00     0.162 HD
HETATM   26  O   UNK N   1      33.971  18.485  -3.879  0.00  0.00    -0.268 OA
ENDBRANCH   1  22
TORSDOF 3
ENDMDL
