MODEL 1
REMARK VINA RESULT:      -9.4      0.000      0.000
REMARK  6 active torsions:
REMARK  status: ('A' for Active; 'I' for Inactive)
REMARK    1  A    between atoms: C_6  and  C_12 
REMARK    2  A    between atoms: N_16  and  C_18 
REMARK    3  A    between atoms: C_18  and  C_42 
REMARK    4  A    between atoms: N_20  and  C_22 
REMARK       I    between atoms: N_25  and  C_28 
REMARK    5  A    between atoms: C_28  and  C_30 
REMARK    6  A    between atoms: C_35  and  C_38 
ROOT
HETATM    1  C   UNK N   1      21.268  17.600   4.847  0.00  0.00     0.160 C 
HETATM    2  C   UNK N   1      21.120  18.262   6.152  0.00  0.00     0.061 C 
HETATM    3  N   UNK N   1      21.004  18.755   7.192  0.00  0.00    -0.197 NA
ENDROOT
BRANCH   1   4
HETATM    4  C   UNK N   1      22.517  16.720   4.793  0.00  0.00     0.117 C 
HETATM    5  C   UNK N   1      23.846  17.410   5.129  0.00  0.00     0.308 C 
HETATM    6  N   UNK N   1      24.484  16.597   4.096  0.00  0.00     0.098 N 
HETATM    7  C   UNK N   1      23.189  16.468   3.448  0.00  0.00     0.308 C 
BRANCH   4   8
HETATM    8  N   UNK N   1      22.446  15.414   5.486  0.00  0.00    -0.288 N 
HETATM    9  N   UNK N   1      22.597  14.229   4.909  0.00  0.00    -0.308 N 
HETATM   10  C   UNK N   1      22.895  13.323   5.874  0.00  0.00     0.122 A 
ATOM     11  HN  UNK N   1      22.504  14.034   3.913  1.00  0.00     0.186 HD
HETATM   12  C   UNK N   1      22.962  13.999   7.084  0.00  0.00     0.026 A 
HETATM   13  C   UNK N   1      22.668  15.297   6.809  0.00  0.00     0.126 A 
BRANCH  12  14
HETATM   14  C   UNK N   1      23.442  13.568   8.411  0.00  0.00     0.060 A 
HETATM   15  C   UNK N   1      22.605  13.102   9.420  0.00  0.00     0.037 A 
HETATM   16  C   UNK N   1      23.138  12.671  10.592  0.00  0.00     0.118 A 
HETATM   17  C   UNK N   1      21.240  12.959   9.509  0.00  0.00     0.034 A 
HETATM   18  N   UNK N   1      22.189  12.259  11.441  0.00  0.00    -0.352 N 
HETATM   19  N   UNK N   1      24.471  12.666  10.829  0.00  0.00    -0.338 N 
HETATM   20  C   UNK N   1      21.014  12.433  10.785  0.00  0.00     0.090 A 
HETATM   21  H   UNK N   1      22.317  11.904  12.350  0.00  0.00     0.166 HD
HETATM   22  C   UNK N   1      25.303  13.118   9.848  0.00  0.00     0.182 A 
ATOM     23  HN  UNK N   1      24.843  12.333  11.719  1.00  0.00     0.168 HD
HETATM   24  N   UNK N   1      24.790  13.562   8.658  0.00  0.00    -0.351 N 
ATOM     25  HN  UNK N   1      25.428  13.896   7.935  1.00  0.00     0.166 HD
ENDBRANCH  12  14
ENDBRANCH   4   8
BRANCH   6  26
HETATM   26  C   UNK N   1      25.632  17.041   3.322  0.00  0.00     0.226 C 
HETATM   27  C   UNK N   1      26.707  17.771   4.130  0.00  0.00     0.055 C 
HETATM   28  C   UNK N   1      28.080  17.264   3.721  0.00  0.00     0.128 C 
HETATM   29  N   UNK N   1      28.100  15.829   3.954  0.00  0.00    -0.348 N 
HETATM   30  C   UNK N   1      27.179  14.988   3.210  0.00  0.00     0.128 C 
HETATM   31  C   UNK N   1      28.787  15.342   5.026  0.00  0.00     0.257 C 
HETATM   32  C   UNK N   1      26.150  15.855   2.464  0.00  0.00     0.055 C 
HETATM   33  O   UNK N   1      28.714  14.160   5.336  0.00  0.00    -0.267 OA
BRANCH  31  34
HETATM   34  C   UNK N   1      29.426  16.308   5.927  0.00  0.00     0.074 A 
HETATM   35  C   UNK N   1      30.809  16.464   5.835  0.00  0.00     0.037 A 
HETATM   36  C   UNK N   1      31.489  17.151   6.835  0.00  0.00     0.089 A 
HETATM   37  N   UNK N   1      30.812  17.645   7.904  0.00  0.00    -0.359 N 
HETATM   38  C   UNK N   1      29.461  17.513   8.024  0.00  0.00     0.156 A 
ATOM     39  HN  UNK N   1      31.330  18.128   8.637  1.00  0.00     0.165 HD
HETATM   40  C   UNK N   1      28.738  16.832   7.030  0.00  0.00     0.163 A 
HETATM   41  F   UNK N   1      27.399  16.640   7.158  0.00  0.00    -0.203 F 
BRANCH  38  42
HETATM   42  C   UNK N   1      28.768  18.064   9.235  0.00  0.00     0.435 C 
HETATM   43  F   UNK N   1      28.193  17.030   9.948  0.00  0.00    -0.165 F 
HETATM   44  F   UNK N   1      29.676  18.728  10.040  0.00  0.00    -0.165 F 
HETATM   45  F   UNK N   1      27.777  18.954   8.857  0.00  0.00    -0.165 F 
ENDBRANCH  38  42
ENDBRANCH  31  34
ENDBRANCH   6  26
ENDBRANCH   1   4
TORSDOF 6
ENDMDL
MODEL 2
REMARK VINA RESULT:      -8.2      1.750      2.459
REMARK  6 active torsions:
REMARK  status: ('A' for Active; 'I' for Inactive)
REMARK    1  A    between atoms: C_6  and  C_12 
REMARK    2  A    between atoms: N_16  and  C_18 
REMARK    3  A    between atoms: C_18  and  C_42 
REMARK    4  A    between atoms: N_20  and  C_22 
REMARK       I    between atoms: N_25  and  C_28 
REMARK    5  A    between atoms: C_28  and  C_30 
REMARK    6  A    between atoms: C_35  and  C_38 
ROOT
HETATM    1  C   UNK N   1      23.186  14.535   3.236  0.00  0.00     0.160 C 
HETATM    2  C   UNK N   1      22.303  15.711   3.225  0.00  0.00     0.061 C 
HETATM    3  N   UNK N   1      21.607  16.636   3.247  0.00  0.00    -0.197 NA
ENDROOT
BRANCH   1   4
HETATM    4  C   UNK N   1      24.449  14.779   4.063  0.00  0.00     0.117 C 
HETATM    5  C   UNK N   1      24.977  16.220   4.082  0.00  0.00     0.308 C 
HETATM    6  N   UNK N   1      26.335  15.682   4.063  0.00  0.00     0.098 N 
HETATM    7  C   UNK N   1      25.809  14.475   3.445  0.00  0.00     0.308 C 
BRANCH   4   8
HETATM    8  N   UNK N   1      24.470  14.225   5.435  0.00  0.00    -0.288 N 
HETATM    9  N   UNK N   1      25.448  14.388   6.315  0.00  0.00    -0.308 N 
HETATM   10  C   UNK N   1      24.954  14.128   7.552  0.00  0.00     0.122 A 
ATOM     11  HN  UNK N   1      26.406  14.662   6.099  1.00  0.00     0.186 HD
HETATM   12  C   UNK N   1      23.606  13.827   7.414  0.00  0.00     0.026 A 
HETATM   13  C   UNK N   1      23.339  13.887   6.083  0.00  0.00     0.126 A 
BRANCH  12  14
HETATM   14  C   UNK N   1      22.540  13.669   8.422  0.00  0.00     0.060 A 
HETATM   15  C   UNK N   1      22.665  12.880   9.560  0.00  0.00     0.037 A 
HETATM   16  C   UNK N   1      21.654  12.836  10.465  0.00  0.00     0.118 A 
HETATM   17  C   UNK N   1      23.672  12.065  10.024  0.00  0.00     0.034 A 
HETATM   18  N   UNK N   1      21.949  12.032  11.492  0.00  0.00    -0.352 N 
HETATM   19  N   UNK N   1      20.510  13.543  10.314  0.00  0.00    -0.338 N 
HETATM   20  C   UNK N   1      23.190  11.549  11.232  0.00  0.00     0.090 A 
HETATM   21  H   UNK N   1      21.384  11.832  12.274  0.00  0.00     0.166 HD
HETATM   22  C   UNK N   1      20.373  14.323   9.203  0.00  0.00     0.182 A 
ATOM     23  HN  UNK N   1      19.767  13.493  11.013  1.00  0.00     0.168 HD
HETATM   24  N   UNK N   1      21.378  14.381   8.274  0.00  0.00    -0.351 N 
ATOM     25  HN  UNK N   1      21.258  14.970   7.449  1.00  0.00     0.166 HD
ENDBRANCH  12  14
ENDBRANCH   4   8
BRANCH   6  26
HETATM   26  C   UNK N   1      27.461  16.368   3.451  0.00  0.00     0.226 C 
HETATM   27  C   UNK N   1      28.215  17.320   4.382  0.00  0.00     0.055 C 
HETATM   28  C   UNK N   1      29.711  17.130   4.197  0.00  0.00     0.128 C 
HETATM   29  N   UNK N   1      30.011  15.735   4.480  0.00  0.00    -0.348 N 
HETATM   30  C   UNK N   1      29.420  14.709   3.639  0.00  0.00     0.128 C 
HETATM   31  C   UNK N   1      30.617  15.414   5.658  0.00  0.00     0.257 C 
HETATM   32  C   UNK N   1      28.350  15.326   2.720  0.00  0.00     0.055 C 
HETATM   33  O   UNK N   1      30.759  14.246   5.994  0.00  0.00    -0.267 OA
BRANCH  31  34
HETATM   34  C   UNK N   1      30.886  16.499   6.609  0.00  0.00     0.074 A 
HETATM   35  C   UNK N   1      32.210  16.902   6.777  0.00  0.00     0.037 A 
HETATM   36  C   UNK N   1      32.547  17.721   7.848  0.00  0.00     0.089 A 
HETATM   37  N   UNK N   1      31.595  18.107   8.737  0.00  0.00    -0.359 N 
HETATM   38  C   UNK N   1      30.290  17.734   8.602  0.00  0.00     0.156 A 
ATOM     39  HN  UNK N   1      31.864  18.692   9.528  1.00  0.00     0.165 HD
HETATM   40  C   UNK N   1      29.911  16.913   7.527  0.00  0.00     0.163 A 
HETATM   41  F   UNK N   1      28.627  16.484   7.405  0.00  0.00    -0.203 F 
BRANCH  38  42
HETATM   42  C   UNK N   1      29.284  18.176   9.622  0.00  0.00     0.435 C 
HETATM   43  F   UNK N   1      29.852  19.127  10.449  0.00  0.00    -0.165 F 
HETATM   44  F   UNK N   1      28.177  18.717   8.993  0.00  0.00    -0.165 F 
HETATM   45  F   UNK N   1      28.875  17.100  10.391  0.00  0.00    -0.165 F 
ENDBRANCH  38  42
ENDBRANCH  31  34
ENDBRANCH   6  26
ENDBRANCH   1   4
TORSDOF 6
ENDMDL
MODEL 3
REMARK VINA RESULT:      -8.1      6.353     10.352
REMARK  6 active torsions:
REMARK  status: ('A' for Active; 'I' for Inactive)
REMARK    1  A    between atoms: C_6  and  C_12 
REMARK    2  A    between atoms: N_16  and  C_18 
REMARK    3  A    between atoms: C_18  and  C_42 
REMARK    4  A    between atoms: N_20  and  C_22 
REMARK       I    between atoms: N_25  and  C_28 
REMARK    5  A    between atoms: C_28  and  C_30 
REMARK    6  A    between atoms: C_35  and  C_38 
ROOT
HETATM    1  C   UNK N   1      34.537  17.325   8.031  0.00  0.00     0.160 C 
HETATM    2  C   UNK N   1      34.911  17.163   9.444  0.00  0.00     0.061 C 
HETATM    3  N   UNK N   1      35.178  17.022  10.561  0.00  0.00    -0.197 NA
ENDROOT
BRANCH   1   4
HETATM    4  C   UNK N   1      34.232  15.982   7.365  0.00  0.00     0.117 C 
HETATM    5  C   UNK N   1      34.481  14.732   8.219  0.00  0.00     0.308 C 
HETATM    6  N   UNK N   1      34.957  14.052   7.017  0.00  0.00     0.098 N 
HETATM    7  C   UNK N   1      35.279  15.354   6.453  0.00  0.00     0.308 C 
BRANCH   4   8
HETATM    8  N   UNK N   1      32.931  15.859   6.671  0.00  0.00    -0.288 N 
HETATM    9  N   UNK N   1      32.213  14.748   6.577  0.00  0.00    -0.308 N 
HETATM   10  C   UNK N   1      30.937  15.092   6.270  0.00  0.00     0.122 A 
ATOM     11  HN  UNK N   1      32.561  13.799   6.712  1.00  0.00     0.186 HD
HETATM   12  C   UNK N   1      30.876  16.478   6.210  0.00  0.00     0.026 A 
HETATM   13  C   UNK N   1      32.135  16.924   6.455  0.00  0.00     0.126 A 
BRANCH  12  14
HETATM   14  C   UNK N   1      29.723  17.395   6.122  0.00  0.00     0.060 A 
HETATM   15  C   UNK N   1      29.025  17.867   7.229  0.00  0.00     0.037 A 
HETATM   16  C   UNK N   1      28.012  18.754   7.059  0.00  0.00     0.118 A 
HETATM   17  C   UNK N   1      29.141  17.624   8.578  0.00  0.00     0.034 A 
HETATM   18  N   UNK N   1      27.459  19.097   8.228  0.00  0.00    -0.352 N 
HETATM   19  N   UNK N   1      27.643  19.215   5.841  0.00  0.00    -0.338 N 
HETATM   20  C   UNK N   1      28.146  18.407   9.172  0.00  0.00     0.090 A 
HETATM   21  H   UNK N   1      26.711  19.721   8.373  0.00  0.00     0.166 HD
HETATM   22  C   UNK N   1      28.320  18.763   4.747  0.00  0.00     0.182 A 
ATOM     23  HN  UNK N   1      26.879  19.885   5.744  1.00  0.00     0.168 HD
HETATM   24  N   UNK N   1      29.344  17.865   4.891  0.00  0.00    -0.351 N 
ATOM     25  HN  UNK N   1      29.839  17.538   4.061  1.00  0.00     0.166 HD
ENDBRANCH  12  14
ENDBRANCH   4   8
BRANCH   6  26
HETATM   26  C   UNK N   1      35.967  13.007   7.033  0.00  0.00     0.226 C 
HETATM   27  C   UNK N   1      36.857  12.994   8.277  0.00  0.00     0.055 C 
HETATM   28  C   UNK N   1      37.021  11.565   8.767  0.00  0.00     0.128 C 
HETATM   29  N   UNK N   1      35.691  11.043   9.039  0.00  0.00    -0.348 N 
HETATM   30  C   UNK N   1      34.747  10.931   7.941  0.00  0.00     0.128 C 
HETATM   31  C   UNK N   1      35.282  10.914  10.332  0.00  0.00     0.257 C 
HETATM   32  C   UNK N   1      35.294  11.650   6.694  0.00  0.00     0.055 C 
HETATM   33  O   UNK N   1      34.127  10.612  10.600  0.00  0.00    -0.267 OA
BRANCH  31  34
HETATM   34  C   UNK N   1      36.195  11.367  11.389  0.00  0.00     0.074 A 
HETATM   35  C   UNK N   1      37.167  10.472  11.835  0.00  0.00     0.037 A 
HETATM   36  C   UNK N   1      37.867  10.747  13.004  0.00  0.00     0.089 A 
HETATM   37  N   UNK N   1      37.589  11.869  13.717  0.00  0.00    -0.359 N 
HETATM   38  C   UNK N   1      36.648  12.767  13.309  0.00  0.00     0.156 A 
ATOM     39  HN  UNK N   1      38.099  12.045  14.582  1.00  0.00     0.165 HD
HETATM   40  C   UNK N   1      35.925  12.527  12.128  0.00  0.00     0.163 A 
HETATM   41  F   UNK N   1      34.944  13.380  11.733  0.00  0.00    -0.203 F 
BRANCH  38  42
HETATM   42  C   UNK N   1      36.371  13.981  14.145  0.00  0.00     0.435 C 
HETATM   43  F   UNK N   1      37.302  14.063  15.162  0.00  0.00    -0.165 F 
HETATM   44  F   UNK N   1      36.443  15.121  13.364  0.00  0.00    -0.165 F 
HETATM   45  F   UNK N   1      35.104  13.904  14.699  0.00  0.00    -0.165 F 
ENDBRANCH  38  42
ENDBRANCH  31  34
ENDBRANCH   6  26
ENDBRANCH   1   4
TORSDOF 6
ENDMDL
MODEL 4
REMARK VINA RESULT:      -8.1      3.211      5.600
REMARK  6 active torsions:
REMARK  status: ('A' for Active; 'I' for Inactive)
REMARK    1  A    between atoms: C_6  and  C_12 
REMARK    2  A    between atoms: N_16  and  C_18 
REMARK    3  A    between atoms: C_18  and  C_42 
REMARK    4  A    between atoms: N_20  and  C_22 
REMARK       I    between atoms: N_25  and  C_28 
REMARK    5  A    between atoms: C_28  and  C_30 
REMARK    6  A    between atoms: C_35  and  C_38 
ROOT
HETATM    1  C   UNK N   1      25.553  12.923   4.887  0.00  0.00     0.160 C 
HETATM    2  C   UNK N   1      26.873  12.303   4.699  0.00  0.00     0.061 C 
HETATM    3  N   UNK N   1      27.912  11.823   4.522  0.00  0.00    -0.197 NA
ENDROOT
BRANCH   1   4
HETATM    4  C   UNK N   1      25.560  14.403   4.499  0.00  0.00     0.117 C 
HETATM    5  C   UNK N   1      26.116  14.735   3.108  0.00  0.00     0.308 C 
HETATM    6  N   UNK N   1      26.712  15.942   3.677  0.00  0.00     0.098 N 
HETATM    7  C   UNK N   1      26.704  15.289   4.976  0.00  0.00     0.308 C 
BRANCH   4   8
HETATM    8  N   UNK N   1      24.309  15.161   4.728  0.00  0.00    -0.288 N 
HETATM    9  N   UNK N   1      24.165  16.165   5.582  0.00  0.00    -0.308 N 
HETATM   10  C   UNK N   1      23.063  16.871   5.224  0.00  0.00     0.122 A 
ATOM     11  HN  UNK N   1      24.776  16.370   6.372  1.00  0.00     0.186 HD
HETATM   12  C   UNK N   1      22.539  16.286   4.079  0.00  0.00     0.026 A 
HETATM   13  C   UNK N   1      23.332  15.219   3.803  0.00  0.00     0.126 A 
BRANCH  12  14
HETATM   14  C   UNK N   1      21.488  16.744   3.150  0.00  0.00     0.060 A 
HETATM   15  C   UNK N   1      21.030  18.057   3.090  0.00  0.00     0.037 A 
HETATM   16  C   UNK N   1      20.100  18.404   2.164  0.00  0.00     0.118 A 
HETATM   17  C   UNK N   1      21.335  19.186   3.814  0.00  0.00     0.034 A 
HETATM   18  N   UNK N   1      19.780  19.700   2.251  0.00  0.00    -0.352 N 
HETATM   19  N   UNK N   1      19.590  17.519   1.275  0.00  0.00    -0.338 N 
HETATM   20  C   UNK N   1      20.535  20.193   3.265  0.00  0.00     0.090 A 
HETATM   21  H   UNK N   1      19.134  20.193   1.695  0.00  0.00     0.166 HD
HETATM   22  C   UNK N   1      20.032  16.230   1.321  0.00  0.00     0.182 A 
ATOM     23  HN  UNK N   1      18.894  17.810   0.588  1.00  0.00     0.168 HD
HETATM   24  N   UNK N   1      20.967  15.853   2.248  0.00  0.00    -0.351 N 
ATOM     25  HN  UNK N   1      21.286  14.884   2.267  1.00  0.00     0.166 HD
ENDBRANCH  12  14
ENDBRANCH   4   8
BRANCH   6  26
HETATM   26  C   UNK N   1      27.940  16.540   3.181  0.00  0.00     0.226 C 
HETATM   27  C   UNK N   1      28.652  17.460   4.175  0.00  0.00     0.055 C 
HETATM   28  C   UNK N   1      30.143  17.168   4.155  0.00  0.00     0.128 C 
HETATM   29  N   UNK N   1      30.316  15.763   4.488  0.00  0.00    -0.348 N 
HETATM   30  C   UNK N   1      29.751  14.761   3.602  0.00  0.00     0.128 C 
HETATM   31  C   UNK N   1      30.770  15.427   5.728  0.00  0.00     0.257 C 
HETATM   32  C   UNK N   1      28.830  15.427   2.564  0.00  0.00     0.055 C 
HETATM   33  O   UNK N   1      30.796  14.260   6.095  0.00  0.00    -0.267 OA
BRANCH  31  34
HETATM   34  C   UNK N   1      31.008  16.512   6.688  0.00  0.00     0.074 A 
HETATM   35  C   UNK N   1      32.330  16.877   6.941  0.00  0.00     0.037 A 
HETATM   36  C   UNK N   1      32.621  17.695   8.027  0.00  0.00     0.089 A 
HETATM   37  N   UNK N   1      31.624  18.116   8.848  0.00  0.00    -0.359 N 
HETATM   38  C   UNK N   1      30.321  17.781   8.629  0.00  0.00     0.156 A 
ATOM     39  HN  UNK N   1      31.858  18.700   9.650  1.00  0.00     0.165 HD
HETATM   40  C   UNK N   1      29.988  16.963   7.537  0.00  0.00     0.163 A 
HETATM   41  F   UNK N   1      28.702  16.571   7.333  0.00  0.00    -0.203 F 
BRANCH  38  42
HETATM   42  C   UNK N   1      29.263  18.262   9.578  0.00  0.00     0.435 C 
HETATM   43  F   UNK N   1      28.291  18.948   8.875  0.00  0.00    -0.165 F 
HETATM   44  F   UNK N   1      28.686  17.186  10.229  0.00  0.00    -0.165 F 
HETATM   45  F   UNK N   1      29.815  19.108  10.524  0.00  0.00    -0.165 F 
ENDBRANCH  38  42
ENDBRANCH  31  34
ENDBRANCH   6  26
ENDBRANCH   1   4
TORSDOF 6
ENDMDL
MODEL 5
REMARK VINA RESULT:      -8.1      3.515      5.733
REMARK  6 active torsions:
REMARK  status: ('A' for Active; 'I' for Inactive)
REMARK    1  A    between atoms: C_6  and  C_12 
REMARK    2  A    between atoms: N_16  and  C_18 
REMARK    3  A    between atoms: C_18  and  C_42 
REMARK    4  A    between atoms: N_20  and  C_22 
REMARK       I    between atoms: N_25  and  C_28 
REMARK    5  A    between atoms: C_28  and  C_30 
REMARK    6  A    between atoms: C_35  and  C_38 
ROOT
HETATM    1  C   UNK N   1      27.361  18.929   6.216  0.00  0.00     0.160 C 
HETATM    2  C   UNK N   1      28.179  18.505   7.362  0.00  0.00     0.061 C 
HETATM    3  N   UNK N   1      28.804  18.148   8.269  0.00  0.00    -0.197 NA
ENDROOT
BRANCH   1   4
HETATM    4  C   UNK N   1      27.243  17.827   5.162  0.00  0.00     0.117 C 
HETATM    5  C   UNK N   1      28.328  16.741   5.195  0.00  0.00     0.308 C 
HETATM    6  N   UNK N   1      28.294  16.719   3.734  0.00  0.00     0.098 N 
HETATM    7  C   UNK N   1      27.787  18.082   3.761  0.00  0.00     0.308 C 
BRANCH   4   8
HETATM    8  N   UNK N   1      25.914  17.197   4.997  0.00  0.00    -0.288 N 
HETATM    9  N   UNK N   1      25.334  16.387   5.873  0.00  0.00    -0.308 N 
HETATM   10  C   UNK N   1      24.004  16.357   5.605  0.00  0.00     0.122 A 
ATOM     11  HN  UNK N   1      25.806  15.876   6.618  1.00  0.00     0.186 HD
HETATM   12  C   UNK N   1      23.767  17.216   4.541  0.00  0.00     0.026 A 
HETATM   13  C   UNK N   1      24.977  17.715   4.180  0.00  0.00     0.126 A 
BRANCH  12  14
HETATM   14  C   UNK N   1      22.506  17.726   3.969  0.00  0.00     0.060 A 
HETATM   15  C   UNK N   1      21.584  16.929   3.299  0.00  0.00     0.037 A 
HETATM   16  C   UNK N   1      20.421  17.471   2.855  0.00  0.00     0.118 A 
HETATM   17  C   UNK N   1      21.576  15.596   2.958  0.00  0.00     0.034 A 
HETATM   18  N   UNK N   1      19.659  16.561   2.238  0.00  0.00    -0.352 N 
HETATM   19  N   UNK N   1      20.106  18.774   3.041  0.00  0.00    -0.338 N 
HETATM   20  C   UNK N   1      20.361  15.401   2.295  0.00  0.00     0.090 A 
HETATM   21  H   UNK N   1      18.774  16.702   1.830  0.00  0.00     0.166 HD
HETATM   22  C   UNK N   1      20.999  19.567   3.699  0.00  0.00     0.182 A 
ATOM     23  HN  UNK N   1      19.222  19.153   2.699  1.00  0.00     0.168 HD
HETATM   24  N   UNK N   1      22.181  19.045   4.154  0.00  0.00    -0.351 N 
ATOM     25  HN  UNK N   1      22.837  19.654   4.644  1.00  0.00     0.166 HD
ENDBRANCH  12  14
ENDBRANCH   4   8
BRANCH   6  26
HETATM   26  C   UNK N   1      29.449  16.399   2.911  0.00  0.00     0.226 C 
HETATM   27  C   UNK N   1      30.798  16.786   3.519  0.00  0.00     0.055 C 
HETATM   28  C   UNK N   1      31.787  15.649   3.323  0.00  0.00     0.128 C 
HETATM   29  N   UNK N   1      31.221  14.467   3.952  0.00  0.00    -0.348 N 
HETATM   30  C   UNK N   1      29.969  13.935   3.442  0.00  0.00     0.128 C 
HETATM   31  C   UNK N   1      31.730  14.043   5.143  0.00  0.00     0.257 C 
HETATM   32  C   UNK N   1      29.340  14.922   2.443  0.00  0.00     0.055 C 
HETATM   33  O   UNK N   1      31.194  13.140   5.771  0.00  0.00    -0.267 OA
BRANCH  31  34
HETATM   34  C   UNK N   1      32.794  14.846   5.758  0.00  0.00     0.074 A 
HETATM   35  C   UNK N   1      34.106  14.389   5.632  0.00  0.00     0.037 A 
HETATM   36  C   UNK N   1      35.107  14.953   6.416  0.00  0.00     0.089 A 
HETATM   37  N   UNK N   1      34.801  15.925   7.314  0.00  0.00    -0.359 N 
HETATM   38  C   UNK N   1      33.531  16.396   7.462  0.00  0.00     0.156 A 
ATOM     39  HN  UNK N   1      35.545  16.313   7.895  1.00  0.00     0.165 HD
HETATM   40  C   UNK N   1      32.495  15.856   6.681  0.00  0.00     0.163 A 
HETATM   41  F   UNK N   1      31.212  16.272   6.852  0.00  0.00    -0.203 F 
BRANCH  38  42
HETATM   42  C   UNK N   1      33.249  17.460   8.482  0.00  0.00     0.435 C 
HETATM   43  F   UNK N   1      34.178  17.379   9.501  0.00  0.00    -0.165 F 
HETATM   44  F   UNK N   1      33.319  18.710   7.894  0.00  0.00    -0.165 F 
HETATM   45  F   UNK N   1      31.982  17.291   9.014  0.00  0.00    -0.165 F 
ENDBRANCH  38  42
ENDBRANCH  31  34
ENDBRANCH   6  26
ENDBRANCH   1   4
TORSDOF 6
ENDMDL
MODEL 6
REMARK VINA RESULT:      -8.0      5.472      9.490
REMARK  6 active torsions:
REMARK  status: ('A' for Active; 'I' for Inactive)
REMARK    1  A    between atoms: C_6  and  C_12 
REMARK    2  A    between atoms: N_16  and  C_18 
REMARK    3  A    between atoms: C_18  and  C_42 
REMARK    4  A    between atoms: N_20  and  C_22 
REMARK       I    between atoms: N_25  and  C_28 
REMARK    5  A    between atoms: C_28  and  C_30 
REMARK    6  A    between atoms: C_35  and  C_38 
ROOT
HETATM    1  C   UNK N   1      32.756  18.534   8.351  0.00  0.00     0.160 C 
HETATM    2  C   UNK N   1      34.202  18.804   8.332  0.00  0.00     0.061 C 
HETATM    3  N   UNK N   1      35.344  18.991   8.333  0.00  0.00    -0.197 NA
ENDROOT
BRANCH   1   4
HETATM    4  C   UNK N   1      32.422  17.181   7.722  0.00  0.00     0.117 C 
HETATM    5  C   UNK N   1      33.119  15.959   8.335  0.00  0.00     0.308 C 
HETATM    6  N   UNK N   1      33.232  15.397   6.991  0.00  0.00     0.098 N 
HETATM    7  C   UNK N   1      33.159  16.749   6.459  0.00  0.00     0.308 C 
BRANCH   4   8
HETATM    8  N   UNK N   1      30.989  16.879   7.505  0.00  0.00    -0.288 N 
HETATM    9  N   UNK N   1      30.099  16.651   8.461  0.00  0.00    -0.308 N 
HETATM   10  C   UNK N   1      28.860  16.839   7.941  0.00  0.00     0.122 A 
ATOM     11  HN  UNK N   1      30.310  16.381   9.422  1.00  0.00     0.186 HD
HETATM   12  C   UNK N   1      29.012  17.233   6.618  0.00  0.00     0.026 A 
HETATM   13  C   UNK N   1      30.349  17.238   6.376  0.00  0.00     0.126 A 
BRANCH  12  14
HETATM   14  C   UNK N   1      28.037  17.762   5.646  0.00  0.00     0.060 A 
HETATM   15  C   UNK N   1      27.569  19.072   5.657  0.00  0.00     0.037 A 
HETATM   16  C   UNK N   1      26.715  19.492   4.688  0.00  0.00     0.118 A 
HETATM   17  C   UNK N   1      27.800  20.138   6.495  0.00  0.00     0.034 A 
HETATM   18  N   UNK N   1      26.374  20.774   4.856  0.00  0.00    -0.352 N 
HETATM   19  N   UNK N   1      26.292  18.682   3.689  0.00  0.00    -0.338 N 
HETATM   20  C   UNK N   1      27.036  21.184   5.967  0.00  0.00     0.090 A 
HETATM   21  H   UNK N   1      25.770  21.309   4.291  0.00  0.00     0.166 HD
HETATM   22  C   UNK N   1      26.745  17.396   3.664  0.00  0.00     0.182 A 
ATOM     23  HN  UNK N   1      25.652  19.026   2.972  1.00  0.00     0.168 HD
HETATM   24  N   UNK N   1      27.604  16.947   4.632  0.00  0.00    -0.351 N 
ATOM     25  HN  UNK N   1      27.932  15.982   4.596  1.00  0.00     0.166 HD
ENDBRANCH  12  14
ENDBRANCH   4   8
BRANCH   6  26
HETATM   26  C   UNK N   1      34.315  14.521   6.577  0.00  0.00     0.226 C 
HETATM   27  C   UNK N   1      35.462  14.399   7.582  0.00  0.00     0.055 C 
HETATM   28  C   UNK N   1      35.870  12.941   7.710  0.00  0.00     0.128 C 
HETATM   29  N   UNK N   1      34.694  12.195   8.128  0.00  0.00    -0.348 N 
HETATM   30  C   UNK N   1      33.539  12.160   7.248  0.00  0.00     0.128 C 
HETATM   31  C   UNK N   1      34.605  11.768   9.419  0.00  0.00     0.257 C 
HETATM   32  C   UNK N   1      33.716  13.170   6.099  0.00  0.00     0.055 C 
HETATM   33  O   UNK N   1      33.575  11.262   9.845  0.00  0.00    -0.267 OA
BRANCH  31  34
HETATM   34  C   UNK N   1      35.686  12.139  10.340  0.00  0.00     0.074 A 
HETATM   35  C   UNK N   1      36.825  11.334  10.360  0.00  0.00     0.037 A 
HETATM   36  C   UNK N   1      37.747  11.477  11.391  0.00  0.00     0.089 A 
HETATM   37  N   UNK N   1      37.526  12.378  12.383  0.00  0.00    -0.359 N 
HETATM   38  C   UNK N   1      36.426  13.183  12.393  0.00  0.00     0.156 A 
ATOM     39  HN  UNK N   1      38.204  12.456  13.141  1.00  0.00     0.165 HD
HETATM   40  C   UNK N   1      35.476  13.073  11.363  0.00  0.00     0.163 A 
HETATM   41  F   UNK N   1      34.344  13.825  11.384  0.00  0.00    -0.203 F 
BRANCH  38  42
HETATM   42  C   UNK N   1      36.225  14.149  13.522  0.00  0.00     0.435 C 
HETATM   43  F   UNK N   1      36.153  15.435  13.020  0.00  0.00    -0.165 F 
HETATM   44  F   UNK N   1      35.055  13.853  14.197  0.00  0.00    -0.165 F 
HETATM   45  F   UNK N   1      37.282  14.073  14.413  0.00  0.00    -0.165 F 
ENDBRANCH  38  42
ENDBRANCH  31  34
ENDBRANCH   6  26
ENDBRANCH   1   4
TORSDOF 6
ENDMDL
MODEL 7
REMARK VINA RESULT:      -8.0      2.794      7.560
REMARK  6 active torsions:
REMARK  status: ('A' for Active; 'I' for Inactive)
REMARK    1  A    between atoms: C_6  and  C_12 
REMARK    2  A    between atoms: N_16  and  C_18 
REMARK    3  A    between atoms: C_18  and  C_42 
REMARK    4  A    between atoms: N_20  and  C_22 
REMARK       I    between atoms: N_25  and  C_28 
REMARK    5  A    between atoms: C_28  and  C_30 
REMARK    6  A    between atoms: C_35  and  C_38 
ROOT
HETATM    1  C   UNK N   1      31.343  12.801   3.620  0.00  0.00     0.160 C 
HETATM    2  C   UNK N   1      31.853  12.270   4.893  0.00  0.00     0.061 C 
HETATM    3  N   UNK N   1      32.262  11.880   5.903  0.00  0.00    -0.197 NA
ENDROOT
BRANCH   1   4
HETATM    4  C   UNK N   1      30.246  13.845   3.838  0.00  0.00     0.117 C 
HETATM    5  C   UNK N   1      28.877  13.308   4.276  0.00  0.00     0.308 C 
HETATM    6  N   UNK N   1      28.252  14.327   3.438  0.00  0.00     0.098 N 
HETATM    7  C   UNK N   1      29.464  14.360   2.635  0.00  0.00     0.308 C 
BRANCH   4   8
HETATM    8  N   UNK N   1      30.600  15.028   4.655  0.00  0.00    -0.288 N 
HETATM    9  N   UNK N   1      31.347  16.046   4.249  0.00  0.00    -0.308 N 
HETATM   10  C   UNK N   1      31.107  17.101   5.067  0.00  0.00     0.122 A 
ATOM     11  HN  UNK N   1      31.991  16.037   3.458  1.00  0.00     0.186 HD
HETATM   12  C   UNK N   1      30.144  16.711   5.989  0.00  0.00     0.026 A 
HETATM   13  C   UNK N   1      29.858  15.413   5.710  0.00  0.00     0.126 A 
BRANCH  12  14
HETATM   14  C   UNK N   1      29.365  17.494   6.967  0.00  0.00     0.060 A 
HETATM   15  C   UNK N   1      28.451  18.481   6.613  0.00  0.00     0.037 A 
HETATM   16  C   UNK N   1      27.734  19.113   7.577  0.00  0.00     0.118 A 
HETATM   17  C   UNK N   1      28.069  19.007   5.401  0.00  0.00     0.034 A 
HETATM   18  N   UNK N   1      26.908  20.027   7.056  0.00  0.00    -0.352 N 
HETATM   19  N   UNK N   1      27.863  18.819   8.892  0.00  0.00    -0.338 N 
HETATM   20  C   UNK N   1      27.105  19.972   5.714  0.00  0.00     0.090 A 
HETATM   21  H   UNK N   1      26.286  20.615   7.543  0.00  0.00     0.166 HD
HETATM   22  C   UNK N   1      28.754  17.851   9.254  0.00  0.00     0.182 A 
ATOM     23  HN  UNK N   1      27.309  19.309   9.595  1.00  0.00     0.168 HD
HETATM   24  N   UNK N   1      29.492  17.202   8.300  0.00  0.00    -0.351 N 
ATOM     25  HN  UNK N   1      30.153  16.480   8.590  1.00  0.00     0.166 HD
ENDBRANCH  12  14
ENDBRANCH   4   8
BRANCH   6  26
HETATM   26  C   UNK N   1      26.964  14.150   2.787  0.00  0.00     0.226 C 
HETATM   27  C   UNK N   1      25.870  13.559   3.677  0.00  0.00     0.055 C 
HETATM   28  C   UNK N   1      24.576  14.327   3.468  0.00  0.00     0.128 C 
HETATM   29  N   UNK N   1      24.842  15.722   3.780  0.00  0.00    -0.348 N 
HETATM   30  C   UNK N   1      25.813  16.444   2.977  0.00  0.00     0.128 C 
HETATM   31  C   UNK N   1      24.378  16.238   4.953  0.00  0.00     0.257 C 
HETATM   32  C   UNK N   1      26.579  15.470   2.064  0.00  0.00     0.055 C 
HETATM   33  O   UNK N   1      24.698  17.362   5.316  0.00  0.00    -0.267 OA
BRANCH  31  34
HETATM   34  C   UNK N   1      23.676  15.332   5.871  0.00  0.00     0.074 A 
HETATM   35  C   UNK N   1      22.288  15.432   5.945  0.00  0.00     0.037 A 
HETATM   36  C   UNK N   1      21.609  14.800   6.982  0.00  0.00     0.089 A 
HETATM   37  N   UNK N   1      22.300  14.110   7.926  0.00  0.00    -0.359 N 
HETATM   38  C   UNK N   1      23.657  13.990   7.882  0.00  0.00     0.156 A 
ATOM     39  HN  UNK N   1      21.787  13.669   8.690  1.00  0.00     0.165 HD
HETATM   40  C   UNK N   1      24.376  14.608   6.845  0.00  0.00     0.163 A 
HETATM   41  F   UNK N   1      25.733  14.547   6.814  0.00  0.00    -0.203 F 
BRANCH  38  42
HETATM   42  C   UNK N   1      24.368  13.229   8.961  0.00  0.00     0.435 C 
HETATM   43  F   UNK N   1      25.527  13.897   9.309  0.00  0.00    -0.165 F 
HETATM   44  F   UNK N   1      23.555  13.111  10.074  0.00  0.00    -0.165 F 
HETATM   45  F   UNK N   1      24.697  11.960   8.517  0.00  0.00    -0.165 F 
ENDBRANCH  38  42
ENDBRANCH  31  34
ENDBRANCH   6  26
ENDBRANCH   1   4
TORSDOF 6
ENDMDL
MODEL 8
REMARK VINA RESULT:      -8.0      4.270      8.355
REMARK  6 active torsions:
REMARK  status: ('A' for Active; 'I' for Inactive)
REMARK    1  A    between atoms: C_6  and  C_12 
REMARK    2  A    between atoms: N_16  and  C_18 
REMARK    3  A    between atoms: C_18  and  C_42 
REMARK    4  A    between atoms: N_20  and  C_22 
REMARK       I    between atoms: N_25  and  C_28 
REMARK    5  A    between atoms: C_28  and  C_30 
REMARK    6  A    between atoms: C_35  and  C_38 
ROOT
HETATM    1  C   UNK N   1      21.716  13.518   9.821  0.00  0.00     0.160 C 
HETATM    2  C   UNK N   1      22.651  12.681  10.586  0.00  0.00     0.061 C 
HETATM    3  N   UNK N   1      23.378  11.997  11.173  0.00  0.00    -0.197 NA
ENDROOT
BRANCH   1   4
HETATM    4  C   UNK N   1      21.982  13.440   8.317  0.00  0.00     0.117 C 
HETATM    5  C   UNK N   1      20.919  14.073   7.408  0.00  0.00     0.308 C 
HETATM    6  N   UNK N   1      21.136  12.982   6.460  0.00  0.00     0.098 N 
HETATM    7  C   UNK N   1      21.615  12.166   7.565  0.00  0.00     0.308 C 
BRANCH   4   8
HETATM    8  N   UNK N   1      23.331  13.836   7.854  0.00  0.00    -0.288 N 
HETATM    9  N   UNK N   1      24.382  13.030   7.772  0.00  0.00    -0.308 N 
HETATM   10  C   UNK N   1      25.285  13.595   6.932  0.00  0.00     0.122 A 
ATOM     11  HN  UNK N   1      24.491  12.140   8.257  1.00  0.00     0.186 HD
HETATM   12  C   UNK N   1      24.738  14.780   6.458  0.00  0.00     0.026 A 
HETATM   13  C   UNK N   1      23.526  14.904   7.059  0.00  0.00     0.126 A 
BRANCH  12  14
HETATM   14  C   UNK N   1      25.177  15.687   5.380  0.00  0.00     0.060 A 
HETATM   15  C   UNK N   1      25.425  15.272   4.076  0.00  0.00     0.037 A 
HETATM   16  C   UNK N   1      25.770  16.185   3.132  0.00  0.00     0.118 A 
HETATM   17  C   UNK N   1      25.394  14.039   3.467  0.00  0.00     0.034 A 
HETATM   18  N   UNK N   1      25.969  15.609   1.941  0.00  0.00    -0.352 N 
HETATM   19  N   UNK N   1      25.879  17.507   3.402  0.00  0.00    -0.338 N 
HETATM   20  C   UNK N   1      25.741  14.285   2.135  0.00  0.00     0.090 A 
HETATM   21  H   UNK N   1      26.225  16.051   1.100  0.00  0.00     0.166 HD
HETATM   22  C   UNK N   1      25.636  17.929   4.676  0.00  0.00     0.182 A 
ATOM     23  HN  UNK N   1      26.137  18.170   2.671  1.00  0.00     0.168 HD
HETATM   24  N   UNK N   1      25.290  17.027   5.647  0.00  0.00    -0.351 N 
ATOM     25  HN  UNK N   1      25.111  17.361   6.594  1.00  0.00     0.166 HD
ENDBRANCH  12  14
ENDBRANCH   4   8
BRANCH   6  26
HETATM   26  C   UNK N   1      20.099  12.464   5.583  0.00  0.00     0.226 C 
HETATM   27  C   UNK N   1      19.360  13.526   4.767  0.00  0.00     0.055 C 
HETATM   28  C   UNK N   1      19.205  13.047   3.333  0.00  0.00     0.128 C 
HETATM   29  N   UNK N   1      20.538  12.787   2.815  0.00  0.00    -0.348 N 
HETATM   30  C   UNK N   1      21.345  11.757   3.445  0.00  0.00     0.128 C 
HETATM   31  C   UNK N   1      21.090  13.671   1.936  0.00  0.00     0.257 C 
HETATM   32  C   UNK N   1      20.682  11.289   4.753  0.00  0.00     0.055 C 
HETATM   33  O   UNK N   1      22.258  13.564   1.586  0.00  0.00    -0.267 OA
BRANCH  31  34
HETATM   34  C   UNK N   1      20.322  14.877   1.602  0.00  0.00     0.074 A 
HETATM   35  C   UNK N   1      19.474  14.820   0.497  0.00  0.00     0.037 A 
HETATM   36  C   UNK N   1      18.941  15.996  -0.020  0.00  0.00     0.089 A 
HETATM   37  N   UNK N   1      19.265  17.192   0.536  0.00  0.00    -0.359 N 
HETATM   38  C   UNK N   1      20.088  17.284   1.619  0.00  0.00     0.156 A 
ATOM     39  HN  UNK N   1      18.880  18.046   0.132  1.00  0.00     0.165 HD
HETATM   40  C   UNK N   1      20.639  16.116   2.173  0.00  0.00     0.163 A 
HETATM   41  F   UNK N   1      21.506  16.189   3.217  0.00  0.00    -0.203 F 
BRANCH  38  42
HETATM   42  C   UNK N   1      20.424  18.633   2.182  0.00  0.00     0.435 C 
HETATM   43  F   UNK N   1      19.407  19.049   3.020  0.00  0.00    -0.165 F 
HETATM   44  F   UNK N   1      21.608  18.568   2.894  0.00  0.00    -0.165 F 
HETATM   45  F   UNK N   1      20.571  19.556   1.161  0.00  0.00    -0.165 F 
ENDBRANCH  38  42
ENDBRANCH  31  34
ENDBRANCH   6  26
ENDBRANCH   1   4
TORSDOF 6
ENDMDL
MODEL 9
REMARK VINA RESULT:      -7.9      2.475      2.975
REMARK  6 active torsions:
REMARK  status: ('A' for Active; 'I' for Inactive)
REMARK    1  A    between atoms: C_6  and  C_12 
REMARK    2  A    between atoms: N_16  and  C_18 
REMARK    3  A    between atoms: C_18  and  C_42 
REMARK    4  A    between atoms: N_20  and  C_22 
REMARK       I    between atoms: N_25  and  C_28 
REMARK    5  A    between atoms: C_28  and  C_30 
REMARK    6  A    between atoms: C_35  and  C_38 
ROOT
HETATM    1  C   UNK N   1      21.570  17.802   4.978  0.00  0.00     0.160 C 
HETATM    2  C   UNK N   1      20.582  17.915   3.894  0.00  0.00     0.061 C 
HETATM    3  N   UNK N   1      19.827  18.005   3.021  0.00  0.00    -0.197 NA
ENDROOT
BRANCH   1   4
HETATM    4  C   UNK N   1      22.473  16.580   4.799  0.00  0.00     0.117 C 
HETATM    5  C   UNK N   1      23.983  16.851   4.783  0.00  0.00     0.308 C 
HETATM    6  N   UNK N   1      24.119  15.817   3.760  0.00  0.00     0.098 N 
HETATM    7  C   UNK N   1      22.730  16.048   3.394  0.00  0.00     0.308 C 
BRANCH   4   8
HETATM    8  N   UNK N   1      22.188  15.406   5.655  0.00  0.00    -0.288 N 
HETATM    9  N   UNK N   1      21.866  14.196   5.217  0.00  0.00    -0.308 N 
HETATM   10  C   UNK N   1      22.099  13.308   6.215  0.00  0.00     0.122 A 
ATOM     11  HN  UNK N   1      21.506  13.973   4.289  1.00  0.00     0.186 HD
HETATM   12  C   UNK N   1      22.619  14.011   7.294  0.00  0.00     0.026 A 
HETATM   13  C   UNK N   1      22.652  15.315   6.915  0.00  0.00     0.126 A 
BRANCH  12  14
HETATM   14  C   UNK N   1      23.235  13.542   8.550  0.00  0.00     0.060 A 
HETATM   15  C   UNK N   1      22.512  13.011   9.613  0.00  0.00     0.037 A 
HETATM   16  C   UNK N   1      23.166  12.551  10.710  0.00  0.00     0.118 A 
HETATM   17  C   UNK N   1      21.166  12.822   9.825  0.00  0.00     0.034 A 
HETATM   18  N   UNK N   1      22.315  12.076  11.627  0.00  0.00    -0.352 N 
HETATM   19  N   UNK N   1      24.515  12.578  10.820  0.00  0.00    -0.338 N 
HETATM   20  C   UNK N   1      21.078  12.239  11.093  0.00  0.00     0.090 A 
HETATM   21  H   UNK N   1      22.539  11.689  12.504  0.00  0.00     0.166 HD
HETATM   22  C   UNK N   1      25.237  13.094   9.784  0.00  0.00     0.182 A 
ATOM     23  HN  UNK N   1      24.980  12.222  11.656  1.00  0.00     0.168 HD
HETATM   24  N   UNK N   1      24.601  13.568   8.668  0.00  0.00    -0.351 N 
ATOM     25  HN  UNK N   1      25.157  13.951   7.903  1.00  0.00     0.166 HD
ENDBRANCH  12  14
ENDBRANCH   4   8
BRANCH   6  26
HETATM   26  C   UNK N   1      25.145  15.838   2.730  0.00  0.00     0.226 C 
HETATM   27  C   UNK N   1      26.447  16.530   3.135  0.00  0.00     0.055 C 
HETATM   28  C   UNK N   1      27.629  15.693   2.678  0.00  0.00     0.128 C 
HETATM   29  N   UNK N   1      27.494  14.379   3.287  0.00  0.00    -0.348 N 
HETATM   30  C   UNK N   1      26.338  13.568   2.950  0.00  0.00     0.128 C 
HETATM   31  C   UNK N   1      28.301  14.049   4.335  0.00  0.00     0.257 C 
HETATM   32  C   UNK N   1      25.315  14.404   2.159  0.00  0.00     0.055 C 
HETATM   33  O   UNK N   1      28.126  13.014   4.963  0.00  0.00    -0.267 OA
BRANCH  31  34
HETATM   34  C   UNK N   1      29.233  15.070   4.831  0.00  0.00     0.074 A 
HETATM   35  C   UNK N   1      28.781  15.927   5.833  0.00  0.00     0.037 A 
HETATM   36  C   UNK N   1      29.513  17.069   6.141  0.00  0.00     0.089 A 
HETATM   37  N   UNK N   1      30.648  17.356   5.452  0.00  0.00    -0.359 N 
HETATM   38  C   UNK N   1      31.120  16.539   4.468  0.00  0.00     0.156 A 
ATOM     39  HN  UNK N   1      31.162  18.207   5.678  1.00  0.00     0.165 HD
HETATM   40  C   UNK N   1      30.411  15.372   4.135  0.00  0.00     0.163 A 
HETATM   41  F   UNK N   1      30.833  14.572   3.120  0.00  0.00    -0.203 F 
BRANCH  38  42
HETATM   42  C   UNK N   1      32.370  16.914   3.730  0.00  0.00     0.435 C 
HETATM   43  F   UNK N   1      33.296  15.894   3.843  0.00  0.00    -0.165 F 
HETATM   44  F   UNK N   1      32.085  17.128   2.393  0.00  0.00    -0.165 F 
HETATM   45  F   UNK N   1      32.911  18.073   4.258  0.00  0.00    -0.165 F 
ENDBRANCH  38  42
ENDBRANCH  31  34
ENDBRANCH   6  26
ENDBRANCH   1   4
TORSDOF 6
ENDMDL
