MODEL 1
REMARK VINA RESULT:      -8.9      0.000      0.000
REMARK  14 active torsions:
REMARK  status: ('A' for Active; 'I' for Inactive)
REMARK    1  A    between atoms: C_2  and  C_5 
REMARK    2  A    between atoms: C_5  and  C_6 
REMARK    3  A    between atoms: C_5  and  C_15 
REMARK    4  A    between atoms: C_6  and  C_7 
REMARK       I    between atoms: C_7  and  N_9 
REMARK       I    between atoms: C_15  and  N_17 
REMARK    5  A    between atoms: C_19  and  O_39 
REMARK    6  A    between atoms: C_21  and  C_22 
REMARK       I    between atoms: C_22  and  N_24 
REMARK    7  A    between atoms: C_25  and  N_24 
REMARK    8  A    between atoms: C_25  and  C_30 
REMARK    9  A    between atoms: C_27  and  C_28 
REMARK       I    between atoms: C_30  and  N_32 
REMARK   10  A    between atoms: N_32  and  S_33 
REMARK   11  A    between atoms: S_33  and  C_36 
REMARK   12  A    between atoms: O_39  and  C_40 
REMARK   13  A    between atoms: C_42  and  C_53 
REMARK   14  A    between atoms: C_49  and  O_51 
ROOT
HETATM    1  C   UNK N   1      29.042  16.889   5.233  0.00  0.00     0.226 C 
HETATM    2  O   UNK N   1      29.134  18.039   4.828  0.00  0.00    -0.273 OA
HETATM    3  N   UNK N   1      27.845  16.475   5.716  0.00  0.00    -0.336 N 
HETATM    4  C   UNK N   1      27.684  15.255   6.441  0.00  0.00     0.159 C 
HETATM    5  C   UNK N   1      26.209  15.093   6.640  0.00  0.00     0.149 C 
HETATM    6  C   UNK N   1      25.547  16.382   6.103  0.00  0.00     0.069 C 
HETATM    7  C   UNK N   1      26.632  17.175   5.402  0.00  0.00     0.181 C 
ENDROOT
BRANCH   5   8
HETATM    8  O   UNK N   1      25.846  13.923   5.998  0.00  0.00    -0.343 OA
BRANCH   8   9
HETATM    9  C   UNK N   1      24.572  13.498   5.909  0.00  0.00     0.084 A 
HETATM   10  C   UNK N   1      23.910  13.568   4.698  0.00  0.00     0.068 A 
HETATM   11  C   UNK N   1      22.580  13.197   4.588  0.00  0.00     0.045 A 
HETATM   12  N   UNK N   1      21.910  12.751   5.692  0.00  0.00    -0.355 N 
HETATM   13  C   UNK N   1      22.529  12.669   6.906  0.00  0.00     0.048 A 
ATOM     14  HN  UNK N   1      20.932  12.476   5.607  1.00  0.00     0.166 HD
HETATM   15  C   UNK N   1      23.888  13.043   7.036  0.00  0.00     0.024 A 
HETATM   16  C   UNK N   1      21.809  12.286   8.043  0.00  0.00     0.067 A 
HETATM   17  C   UNK N   1      24.507  13.010   8.288  0.00  0.00     0.019 A 
HETATM   18  C   UNK N   1      23.780  12.634   9.416  0.00  0.00     0.038 A 
HETATM   19  C   UNK N   1      22.424  12.280   9.303  0.00  0.00     0.070 A 
BRANCH  11  20
HETATM   20  C   UNK N   1      21.903  13.436   3.303  0.00  0.00    -0.009 A 
HETATM   21  C   UNK N   1      22.608  13.898   2.185  0.00  0.00     0.013 A 
HETATM   22  C   UNK N   1      21.959  14.023   0.953  0.00  0.00     0.001 A 
HETATM   23  C   UNK N   1      20.611  13.673   0.830  0.00  0.00     0.000 A 
HETATM   24  C   UNK N   1      19.905  13.213   1.942  0.00  0.00     0.001 A 
HETATM   25  C   UNK N   1      20.545  13.097   3.169  0.00  0.00     0.013 A 
ENDBRANCH  11  20
BRANCH  19  26
HETATM   26  O   UNK N   1      21.689  11.954  10.392  0.00  0.00    -0.356 OA
HETATM   27  C   UNK N   1      20.595  12.680  10.806  0.00  0.00     0.210 C 
ENDBRANCH  19  26
ENDBRANCH   8   9
ENDBRANCH   5   8
BRANCH   7  28
HETATM   28  C   UNK N   1      26.452  17.089   3.888  0.00  0.00     0.241 C 
HETATM   29  O   UNK N   1      27.024  16.200   3.273  0.00  0.00    -0.271 OA
HETATM   30  N   UNK N   1      25.767  18.031   3.189  0.00  0.00    -0.341 N 
HETATM   31  H   UNK N   1      25.836  18.024   2.206  0.00  0.00     0.163 HD
BRANCH  30  32
HETATM   32  C   UNK N   1      24.943  19.040   3.808  0.00  0.00     0.122 A 
HETATM   33  C   UNK N   1      25.044  20.306   2.967  0.00  0.00     0.053 A 
HETATM   34  C   UNK N   1      25.504  20.353   4.395  0.00  0.00     0.048 A 
BRANCH  34  35
HETATM   35  C   UNK N   1      26.983  20.541   4.348  0.00  0.00    -0.029 C 
HETATM   36  C   UNK N   1      27.639  20.893   5.453  0.00  0.00     0.007 C 
ENDBRANCH  34  35
BRANCH  32  37
HETATM   37  C   UNK N   1      23.490  18.709   3.887  0.00  0.00     0.260 C 
HETATM   38  O   UNK N   1      23.142  17.647   4.377  0.00  0.00    -0.270 OA
HETATM   39  N   UNK N   1      22.571  19.606   3.433  0.00  0.00    -0.252 N 
HETATM   40  H   UNK N   1      22.888  20.405   2.954  0.00  0.00     0.181 HD
BRANCH  39  41
HETATM   41  S   UNK N   1      20.841  19.394   3.666  0.00  0.00     0.237 S 
HETATM   42  O   UNK N   1      20.916  19.657   2.156  0.00  0.00    -0.205 OA
HETATM   43  O   UNK N   1      20.264  20.813   3.753  0.00  0.00    -0.205 OA
BRANCH  41  44
HETATM   44  C   UNK N   1      19.677  18.280   2.821  0.00  0.00     0.130 A 
HETATM   45  C   UNK N   1      19.819  16.901   3.436  0.00  0.00     0.023 A 
HETATM   46  C   UNK N   1      20.377  17.180   2.058  0.00  0.00     0.023 A 
ENDBRANCH  41  44
ENDBRANCH  39  41
ENDBRANCH  32  37
ENDBRANCH  30  32
ENDBRANCH   7  28
BRANCH   1  47
HETATM   47  C   UNK N   1      30.211  15.930   5.022  0.00  0.00     0.094 C 
BRANCH  47  48
HETATM   48  C   UNK N   1      30.311  15.410   3.551  0.00  0.00    -0.039 C 
HETATM   49  C   UNK N   1      29.412  14.201   3.348  0.00  0.00     0.015 C 
HETATM   50  C   UNK N   1      29.938  16.466   2.535  0.00  0.00     0.015 C 
HETATM   51  C   UNK N   1      31.742  15.024   3.195  0.00  0.00     0.015 C 
ENDBRANCH  47  48
BRANCH  47  52
HETATM   52  C   UNK N   1      31.537  16.404   5.646  0.00  0.00     0.117 C 
BRANCH  52  53
HETATM   53  C   UNK N   1      31.877  15.619   6.898  0.00  0.00     0.220 C 
HETATM   54  O   UNK N   1      31.649  14.419   6.906  0.00  0.00    -0.273 OA
HETATM   55  N   UNK N   1      32.440  16.204   7.999  0.00  0.00    -0.352 N 
HETATM   56  C   UNK N   1      32.728  15.417   9.181  0.00  0.00     0.125 C 
HETATM   57  C   UNK N   1      32.820  17.596   8.023  0.00  0.00     0.125 C 
HETATM   58  C   UNK N   1      34.222  15.486   9.483  0.00  0.00     0.020 C 
HETATM   59  C   UNK N   1      34.676  16.945   9.573  0.00  0.00     0.003 C 
HETATM   60  C   UNK N   1      34.322  17.699   8.291  0.00  0.00     0.020 C 
ENDBRANCH  52  53
ENDBRANCH  47  52
ENDBRANCH   1  47
TORSDOF 14
ENDMDL
MODEL 2
REMARK VINA RESULT:      -8.8      2.467      5.984
REMARK  14 active torsions:
REMARK  status: ('A' for Active; 'I' for Inactive)
REMARK    1  A    between atoms: C_2  and  C_5 
REMARK    2  A    between atoms: C_5  and  C_6 
REMARK    3  A    between atoms: C_5  and  C_15 
REMARK    4  A    between atoms: C_6  and  C_7 
REMARK       I    between atoms: C_7  and  N_9 
REMARK       I    between atoms: C_15  and  N_17 
REMARK    5  A    between atoms: C_19  and  O_39 
REMARK    6  A    between atoms: C_21  and  C_22 
REMARK       I    between atoms: C_22  and  N_24 
REMARK    7  A    between atoms: C_25  and  N_24 
REMARK    8  A    between atoms: C_25  and  C_30 
REMARK    9  A    between atoms: C_27  and  C_28 
REMARK       I    between atoms: C_30  and  N_32 
REMARK   10  A    between atoms: N_32  and  S_33 
REMARK   11  A    between atoms: S_33  and  C_36 
REMARK   12  A    between atoms: O_39  and  C_40 
REMARK   13  A    between atoms: C_42  and  C_53 
REMARK   14  A    between atoms: C_49  and  O_51 
ROOT
HETATM    1  C   UNK N   1      31.001  14.632   3.868  0.00  0.00     0.226 C 
HETATM    2  O   UNK N   1      31.094  13.530   3.350  0.00  0.00    -0.273 OA
HETATM    3  N   UNK N   1      29.912  15.386   3.577  0.00  0.00    -0.336 N 
HETATM    4  C   UNK N   1      29.817  16.770   3.914  0.00  0.00     0.159 C 
HETATM    5  C   UNK N   1      28.416  17.175   3.575  0.00  0.00     0.149 C 
HETATM    6  C   UNK N   1      27.760  15.959   2.885  0.00  0.00     0.069 C 
HETATM    7  C   UNK N   1      28.721  14.797   3.032  0.00  0.00     0.181 C 
ENDROOT
BRANCH   5   8
HETATM    8  O   UNK N   1      27.823  17.584   4.756  0.00  0.00    -0.343 OA
BRANCH   8   9
HETATM    9  C   UNK N   1      26.501  17.478   4.990  0.00  0.00     0.084 A 
HETATM   10  C   UNK N   1      26.017  16.400   5.706  0.00  0.00     0.068 A 
HETATM   11  C   UNK N   1      24.658  16.230   5.910  0.00  0.00     0.045 A 
HETATM   12  N   UNK N   1      23.779  17.143   5.399  0.00  0.00    -0.355 N 
HETATM   13  C   UNK N   1      24.219  18.221   4.684  0.00  0.00     0.048 A 
ATOM     14  HN  UNK N   1      22.779  17.017   5.553  1.00  0.00     0.166 HD
HETATM   15  C   UNK N   1      25.604  18.410   4.469  0.00  0.00     0.024 A 
HETATM   16  C   UNK N   1      23.304  19.104   4.101  0.00  0.00     0.067 A 
HETATM   17  C   UNK N   1      26.053  19.483   3.693  0.00  0.00     0.019 A 
HETATM   18  C   UNK N   1      25.134  20.353   3.109  0.00  0.00     0.038 A 
HETATM   19  C   UNK N   1      23.753  20.164   3.300  0.00  0.00     0.070 A 
BRANCH  11  20
HETATM   20  C   UNK N   1      24.209  14.986   6.554  0.00  0.00    -0.009 A 
HETATM   21  C   UNK N   1      25.123  14.092   7.124  0.00  0.00     0.013 A 
HETATM   22  C   UNK N   1      24.662  12.966   7.814  0.00  0.00     0.001 A 
HETATM   23  C   UNK N   1      23.289  12.739   7.950  0.00  0.00     0.000 A 
HETATM   24  C   UNK N   1      22.375  13.626   7.382  0.00  0.00     0.001 A 
HETATM   25  C   UNK N   1      22.830  14.739   6.688  0.00  0.00     0.013 A 
ENDBRANCH  11  20
BRANCH  19  26
HETATM   26  O   UNK N   1      22.844  20.972   2.707  0.00  0.00    -0.356 OA
HETATM   27  C   UNK N   1      21.537  20.598   2.486  0.00  0.00     0.210 C 
ENDBRANCH  19  26
ENDBRANCH   8   9
ENDBRANCH   5   8
BRANCH   7  28
HETATM   28  C   UNK N   1      28.201  13.811   4.075  0.00  0.00     0.241 C 
HETATM   29  O   UNK N   1      28.489  13.984   5.251  0.00  0.00    -0.271 OA
HETATM   30  N   UNK N   1      27.520  12.687   3.729  0.00  0.00    -0.341 N 
HETATM   31  H   UNK N   1      27.368  12.003   4.420  0.00  0.00     0.163 HD
BRANCH  30  32
HETATM   32  C   UNK N   1      27.006  12.444   2.403  0.00  0.00     0.122 A 
HETATM   33  C   UNK N   1      26.965  10.937   2.186  0.00  0.00     0.053 A 
HETATM   34  C   UNK N   1      27.828  11.770   1.284  0.00  0.00     0.048 A 
BRANCH  34  35
HETATM   35  C   UNK N   1      29.238  11.402   1.603  0.00  0.00    -0.029 C 
HETATM   36  C   UNK N   1      30.141  11.337   0.625  0.00  0.00     0.007 C 
ENDBRANCH  34  35
BRANCH  32  37
HETATM   37  C   UNK N   1      25.618  12.937   2.162  0.00  0.00     0.260 C 
HETATM   38  O   UNK N   1      25.445  13.947   1.500  0.00  0.00    -0.270 OA
HETATM   39  N   UNK N   1      24.562  12.239   2.666  0.00  0.00    -0.252 N 
HETATM   40  H   UNK N   1      24.740  11.489   3.278  0.00  0.00     0.181 HD
BRANCH  39  41
HETATM   41  S   UNK N   1      22.893  12.625   2.270  0.00  0.00     0.237 S 
HETATM   42  O   UNK N   1      22.850  12.621   3.804  0.00  0.00    -0.205 OA
HETATM   43  O   UNK N   1      22.131  11.297   2.375  0.00  0.00    -0.205 OA
BRANCH  41  44
HETATM   44  C   UNK N   1      21.850  14.008   2.827  0.00  0.00     0.130 A 
HETATM   45  C   UNK N   1      21.593  14.910   1.636  0.00  0.00     0.023 A 
HETATM   46  C   UNK N   1      22.552  15.341   2.723  0.00  0.00     0.023 A 
ENDBRANCH  41  44
ENDBRANCH  39  41
ENDBRANCH  32  37
ENDBRANCH  30  32
ENDBRANCH   7  28
BRANCH   1  47
HETATM   47  C   UNK N   1      32.009  15.039   4.940  0.00  0.00     0.094 C 
BRANCH  47  48
HETATM   48  C   UNK N   1      33.175  15.915   4.375  0.00  0.00    -0.039 C 
HETATM   49  C   UNK N   1      33.286  15.751   2.867  0.00  0.00     0.015 C 
HETATM   50  C   UNK N   1      33.004  17.383   4.691  0.00  0.00     0.015 C 
HETATM   51  C   UNK N   1      34.509  15.538   5.010  0.00  0.00     0.015 C 
ENDBRANCH  47  48
BRANCH  47  52
HETATM   52  C   UNK N   1      31.371  15.553   6.244  0.00  0.00     0.117 C 
BRANCH  52  53
HETATM   53  C   UNK N   1      32.058  14.976   7.466  0.00  0.00     0.220 C 
HETATM   54  O   UNK N   1      32.121  13.761   7.573  0.00  0.00    -0.273 OA
HETATM   55  N   UNK N   1      32.620  15.766   8.433  0.00  0.00    -0.352 N 
HETATM   56  C   UNK N   1      33.248  15.169   9.594  0.00  0.00     0.125 C 
HETATM   57  C   UNK N   1      32.663  17.204   8.323  0.00  0.00     0.125 C 
HETATM   58  C   UNK N   1      34.712  15.596   9.651  0.00  0.00     0.020 C 
HETATM   59  C   UNK N   1      34.821  17.121   9.592  0.00  0.00     0.003 C 
HETATM   60  C   UNK N   1      34.122  17.662   8.345  0.00  0.00     0.020 C 
ENDBRANCH  52  53
ENDBRANCH  47  52
ENDBRANCH   1  47
TORSDOF 14
ENDMDL
MODEL 3
REMARK VINA RESULT:      -8.7      1.468      3.457
REMARK  14 active torsions:
REMARK  status: ('A' for Active; 'I' for Inactive)
REMARK    1  A    between atoms: C_2  and  C_5 
REMARK    2  A    between atoms: C_5  and  C_6 
REMARK    3  A    between atoms: C_5  and  C_15 
REMARK    4  A    between atoms: C_6  and  C_7 
REMARK       I    between atoms: C_7  and  N_9 
REMARK       I    between atoms: C_15  and  N_17 
REMARK    5  A    between atoms: C_19  and  O_39 
REMARK    6  A    between atoms: C_21  and  C_22 
REMARK       I    between atoms: C_22  and  N_24 
REMARK    7  A    between atoms: C_25  and  N_24 
REMARK    8  A    between atoms: C_25  and  C_30 
REMARK    9  A    between atoms: C_27  and  C_28 
REMARK       I    between atoms: C_30  and  N_32 
REMARK   10  A    between atoms: N_32  and  S_33 
REMARK   11  A    between atoms: S_33  and  C_36 
REMARK   12  A    between atoms: O_39  and  C_40 
REMARK   13  A    between atoms: C_42  and  C_53 
REMARK   14  A    between atoms: C_49  and  O_51 
ROOT
HETATM    1  C   UNK N   1      29.161  16.957   5.053  0.00  0.00     0.226 C 
HETATM    2  O   UNK N   1      29.241  18.117   4.677  0.00  0.00    -0.273 OA
HETATM    3  N   UNK N   1      27.979  16.527   5.558  0.00  0.00    -0.336 N 
HETATM    4  C   UNK N   1      27.840  15.288   6.254  0.00  0.00     0.159 C 
HETATM    5  C   UNK N   1      26.371  15.119   6.491  0.00  0.00     0.149 C 
HETATM    6  C   UNK N   1      25.693  16.421   6.009  0.00  0.00     0.069 C 
HETATM    7  C   UNK N   1      26.757  17.234   5.299  0.00  0.00     0.181 C 
ENDROOT
BRANCH   5   8
HETATM    8  O   UNK N   1      25.990  13.967   5.827  0.00  0.00    -0.343 OA
BRANCH   8   9
HETATM    9  C   UNK N   1      24.714  13.544   5.762  0.00  0.00     0.084 A 
HETATM   10  C   UNK N   1      24.037  13.593   4.559  0.00  0.00     0.068 A 
HETATM   11  C   UNK N   1      22.705  13.224   4.472  0.00  0.00     0.045 A 
HETATM   12  N   UNK N   1      22.047  12.800   5.592  0.00  0.00    -0.355 N 
HETATM   13  C   UNK N   1      22.682  12.739   6.800  0.00  0.00     0.048 A 
ATOM     14  HN  UNK N   1      21.068  12.526   5.525  1.00  0.00     0.166 HD
HETATM   15  C   UNK N   1      24.043  13.111   6.906  0.00  0.00     0.024 A 
HETATM   16  C   UNK N   1      21.975  12.379   7.952  0.00  0.00     0.067 A 
HETATM   17  C   UNK N   1      24.678  13.099   8.151  0.00  0.00     0.019 A 
HETATM   18  C   UNK N   1      23.964  12.747   9.295  0.00  0.00     0.038 A 
HETATM   19  C   UNK N   1      22.606  12.393   9.205  0.00  0.00     0.070 A 
BRANCH  11  20
HETATM   20  C   UNK N   1      22.013  13.441   3.192  0.00  0.00    -0.009 A 
HETATM   21  C   UNK N   1      22.699  13.907   2.064  0.00  0.00     0.013 A 
HETATM   22  C   UNK N   1      22.037  14.011   0.837  0.00  0.00     0.001 A 
HETATM   23  C   UNK N   1      20.695  13.636   0.729  0.00  0.00     0.000 A 
HETATM   24  C   UNK N   1      20.007  13.172   1.850  0.00  0.00     0.001 A 
HETATM   25  C   UNK N   1      20.659  13.077   3.072  0.00  0.00     0.013 A 
ENDBRANCH  11  20
BRANCH  19  26
HETATM   26  O   UNK N   1      21.884  12.090  10.309  0.00  0.00    -0.356 OA
HETATM   27  C   UNK N   1      22.437  11.992  11.566  0.00  0.00     0.210 C 
ENDBRANCH  19  26
ENDBRANCH   8   9
ENDBRANCH   5   8
BRANCH   7  28
HETATM   28  C   UNK N   1      26.534  17.190   3.789  0.00  0.00     0.241 C 
HETATM   29  O   UNK N   1      27.123  16.347   3.127  0.00  0.00    -0.271 OA
HETATM   30  N   UNK N   1      25.788  18.123   3.142  0.00  0.00    -0.341 N 
HETATM   31  H   UNK N   1      25.826  18.151   2.159  0.00  0.00     0.163 HD
BRANCH  30  32
HETATM   32  C   UNK N   1      24.941  19.075   3.819  0.00  0.00     0.122 A 
HETATM   33  C   UNK N   1      25.004  20.387   3.049  0.00  0.00     0.053 A 
HETATM   34  C   UNK N   1      25.471  20.368   4.475  0.00  0.00     0.048 A 
BRANCH  34  35
HETATM   35  C   UNK N   1      26.945  20.597   4.433  0.00  0.00    -0.029 C 
HETATM   36  C   UNK N   1      27.591  20.947   5.544  0.00  0.00     0.007 C 
ENDBRANCH  34  35
BRANCH  32  37
HETATM   37  C   UNK N   1      23.498  18.701   3.887  0.00  0.00     0.260 C 
HETATM   38  O   UNK N   1      23.177  17.621   4.354  0.00  0.00    -0.270 OA
HETATM   39  N   UNK N   1      22.556  19.581   3.447  0.00  0.00    -0.252 N 
HETATM   40  H   UNK N   1      22.852  20.398   2.985  0.00  0.00     0.181 HD
BRANCH  39  41
HETATM   41  S   UNK N   1      20.831  19.318   3.669  0.00  0.00     0.237 S 
HETATM   42  O   UNK N   1      20.900  19.647   2.171  0.00  0.00    -0.205 OA
HETATM   43  O   UNK N   1      20.220  20.717   3.817  0.00  0.00    -0.205 OA
BRANCH  41  44
HETATM   44  C   UNK N   1      19.695  18.212   2.775  0.00  0.00     0.130 A 
HETATM   45  C   UNK N   1      19.865  16.813   3.335  0.00  0.00     0.023 A 
HETATM   46  C   UNK N   1      20.422  17.159   1.972  0.00  0.00     0.023 A 
ENDBRANCH  41  44
ENDBRANCH  39  41
ENDBRANCH  32  37
ENDBRANCH  30  32
ENDBRANCH   7  28
BRANCH   1  47
HETATM   47  C   UNK N   1      30.324  16.005   4.782  0.00  0.00     0.094 C 
BRANCH  47  48
HETATM   48  C   UNK N   1      31.545  16.253   5.727  0.00  0.00    -0.039 C 
HETATM   49  C   UNK N   1      32.577  17.140   5.048  0.00  0.00     0.015 C 
HETATM   50  C   UNK N   1      31.144  16.894   7.036  0.00  0.00     0.015 C 
HETATM   51  C   UNK N   1      32.210  14.942   6.129  0.00  0.00     0.015 C 
ENDBRANCH  47  48
BRANCH  47  52
HETATM   52  C   UNK N   1      29.908  14.531   4.615  0.00  0.00     0.117 C 
BRANCH  52  53
HETATM   53  C   UNK N   1      30.108  14.052   3.190  0.00  0.00     0.220 C 
HETATM   54  O   UNK N   1      31.209  14.197   2.683  0.00  0.00    -0.273 OA
HETATM   55  N   UNK N   1      29.109  13.454   2.471  0.00  0.00    -0.352 N 
HETATM   56  C   UNK N   1      29.341  13.032   1.105  0.00  0.00     0.125 C 
HETATM   57  C   UNK N   1      27.814  13.169   3.041  0.00  0.00     0.125 C 
HETATM   58  C   UNK N   1      29.105  11.528   0.994  0.00  0.00     0.020 C 
HETATM   59  C   UNK N   1      27.720  11.169   1.536  0.00  0.00     0.003 C 
HETATM   60  C   UNK N   1      27.561  11.663   2.974  0.00  0.00     0.020 C 
ENDBRANCH  52  53
ENDBRANCH  47  52
ENDBRANCH   1  47
TORSDOF 14
ENDMDL
MODEL 4
REMARK VINA RESULT:      -8.7      1.780      5.060
REMARK  14 active torsions:
REMARK  status: ('A' for Active; 'I' for Inactive)
REMARK    1  A    between atoms: C_2  and  C_5 
REMARK    2  A    between atoms: C_5  and  C_6 
REMARK    3  A    between atoms: C_5  and  C_15 
REMARK    4  A    between atoms: C_6  and  C_7 
REMARK       I    between atoms: C_7  and  N_9 
REMARK       I    between atoms: C_15  and  N_17 
REMARK    5  A    between atoms: C_19  and  O_39 
REMARK    6  A    between atoms: C_21  and  C_22 
REMARK       I    between atoms: C_22  and  N_24 
REMARK    7  A    between atoms: C_25  and  N_24 
REMARK    8  A    between atoms: C_25  and  C_30 
REMARK    9  A    between atoms: C_27  and  C_28 
REMARK       I    between atoms: C_30  and  N_32 
REMARK   10  A    between atoms: N_32  and  S_33 
REMARK   11  A    between atoms: S_33  and  C_36 
REMARK   12  A    between atoms: O_39  and  C_40 
REMARK   13  A    between atoms: C_42  and  C_53 
REMARK   14  A    between atoms: C_49  and  O_51 
ROOT
HETATM    1  C   UNK N   1      29.476  17.124   5.041  0.00  0.00     0.226 C 
HETATM    2  O   UNK N   1      29.646  18.237   4.565  0.00  0.00    -0.273 OA
HETATM    3  N   UNK N   1      28.280  16.850   5.617  0.00  0.00    -0.336 N 
HETATM    4  C   UNK N   1      28.057  15.691   6.421  0.00  0.00     0.159 C 
HETATM    5  C   UNK N   1      26.589  15.679   6.717  0.00  0.00     0.149 C 
HETATM    6  C   UNK N   1      26.014  16.994   6.146  0.00  0.00     0.069 C 
HETATM    7  C   UNK N   1      27.118  17.643   5.336  0.00  0.00     0.181 C 
ENDROOT
BRANCH   5   8
HETATM    8  O   UNK N   1      26.081  14.516   6.166  0.00  0.00    -0.343 OA
BRANCH   8   9
HETATM    9  C   UNK N   1      24.817  14.100   6.366  0.00  0.00     0.084 A 
HETATM   10  C   UNK N   1      24.412  13.723   7.632  0.00  0.00     0.068 A 
HETATM   11  C   UNK N   1      23.137  13.231   7.858  0.00  0.00     0.045 A 
HETATM   12  N   UNK N   1      22.261  13.119   6.815  0.00  0.00    -0.355 N 
HETATM   13  C   UNK N   1      22.625  13.480   5.549  0.00  0.00     0.048 A 
ATOM     14  HN  UNK N   1      21.323  12.760   6.985  1.00  0.00     0.166 HD
HETATM   15  C   UNK N   1      23.923  13.986   5.301  0.00  0.00     0.024 A 
HETATM   16  C   UNK N   1      21.745  13.286   4.479  0.00  0.00     0.067 A 
HETATM   17  C   UNK N   1      24.313  14.306   3.998  0.00  0.00     0.019 A 
HETATM   18  C   UNK N   1      23.433  14.102   2.937  0.00  0.00     0.038 A 
HETATM   19  C   UNK N   1      22.147  13.582   3.168  0.00  0.00     0.070 A 
BRANCH  11  20
HETATM   20  C   UNK N   1      22.827  12.715   9.201  0.00  0.00    -0.009 A 
HETATM   21  C   UNK N   1      23.843  12.336  10.086  0.00  0.00     0.013 A 
HETATM   22  C   UNK N   1      23.522  11.940  11.389  0.00  0.00     0.001 A 
HETATM   23  C   UNK N   1      22.191  11.937  11.815  0.00  0.00     0.000 A 
HETATM   24  C   UNK N   1      21.176  12.313  10.936  0.00  0.00     0.001 A 
HETATM   25  C   UNK N   1      21.490  12.697   9.639  0.00  0.00     0.013 A 
ENDBRANCH  11  20
BRANCH  19  26
HETATM   26  O   UNK N   1      21.293  13.336   2.147  0.00  0.00    -0.356 OA
HETATM   27  C   UNK N   1      21.706  13.177   0.843  0.00  0.00     0.210 C 
ENDBRANCH  19  26
ENDBRANCH   8   9
ENDBRANCH   5   8
BRANCH   7  28
HETATM   28  C   UNK N   1      26.834  17.496   3.844  0.00  0.00     0.241 C 
HETATM   29  O   UNK N   1      27.467  16.672   3.199  0.00  0.00    -0.271 OA
HETATM   30  N   UNK N   1      25.979  18.323   3.186  0.00  0.00    -0.341 N 
HETATM   31  H   UNK N   1      25.972  18.299   2.202  0.00  0.00     0.163 HD
BRANCH  30  32
HETATM   32  C   UNK N   1      25.081  19.234   3.854  0.00  0.00     0.122 A 
HETATM   33  C   UNK N   1      25.124  20.562   3.110  0.00  0.00     0.053 A 
HETATM   34  C   UNK N   1      25.548  20.530   4.549  0.00  0.00     0.048 A 
BRANCH  34  35
HETATM   35  C   UNK N   1      27.014  20.808   4.556  0.00  0.00    -0.029 C 
HETATM   36  C   UNK N   1      27.608  21.185   5.687  0.00  0.00     0.007 C 
ENDBRANCH  34  35
BRANCH  32  37
HETATM   37  C   UNK N   1      23.650  18.812   3.869  0.00  0.00     0.260 C 
HETATM   38  O   UNK N   1      23.354  17.704   4.288  0.00  0.00    -0.270 OA
HETATM   39  N   UNK N   1      22.691  19.677   3.438  0.00  0.00    -0.252 N 
HETATM   40  H   UNK N   1      22.971  20.520   3.014  0.00  0.00     0.181 HD
BRANCH  39  41
HETATM   41  S   UNK N   1      20.971  19.350   3.605  0.00  0.00     0.237 S 
HETATM   42  O   UNK N   1      21.062  19.761   2.129  0.00  0.00    -0.205 OA
HETATM   43  O   UNK N   1      20.313  20.721   3.811  0.00  0.00    -0.205 OA
BRANCH  41  44
HETATM   44  C   UNK N   1      19.890  18.260   2.628  0.00  0.00     0.130 A 
HETATM   45  C   UNK N   1      19.594  17.027   3.460  0.00  0.00     0.023 A 
HETATM   46  C   UNK N   1      20.548  16.944   2.289  0.00  0.00     0.023 A 
ENDBRANCH  41  44
ENDBRANCH  39  41
ENDBRANCH  32  37
ENDBRANCH  30  32
ENDBRANCH   7  28
BRANCH   1  47
HETATM   47  C   UNK N   1      30.537  16.049   4.817  0.00  0.00     0.094 C 
BRANCH  47  48
HETATM   48  C   UNK N   1      31.756  16.187   5.787  0.00  0.00    -0.039 C 
HETATM   49  C   UNK N   1      32.278  14.817   6.190  0.00  0.00     0.015 C 
HETATM   50  C   UNK N   1      32.893  16.978   5.181  0.00  0.00     0.015 C 
HETATM   51  C   UNK N   1      31.379  16.960   7.045  0.00  0.00     0.015 C 
ENDBRANCH  47  48
BRANCH  47  52
HETATM   52  C   UNK N   1      29.971  14.624   4.668  0.00  0.00     0.117 C 
BRANCH  52  53
HETATM   53  C   UNK N   1      30.081  14.126   3.241  0.00  0.00     0.220 C 
HETATM   54  O   UNK N   1      31.170  14.186   2.691  0.00  0.00    -0.273 OA
HETATM   55  N   UNK N   1      29.014  13.601   2.564  0.00  0.00    -0.352 N 
HETATM   56  C   UNK N   1      29.162  13.156   1.193  0.00  0.00     0.125 C 
HETATM   57  C   UNK N   1      27.724  13.415   3.183  0.00  0.00     0.125 C 
HETATM   58  C   UNK N   1      28.811  11.674   1.101  0.00  0.00     0.020 C 
HETATM   59  C   UNK N   1      27.425  11.421   1.697  0.00  0.00     0.003 C 
HETATM   60  C   UNK N   1      27.357  11.932   3.137  0.00  0.00     0.020 C 
ENDBRANCH  52  53
ENDBRANCH  47  52
ENDBRANCH   1  47
TORSDOF 14
ENDMDL
MODEL 5
REMARK VINA RESULT:      -8.6      1.308      3.871
REMARK  14 active torsions:
REMARK  status: ('A' for Active; 'I' for Inactive)
REMARK    1  A    between atoms: C_2  and  C_5 
REMARK    2  A    between atoms: C_5  and  C_6 
REMARK    3  A    between atoms: C_5  and  C_15 
REMARK    4  A    between atoms: C_6  and  C_7 
REMARK       I    between atoms: C_7  and  N_9 
REMARK       I    between atoms: C_15  and  N_17 
REMARK    5  A    between atoms: C_19  and  O_39 
REMARK    6  A    between atoms: C_21  and  C_22 
REMARK       I    between atoms: C_22  and  N_24 
REMARK    7  A    between atoms: C_25  and  N_24 
REMARK    8  A    between atoms: C_25  and  C_30 
REMARK    9  A    between atoms: C_27  and  C_28 
REMARK       I    between atoms: C_30  and  N_32 
REMARK   10  A    between atoms: N_32  and  S_33 
REMARK   11  A    between atoms: S_33  and  C_36 
REMARK   12  A    between atoms: O_39  and  C_40 
REMARK   13  A    between atoms: C_42  and  C_53 
REMARK   14  A    between atoms: C_49  and  O_51 
ROOT
HETATM    1  C   UNK N   1      28.823  16.080   4.694  0.00  0.00     0.226 C 
HETATM    2  O   UNK N   1      29.103  17.164   4.204  0.00  0.00    -0.273 OA
HETATM    3  N   UNK N   1      27.651  15.964   5.364  0.00  0.00    -0.336 N 
HETATM    4  C   UNK N   1      27.338  14.839   6.185  0.00  0.00     0.159 C 
HETATM    5  C   UNK N   1      25.910  15.022   6.597  0.00  0.00     0.149 C 
HETATM    6  C   UNK N   1      25.473  16.407   6.072  0.00  0.00     0.069 C 
HETATM    7  C   UNK N   1      26.587  16.909   5.175  0.00  0.00     0.181 C 
ENDROOT
BRANCH   5   8
HETATM    8  O   UNK N   1      25.207  13.943   6.092  0.00  0.00    -0.343 OA
BRANCH   8   9
HETATM    9  C   UNK N   1      23.972  13.610   6.509  0.00  0.00     0.084 A 
HETATM   10  C   UNK N   1      23.737  13.399   7.853  0.00  0.00     0.068 A 
HETATM   11  C   UNK N   1      22.492  12.994   8.307  0.00  0.00     0.045 A 
HETATM   12  N   UNK N   1      21.477  12.802   7.412  0.00  0.00    -0.355 N 
HETATM   13  C   UNK N   1      21.671  12.999   6.075  0.00  0.00     0.048 A 
ATOM     14  HN  UNK N   1      20.561  12.507   7.749  1.00  0.00     0.166 HD
HETATM   15  C   UNK N   1      22.936  13.414   5.595  0.00  0.00     0.024 A 
HETATM   16  C   UNK N   1      20.645  12.722   5.164  0.00  0.00     0.067 A 
HETATM   17  C   UNK N   1      23.150  13.564   4.222  0.00  0.00     0.019 A 
HETATM   18  C   UNK N   1      22.125  13.279   3.321  0.00  0.00     0.038 A 
HETATM   19  C   UNK N   1      20.870  12.847   3.785  0.00  0.00     0.070 A 
BRANCH  11  20
HETATM   20  C   UNK N   1      22.357  12.650   9.731  0.00  0.00    -0.009 A 
HETATM   21  C   UNK N   1      21.100  12.564  10.342  0.00  0.00     0.013 A 
HETATM   22  C   UNK N   1      20.997  12.141  11.671  0.00  0.00     0.001 A 
HETATM   23  C   UNK N   1      22.144  11.788  12.387  0.00  0.00     0.000 A 
HETATM   24  C   UNK N   1      23.398  11.873  11.783  0.00  0.00     0.001 A 
HETATM   25  C   UNK N   1      23.505  12.302  10.467  0.00  0.00     0.013 A 
ENDBRANCH  11  20
BRANCH  19  26
HETATM   26  O   UNK N   1      19.876  12.524   2.925  0.00  0.00    -0.356 OA
HETATM   27  C   UNK N   1      19.140  13.464   2.238  0.00  0.00     0.210 C 
ENDBRANCH  19  26
ENDBRANCH   8   9
ENDBRANCH   5   8
BRANCH   7  28
HETATM   28  C   UNK N   1      26.169  16.814   3.710  0.00  0.00     0.241 C 
HETATM   29  O   UNK N   1      26.485  15.823   3.067  0.00  0.00    -0.271 OA
HETATM   30  N   UNK N   1      25.552  17.840   3.068  0.00  0.00    -0.341 N 
HETATM   31  H   UNK N   1      25.469  17.794   2.087  0.00  0.00     0.163 HD
BRANCH  30  32
HETATM   32  C   UNK N   1      25.010  18.993   3.745  0.00  0.00     0.122 A 
HETATM   33  C   UNK N   1      25.159  20.192   2.818  0.00  0.00     0.053 A 
HETATM   34  C   UNK N   1      25.858  20.219   4.146  0.00  0.00     0.048 A 
BRANCH  34  35
HETATM   35  C   UNK N   1      27.319  20.162   3.848  0.00  0.00    -0.029 C 
HETATM   36  C   UNK N   1      28.200  20.253   4.843  0.00  0.00     0.007 C 
ENDBRANCH  34  35
BRANCH  32  37
HETATM   37  C   UNK N   1      23.559  18.905   4.081  0.00  0.00     0.260 C 
HETATM   38  O   UNK N   1      23.219  18.490   5.177  0.00  0.00    -0.270 OA
HETATM   39  N   UNK N   1      22.633  19.312   3.168  0.00  0.00    -0.252 N 
HETATM   40  H   UNK N   1      22.935  19.546   2.261  0.00  0.00     0.181 HD
BRANCH  39  41
HETATM   41  S   UNK N   1      20.919  19.436   3.543  0.00  0.00     0.237 S 
HETATM   42  O   UNK N   1      20.899  19.453   2.008  0.00  0.00    -0.205 OA
HETATM   43  O   UNK N   1      20.584  20.929   3.435  0.00  0.00    -0.205 OA
BRANCH  41  44
HETATM   44  C   UNK N   1      19.522  18.422   2.966  0.00  0.00     0.130 A 
HETATM   45  C   UNK N   1      19.584  17.088   3.684  0.00  0.00     0.023 A 
HETATM   46  C   UNK N   1      19.971  17.184   2.225  0.00  0.00     0.023 A 
ENDBRANCH  41  44
ENDBRANCH  39  41
ENDBRANCH  32  37
ENDBRANCH  30  32
ENDBRANCH   7  28
BRANCH   1  47
HETATM   47  C   UNK N   1      29.709  14.875   4.389  0.00  0.00     0.094 C 
BRANCH  47  48
HETATM   48  C   UNK N   1      29.391  14.223   3.003  0.00  0.00    -0.039 C 
HETATM   49  C   UNK N   1      28.215  13.266   3.118  0.00  0.00     0.015 C 
HETATM   50  C   UNK N   1      29.076  15.249   1.938  0.00  0.00     0.015 C 
HETATM   51  C   UNK N   1      30.594  13.462   2.459  0.00  0.00     0.015 C 
ENDBRANCH  47  48
BRANCH  47  52
HETATM   52  C   UNK N   1      31.204  15.098   4.685  0.00  0.00     0.117 C 
BRANCH  52  53
HETATM   53  C   UNK N   1      31.535  14.806   6.135  0.00  0.00     0.220 C 
HETATM   54  O   UNK N   1      31.564  13.640   6.497  0.00  0.00    -0.273 OA
HETATM   55  N   UNK N   1      31.817  15.797   7.036  0.00  0.00    -0.352 N 
HETATM   56  C   UNK N   1      32.108  15.471   8.417  0.00  0.00     0.125 C 
HETATM   57  C   UNK N   1      31.892  17.187   6.655  0.00  0.00     0.125 C 
HETATM   58  C   UNK N   1      33.503  15.977   8.773  0.00  0.00     0.020 C 
HETATM   59  C   UNK N   1      33.627  17.464   8.439  0.00  0.00     0.003 C 
HETATM   60  C   UNK N   1      33.292  17.716   6.969  0.00  0.00     0.020 C 
ENDBRANCH  52  53
ENDBRANCH  47  52
ENDBRANCH   1  47
TORSDOF 14
ENDMDL
MODEL 6
REMARK VINA RESULT:      -8.5      2.223      8.073
REMARK  14 active torsions:
REMARK  status: ('A' for Active; 'I' for Inactive)
REMARK    1  A    between atoms: C_2  and  C_5 
REMARK    2  A    between atoms: C_5  and  C_6 
REMARK    3  A    between atoms: C_5  and  C_15 
REMARK    4  A    between atoms: C_6  and  C_7 
REMARK       I    between atoms: C_7  and  N_9 
REMARK       I    between atoms: C_15  and  N_17 
REMARK    5  A    between atoms: C_19  and  O_39 
REMARK    6  A    between atoms: C_21  and  C_22 
REMARK       I    between atoms: C_22  and  N_24 
REMARK    7  A    between atoms: C_25  and  N_24 
REMARK    8  A    between atoms: C_25  and  C_30 
REMARK    9  A    between atoms: C_27  and  C_28 
REMARK       I    between atoms: C_30  and  N_32 
REMARK   10  A    between atoms: N_32  and  S_33 
REMARK   11  A    between atoms: S_33  and  C_36 
REMARK   12  A    between atoms: O_39  and  C_40 
REMARK   13  A    between atoms: C_42  and  C_53 
REMARK   14  A    between atoms: C_49  and  O_51 
ROOT
HETATM    1  C   UNK N   1      24.319  15.091   3.041  0.00  0.00     0.226 C 
HETATM    2  O   UNK N   1      23.550  16.029   3.188  0.00  0.00    -0.273 OA
HETATM    3  N   UNK N   1      25.643  15.359   2.932  0.00  0.00    -0.336 N 
HETATM    4  C   UNK N   1      26.597  14.385   2.508  0.00  0.00     0.159 C 
HETATM    5  C   UNK N   1      27.938  15.027   2.686  0.00  0.00     0.149 C 
HETATM    6  C   UNK N   1      27.675  16.490   3.104  0.00  0.00     0.069 C 
HETATM    7  C   UNK N   1      26.189  16.610   3.376  0.00  0.00     0.181 C 
ENDROOT
BRANCH   5   8
HETATM    8  O   UNK N   1      28.630  14.258   3.604  0.00  0.00    -0.343 OA
BRANCH   8   9
HETATM    9  C   UNK N   1      29.632  14.742   4.361  0.00  0.00     0.084 A 
HETATM   10  C   UNK N   1      29.342  15.517   5.467  0.00  0.00     0.068 A 
HETATM   11  C   UNK N   1      30.352  16.080   6.230  0.00  0.00     0.045 A 
HETATM   12  N   UNK N   1      31.657  15.865   5.887  0.00  0.00    -0.355 N 
HETATM   13  C   UNK N   1      31.984  15.106   4.800  0.00  0.00     0.048 A 
ATOM     14  HN  UNK N   1      32.398  16.278   6.452  1.00  0.00     0.166 HD
HETATM   15  C   UNK N   1      30.965  14.521   4.011  0.00  0.00     0.024 A 
HETATM   16  C   UNK N   1      33.321  14.959   4.416  0.00  0.00     0.067 A 
HETATM   17  C   UNK N   1      31.296  13.788   2.869  0.00  0.00     0.019 A 
HETATM   18  C   UNK N   1      32.630  13.654   2.489  0.00  0.00     0.038 A 
HETATM   19  C   UNK N   1      33.651  14.247   3.254  0.00  0.00     0.070 A 
BRANCH  11  20
HETATM   20  C   UNK N   1      29.967  17.010   7.303  0.00  0.00    -0.009 A 
HETATM   21  C   UNK N   1      28.626  17.183   7.668  0.00  0.00     0.013 A 
HETATM   22  C   UNK N   1      28.298  18.000   8.755  0.00  0.00     0.001 A 
HETATM   23  C   UNK N   1      29.306  18.632   9.489  0.00  0.00     0.000 A 
HETATM   24  C   UNK N   1      30.643  18.462   9.128  0.00  0.00     0.001 A 
HETATM   25  C   UNK N   1      30.971  17.660   8.043  0.00  0.00     0.013 A 
ENDBRANCH  11  20
BRANCH  19  26
HETATM   26  O   UNK N   1      34.949  14.165   2.879  0.00  0.00    -0.356 OA
HETATM   27  C   UNK N   1      35.353  13.611   1.684  0.00  0.00     0.210 C 
ENDBRANCH  19  26
ENDBRANCH   8   9
ENDBRANCH   5   8
BRANCH   7  28
HETATM   28  C   UNK N   1      25.932  16.696   4.878  0.00  0.00     0.241 C 
HETATM   29  O   UNK N   1      26.166  15.718   5.576  0.00  0.00    -0.271 OA
HETATM   30  N   UNK N   1      25.351  17.782   5.451  0.00  0.00    -0.341 N 
HETATM   31  H   UNK N   1      25.047  17.711   6.385  0.00  0.00     0.163 HD
BRANCH  30  32
HETATM   32  C   UNK N   1      25.157  19.036   4.764  0.00  0.00     0.122 A 
HETATM   33  C   UNK N   1      26.318  19.224   3.797  0.00  0.00     0.053 A 
HETATM   34  C   UNK N   1      26.124  20.232   4.891  0.00  0.00     0.048 A 
BRANCH  34  35
HETATM   35  C   UNK N   1      27.286  20.073   5.813  0.00  0.00    -0.029 C 
HETATM   36  C   UNK N   1      27.762  21.133   6.464  0.00  0.00     0.007 C 
ENDBRANCH  34  35
BRANCH  32  37
HETATM   37  C   UNK N   1      23.913  19.122   3.944  0.00  0.00     0.260 C 
HETATM   38  O   UNK N   1      23.973  19.559   2.806  0.00  0.00    -0.270 OA
HETATM   39  N   UNK N   1      22.733  18.689   4.468  0.00  0.00    -0.252 N 
HETATM   40  H   UNK N   1      22.702  18.437   5.419  0.00  0.00     0.181 HD
BRANCH  39  41
HETATM   41  S   UNK N   1      21.260  18.562   3.515  0.00  0.00     0.237 S 
HETATM   42  O   UNK N   1      20.834  19.553   4.607  0.00  0.00    -0.205 OA
HETATM   43  O   UNK N   1      20.375  17.557   4.264  0.00  0.00    -0.205 OA
BRANCH  41  44
HETATM   44  C   UNK N   1      20.246  19.867   2.755  0.00  0.00     0.130 A 
HETATM   45  C   UNK N   1      20.735  20.072   1.334  0.00  0.00     0.023 A 
HETATM   46  C   UNK N   1      21.052  21.095   2.401  0.00  0.00     0.023 A 
ENDBRANCH  41  44
ENDBRANCH  39  41
ENDBRANCH  32  37
ENDBRANCH  30  32
ENDBRANCH   7  28
BRANCH   1  47
HETATM   47  C   UNK N   1      23.784  13.665   3.158  0.00  0.00     0.094 C 
BRANCH  47  48
HETATM   48  C   UNK N   1      23.384  13.052   1.776  0.00  0.00    -0.039 C 
HETATM   49  C   UNK N   1      21.951  12.545   1.810  0.00  0.00     0.015 C 
HETATM   50  C   UNK N   1      23.519  14.041   0.641  0.00  0.00     0.015 C 
HETATM   51  C   UNK N   1      24.305  11.899   1.393  0.00  0.00     0.015 C 
ENDBRANCH  47  48
BRANCH  47  52
HETATM   52  C   UNK N   1      24.623  12.749   4.068  0.00  0.00     0.117 C 
BRANCH  52  53
HETATM   53  C   UNK N   1      23.751  11.967   5.030  0.00  0.00     0.220 C 
HETATM   54  O   UNK N   1      23.275  10.909   4.647  0.00  0.00    -0.273 OA
HETATM   55  N   UNK N   1      23.498  12.397   6.304  0.00  0.00    -0.352 N 
HETATM   56  C   UNK N   1      22.640  11.626   7.181  0.00  0.00     0.125 C 
HETATM   57  C   UNK N   1      24.102  13.589   6.850  0.00  0.00     0.125 C 
HETATM   58  C   UNK N   1      23.423  11.222   8.427  0.00  0.00     0.020 C 
HETATM   59  C   UNK N   1      24.047  12.455   9.083  0.00  0.00     0.003 C 
HETATM   60  C   UNK N   1      24.923  13.212   8.083  0.00  0.00     0.020 C 
ENDBRANCH  52  53
ENDBRANCH  47  52
ENDBRANCH   1  47
TORSDOF 14
ENDMDL
MODEL 7
REMARK VINA RESULT:      -8.4      6.332     12.795
REMARK  14 active torsions:
REMARK  status: ('A' for Active; 'I' for Inactive)
REMARK    1  A    between atoms: C_2  and  C_5 
REMARK    2  A    between atoms: C_5  and  C_6 
REMARK    3  A    between atoms: C_5  and  C_15 
REMARK    4  A    between atoms: C_6  and  C_7 
REMARK       I    between atoms: C_7  and  N_9 
REMARK       I    between atoms: C_15  and  N_17 
REMARK    5  A    between atoms: C_19  and  O_39 
REMARK    6  A    between atoms: C_21  and  C_22 
REMARK       I    between atoms: C_22  and  N_24 
REMARK    7  A    between atoms: C_25  and  N_24 
REMARK    8  A    between atoms: C_25  and  C_30 
REMARK    9  A    between atoms: C_27  and  C_28 
REMARK       I    between atoms: C_30  and  N_32 
REMARK   10  A    between atoms: N_32  and  S_33 
REMARK   11  A    between atoms: S_33  and  C_36 
REMARK   12  A    between atoms: O_39  and  C_40 
REMARK   13  A    between atoms: C_42  and  C_53 
REMARK   14  A    between atoms: C_49  and  O_51 
ROOT
HETATM    1  C   UNK N   1      31.638  14.687   6.201  0.00  0.00     0.226 C 
HETATM    2  O   UNK N   1      31.245  13.902   5.350  0.00  0.00    -0.273 OA
HETATM    3  N   UNK N   1      32.209  14.182   7.322  0.00  0.00    -0.336 N 
HETATM    4  C   UNK N   1      32.470  14.975   8.481  0.00  0.00     0.159 C 
HETATM    5  C   UNK N   1      33.244  14.093   9.410  0.00  0.00     0.149 C 
HETATM    6  C   UNK N   1      33.282  12.692   8.760  0.00  0.00     0.069 C 
HETATM    7  C   UNK N   1      32.717  12.840   7.361  0.00  0.00     0.181 C 
ENDROOT
BRANCH   5   8
HETATM    8  O   UNK N   1      34.475  14.696   9.599  0.00  0.00    -0.343 OA
BRANCH   8   9
HETATM    9  C   UNK N   1      35.457  14.147  10.338  0.00  0.00     0.084 A 
HETATM   10  C   UNK N   1      35.292  14.011  11.703  0.00  0.00     0.068 A 
HETATM   11  C   UNK N   1      36.307  13.507  12.499  0.00  0.00     0.045 A 
HETATM   12  N   UNK N   1      37.492  13.135  11.928  0.00  0.00    -0.355 N 
HETATM   13  C   UNK N   1      37.694  13.257  10.583  0.00  0.00     0.048 A 
ATOM     14  HN  UNK N   1      38.237  12.763  12.516  1.00  0.00     0.166 HD
HETATM   15  C   UNK N   1      36.666  13.767   9.755  0.00  0.00     0.024 A 
HETATM   16  C   UNK N   1      38.938  12.946  10.024  0.00  0.00     0.067 A 
HETATM   17  C   UNK N   1      36.890  13.941   8.386  0.00  0.00     0.019 A 
HETATM   18  C   UNK N   1      38.135  13.637   7.839  0.00  0.00     0.038 A 
HETATM   19  C   UNK N   1      39.170  13.147   8.655  0.00  0.00     0.070 A 
BRANCH  11  20
HETATM   20  C   UNK N   1      36.113  13.527  13.958  0.00  0.00    -0.009 A 
HETATM   21  C   UNK N   1      36.859  14.380  14.778  0.00  0.00     0.013 A 
HETATM   22  C   UNK N   1      36.586  14.447  16.149  0.00  0.00     0.001 A 
HETATM   23  C   UNK N   1      35.558  13.676  16.698  0.00  0.00     0.000 A 
HETATM   24  C   UNK N   1      34.813  12.823  15.884  0.00  0.00     0.001 A 
HETATM   25  C   UNK N   1      35.088  12.748  14.525  0.00  0.00     0.013 A 
ENDBRANCH  11  20
BRANCH  19  26
HETATM   26  O   UNK N   1      40.399  12.887   8.151  0.00  0.00    -0.356 OA
HETATM   27  C   UNK N   1      40.631  11.926   7.193  0.00  0.00     0.210 C 
ENDBRANCH  19  26
ENDBRANCH   8   9
ENDBRANCH   5   8
BRANCH   7  28
HETATM   28  C   UNK N   1      33.838  12.763   6.328  0.00  0.00     0.241 C 
HETATM   29  O   UNK N   1      34.714  13.616   6.340  0.00  0.00    -0.271 OA
HETATM   30  N   UNK N   1      33.837  11.843   5.329  0.00  0.00    -0.341 N 
HETATM   31  H   UNK N   1      34.482  11.952   4.593  0.00  0.00     0.163 HD
BRANCH  30  32
HETATM   32  C   UNK N   1      32.942  10.712   5.289  0.00  0.00     0.122 A 
HETATM   33  C   UNK N   1      33.207   9.951   3.997  0.00  0.00     0.053 A 
HETATM   34  C   UNK N   1      31.843  10.536   4.219  0.00  0.00     0.048 A 
BRANCH  34  35
HETATM   35  C   UNK N   1      31.690  11.628   3.215  0.00  0.00    -0.029 C 
HETATM   36  C   UNK N   1      30.546  11.753   2.543  0.00  0.00     0.007 C 
ENDBRANCH  34  35
BRANCH  32  37
HETATM   37  C   UNK N   1      33.118   9.726   6.395  0.00  0.00     0.260 C 
HETATM   38  O   UNK N   1      34.163   9.102   6.484  0.00  0.00    -0.270 OA
HETATM   39  N   UNK N   1      32.119   9.554   7.305  0.00  0.00    -0.252 N 
HETATM   40  H   UNK N   1      31.255   9.997   7.148  0.00  0.00     0.181 HD
BRANCH  39  41
HETATM   41  S   UNK N   1      32.311   8.570   8.751  0.00  0.00     0.237 S 
HETATM   42  O   UNK N   1      31.402   9.695   9.264  0.00  0.00    -0.205 OA
HETATM   43  O   UNK N   1      33.409   9.259   9.571  0.00  0.00    -0.205 OA
BRANCH  41  44
HETATM   44  C   UNK N   1      31.050   7.848   9.846  0.00  0.00     0.130 A 
HETATM   45  C   UNK N   1      31.425   6.401  10.101  0.00  0.00     0.023 A 
HETATM   46  C   UNK N   1      30.272   6.737   9.181  0.00  0.00     0.023 A 
ENDBRANCH  41  44
ENDBRANCH  39  41
ENDBRANCH  32  37
ENDBRANCH  30  32
ENDBRANCH   7  28
BRANCH   1  47
HETATM   47  C   UNK N   1      31.630  16.182   5.895  0.00  0.00     0.094 C 
BRANCH  47  48
HETATM   48  C   UNK N   1      32.886  16.644   5.084  0.00  0.00    -0.039 C 
HETATM   49  C   UNK N   1      33.363  15.534   4.160  0.00  0.00     0.015 C 
HETATM   50  C   UNK N   1      32.620  17.881   4.257  0.00  0.00     0.015 C 
HETATM   51  C   UNK N   1      34.029  17.039   6.011  0.00  0.00     0.015 C 
ENDBRANCH  47  48
BRANCH  47  52
HETATM   52  C   UNK N   1      30.279  16.713   5.376  0.00  0.00     0.117 C 
BRANCH  52  53
HETATM   53  C   UNK N   1      29.595  17.593   6.403  0.00  0.00     0.220 C 
HETATM   54  O   UNK N   1      30.109  17.699   7.507  0.00  0.00    -0.273 OA
HETATM   55  N   UNK N   1      28.442  18.279   6.130  0.00  0.00    -0.352 N 
HETATM   56  C   UNK N   1      27.813  19.091   7.150  0.00  0.00     0.125 C 
HETATM   57  C   UNK N   1      27.835  18.273   4.821  0.00  0.00     0.125 C 
HETATM   58  C   UNK N   1      27.733  20.537   6.668  0.00  0.00     0.020 C 
HETATM   59  C   UNK N   1      27.047  20.601   5.302  0.00  0.00     0.003 C 
HETATM   60  C   UNK N   1      27.770  19.707   4.294  0.00  0.00     0.020 C 
ENDBRANCH  52  53
ENDBRANCH  47  52
ENDBRANCH   1  47
TORSDOF 14
ENDMDL
MODEL 8
REMARK VINA RESULT:      -8.3      2.988      8.689
REMARK  14 active torsions:
REMARK  status: ('A' for Active; 'I' for Inactive)
REMARK    1  A    between atoms: C_2  and  C_5 
REMARK    2  A    between atoms: C_5  and  C_6 
REMARK    3  A    between atoms: C_5  and  C_15 
REMARK    4  A    between atoms: C_6  and  C_7 
REMARK       I    between atoms: C_7  and  N_9 
REMARK       I    between atoms: C_15  and  N_17 
REMARK    5  A    between atoms: C_19  and  O_39 
REMARK    6  A    between atoms: C_21  and  C_22 
REMARK       I    between atoms: C_22  and  N_24 
REMARK    7  A    between atoms: C_25  and  N_24 
REMARK    8  A    between atoms: C_25  and  C_30 
REMARK    9  A    between atoms: C_27  and  C_28 
REMARK       I    between atoms: C_30  and  N_32 
REMARK   10  A    between atoms: N_32  and  S_33 
REMARK   11  A    between atoms: S_33  and  C_36 
REMARK   12  A    between atoms: O_39  and  C_40 
REMARK   13  A    between atoms: C_42  and  C_53 
REMARK   14  A    between atoms: C_49  and  O_51 
ROOT
HETATM    1  C   UNK N   1      23.191  16.591   3.786  0.00  0.00     0.226 C 
HETATM    2  O   UNK N   1      23.375  17.796   3.697  0.00  0.00    -0.273 OA
HETATM    3  N   UNK N   1      24.261  15.768   3.656  0.00  0.00    -0.336 N 
HETATM    4  C   UNK N   1      24.134  14.356   3.489  0.00  0.00     0.159 C 
HETATM    5  C   UNK N   1      25.528  13.814   3.554  0.00  0.00     0.149 C 
HETATM    6  C   UNK N   1      26.474  15.033   3.625  0.00  0.00     0.069 C 
HETATM    7  C   UNK N   1      25.601  16.256   3.821  0.00  0.00     0.181 C 
ENDROOT
BRANCH   5   8
HETATM    8  O   UNK N   1      25.573  12.959   4.641  0.00  0.00    -0.343 OA
BRANCH   8   9
HETATM    9  C   UNK N   1      24.499  12.285   5.091  0.00  0.00     0.084 A 
HETATM   10  C   UNK N   1      24.002  12.554   6.351  0.00  0.00     0.068 A 
HETATM   11  C   UNK N   1      22.937  11.835   6.868  0.00  0.00     0.045 A 
HETATM   12  N   UNK N   1      22.364  10.844   6.120  0.00  0.00    -0.355 N 
HETATM   13  C   UNK N   1      22.829  10.548   4.871  0.00  0.00     0.048 A 
ATOM     14  HN  UNK N   1      21.579  10.318   6.502  1.00  0.00     0.166 HD
HETATM   15  C   UNK N   1      23.915  11.274   4.327  0.00  0.00     0.024 A 
HETATM   16  C   UNK N   1      22.284   9.480   4.149  0.00  0.00     0.067 A 
HETATM   17  C   UNK N   1      24.425  10.937   3.071  0.00  0.00     0.019 A 
HETATM   18  C   UNK N   1      23.882   9.867   2.362  0.00  0.00     0.038 A 
HETATM   19  C   UNK N   1      22.815   9.125   2.900  0.00  0.00     0.070 A 
BRANCH  11  20
HETATM   20  C   UNK N   1      22.556  12.078   8.269  0.00  0.00    -0.009 A 
HETATM   21  C   UNK N   1      21.413  12.818   8.593  0.00  0.00     0.013 A 
HETATM   22  C   UNK N   1      21.023  12.952   9.930  0.00  0.00     0.001 A 
HETATM   23  C   UNK N   1      21.763  12.334  10.942  0.00  0.00     0.000 A 
HETATM   24  C   UNK N   1      22.903  11.597  10.623  0.00  0.00     0.001 A 
HETATM   25  C   UNK N   1      23.298  11.471   9.298  0.00  0.00     0.013 A 
ENDBRANCH  11  20
BRANCH  19  26
HETATM   26  O   UNK N   1      22.302   8.056   2.248  0.00  0.00    -0.356 OA
HETATM   27  C   UNK N   1      22.108   8.028   0.885  0.00  0.00     0.210 C 
ENDBRANCH  19  26
ENDBRANCH   8   9
ENDBRANCH   5   8
BRANCH   7  28
HETATM   28  C   UNK N   1      25.713  16.759   5.259  0.00  0.00     0.241 C 
HETATM   29  O   UNK N   1      25.021  16.241   6.123  0.00  0.00    -0.271 OA
HETATM   30  N   UNK N   1      26.475  17.834   5.590  0.00  0.00    -0.341 N 
HETATM   31  H   UNK N   1      26.369  18.221   6.489  0.00  0.00     0.163 HD
BRANCH  30  32
HETATM   32  C   UNK N   1      27.432  18.438   4.695  0.00  0.00     0.122 A 
HETATM   33  C   UNK N   1      27.631  19.884   5.130  0.00  0.00     0.053 A 
HETATM   34  C   UNK N   1      27.091  19.615   3.756  0.00  0.00     0.048 A 
BRANCH  34  35
HETATM   35  C   UNK N   1      25.681  20.103   3.761  0.00  0.00    -0.029 C 
HETATM   36  C   UNK N   1      25.136  20.558   2.634  0.00  0.00     0.007 C 
ENDBRANCH  34  35
BRANCH  32  37
HETATM   37  C   UNK N   1      28.786  17.811   4.701  0.00  0.00     0.260 C 
HETATM   38  O   UNK N   1      29.501  17.934   5.682  0.00  0.00    -0.270 OA
HETATM   39  N   UNK N   1      29.196  17.092   3.620  0.00  0.00    -0.252 N 
HETATM   40  H   UNK N   1      28.639  17.097   2.809  0.00  0.00     0.181 HD
BRANCH  39  41
HETATM   41  S   UNK N   1      30.684  16.153   3.612  0.00  0.00     0.237 S 
HETATM   42  O   UNK N   1      30.726  16.803   2.223  0.00  0.00    -0.205 OA
HETATM   43  O   UNK N   1      30.348  14.862   2.855  0.00  0.00    -0.205 OA
BRANCH  41  44
HETATM   44  C   UNK N   1      32.392  16.675   3.264  0.00  0.00     0.130 A 
HETATM   45  C   UNK N   1      33.284  16.114   4.354  0.00  0.00     0.023 A 
HETATM   46  C   UNK N   1      32.947  17.589   4.331  0.00  0.00     0.023 A 
ENDBRANCH  41  44
ENDBRANCH  39  41
ENDBRANCH  32  37
ENDBRANCH  30  32
ENDBRANCH   7  28
BRANCH   1  47
HETATM   47  C   UNK N   1      21.816  16.078   4.207  0.00  0.00     0.094 C 
BRANCH  47  48
HETATM   48  C   UNK N   1      21.459  16.439   5.686  0.00  0.00    -0.039 C 
HETATM   49  C   UNK N   1      21.787  17.895   5.975  0.00  0.00     0.015 C 
HETATM   50  C   UNK N   1      20.001  16.199   6.006  0.00  0.00     0.015 C 
HETATM   51  C   UNK N   1      22.219  15.558   6.671  0.00  0.00     0.015 C 
ENDBRANCH  47  48
BRANCH  47  52
HETATM   52  C   UNK N   1      20.702  16.341   3.176  0.00  0.00     0.117 C 
BRANCH  52  53
HETATM   53  C   UNK N   1      20.778  15.374   2.011  0.00  0.00     0.220 C 
HETATM   54  O   UNK N   1      21.502  15.662   1.070  0.00  0.00    -0.273 OA
HETATM   55  N   UNK N   1      20.085  14.194   1.991  0.00  0.00    -0.352 N 
HETATM   56  C   UNK N   1      20.174  13.312   0.846  0.00  0.00     0.125 C 
HETATM   57  C   UNK N   1      19.288  13.750   3.108  0.00  0.00     0.125 C 
HETATM   58  C   UNK N   1      20.714  11.956   1.293  0.00  0.00     0.020 C 
HETATM   59  C   UNK N   1      19.873  11.407   2.446  0.00  0.00     0.003 C 
HETATM   60  C   UNK N   1      19.825  12.407   3.602  0.00  0.00     0.020 C 
ENDBRANCH  52  53
ENDBRANCH  47  52
ENDBRANCH   1  47
TORSDOF 14
ENDMDL
MODEL 9
REMARK VINA RESULT:      -8.3      2.885      7.995
REMARK  14 active torsions:
REMARK  status: ('A' for Active; 'I' for Inactive)
REMARK    1  A    between atoms: C_2  and  C_5 
REMARK    2  A    between atoms: C_5  and  C_6 
REMARK    3  A    between atoms: C_5  and  C_15 
REMARK    4  A    between atoms: C_6  and  C_7 
REMARK       I    between atoms: C_7  and  N_9 
REMARK       I    between atoms: C_15  and  N_17 
REMARK    5  A    between atoms: C_19  and  O_39 
REMARK    6  A    between atoms: C_21  and  C_22 
REMARK       I    between atoms: C_22  and  N_24 
REMARK    7  A    between atoms: C_25  and  N_24 
REMARK    8  A    between atoms: C_25  and  C_30 
REMARK    9  A    between atoms: C_27  and  C_28 
REMARK       I    between atoms: C_30  and  N_32 
REMARK   10  A    between atoms: N_32  and  S_33 
REMARK   11  A    between atoms: S_33  and  C_36 
REMARK   12  A    between atoms: O_39  and  C_40 
REMARK   13  A    between atoms: C_42  and  C_53 
REMARK   14  A    between atoms: C_49  and  O_51 
ROOT
HETATM    1  C   UNK N   1      23.890  16.151   3.740  0.00  0.00     0.226 C 
HETATM    2  O   UNK N   1      24.117  17.315   3.447  0.00  0.00    -0.273 OA
HETATM    3  N   UNK N   1      24.945  15.326   3.948  0.00  0.00    -0.336 N 
HETATM    4  C   UNK N   1      24.811  13.908   4.043  0.00  0.00     0.159 C 
HETATM    5  C   UNK N   1      26.162  13.398   4.438  0.00  0.00     0.149 C 
HETATM    6  C   UNK N   1      27.115  14.613   4.420  0.00  0.00     0.069 C 
HETATM    7  C   UNK N   1      26.254  15.845   4.229  0.00  0.00     0.181 C 
ENDROOT
BRANCH   5   8
HETATM    8  O   UNK N   1      26.011  12.775   5.664  0.00  0.00    -0.343 OA
BRANCH   8   9
HETATM    9  C   UNK N   1      24.944  12.018   5.977  0.00  0.00     0.084 A 
HETATM   10  C   UNK N   1      24.439  11.129   5.048  0.00  0.00     0.068 A 
HETATM   11  C   UNK N   1      23.305  10.381   5.318  0.00  0.00     0.045 A 
HETATM   12  N   UNK N   1      22.674  10.520   6.522  0.00  0.00    -0.355 N 
HETATM   13  C   UNK N   1      23.142  11.390   7.466  0.00  0.00     0.048 A 
ATOM     14  HN  UNK N   1      21.841   9.966   6.719  1.00  0.00     0.166 HD
HETATM   15  C   UNK N   1      24.301  12.160   7.207  0.00  0.00     0.024 A 
HETATM   16  C   UNK N   1      22.442  11.579   8.662  0.00  0.00     0.067 A 
HETATM   17  C   UNK N   1      24.749  13.089   8.150  0.00  0.00     0.019 A 
HETATM   18  C   UNK N   1      24.041  13.277   9.335  0.00  0.00     0.038 A 
HETATM   19  C   UNK N   1      22.878  12.531   9.596  0.00  0.00     0.070 A 
BRANCH  11  20
HETATM   20  C   UNK N   1      22.744   9.565   4.229  0.00  0.00    -0.009 A 
HETATM   21  C   UNK N   1      21.505   8.928   4.364  0.00  0.00     0.013 A 
HETATM   22  C   UNK N   1      20.952   8.239   3.279  0.00  0.00     0.001 A 
HETATM   23  C   UNK N   1      21.626   8.198   2.055  0.00  0.00     0.000 A 
HETATM   24  C   UNK N   1      22.862   8.831   1.918  0.00  0.00     0.001 A 
HETATM   25  C   UNK N   1      23.417   9.507   2.996  0.00  0.00     0.013 A 
ENDBRANCH  11  20
BRANCH  19  26
HETATM   26  O   UNK N   1      22.152  12.729  10.720  0.00  0.00    -0.356 OA
HETATM   27  C   UNK N   1      22.331  11.993  11.870  0.00  0.00     0.210 C 
ENDBRANCH  19  26
ENDBRANCH   8   9
ENDBRANCH   5   8
BRANCH   7  28
HETATM   28  C   UNK N   1      26.147  16.623   5.538  0.00  0.00     0.241 C 
HETATM   29  O   UNK N   1      25.456  16.172   6.441  0.00  0.00    -0.271 OA
HETATM   30  N   UNK N   1      26.706  17.851   5.696  0.00  0.00    -0.341 N 
HETATM   31  H   UNK N   1      26.456  18.380   6.488  0.00  0.00     0.163 HD
BRANCH  30  32
HETATM   32  C   UNK N   1      27.648  18.423   4.764  0.00  0.00     0.122 A 
HETATM   33  C   UNK N   1      27.842  19.887   5.135  0.00  0.00     0.053 A 
HETATM   34  C   UNK N   1      27.288  19.557   3.780  0.00  0.00     0.048 A 
BRANCH  34  35
HETATM   35  C   UNK N   1      25.875  20.035   3.781  0.00  0.00    -0.029 C 
HETATM   36  C   UNK N   1      25.322  20.462   2.647  0.00  0.00     0.007 C 
ENDBRANCH  34  35
BRANCH  32  37
HETATM   37  C   UNK N   1      29.007  17.806   4.780  0.00  0.00     0.260 C 
HETATM   38  O   UNK N   1      29.707  17.919   5.774  0.00  0.00    -0.270 OA
HETATM   39  N   UNK N   1      29.438  17.105   3.695  0.00  0.00    -0.252 N 
HETATM   40  H   UNK N   1      28.892  17.118   2.877  0.00  0.00     0.181 HD
BRANCH  39  41
HETATM   41  S   UNK N   1      30.933  16.178   3.695  0.00  0.00     0.237 S 
HETATM   42  O   UNK N   1      31.036  16.924   2.358  0.00  0.00    -0.205 OA
HETATM   43  O   UNK N   1      30.645  14.940   2.835  0.00  0.00    -0.205 OA
BRANCH  41  44
HETATM   44  C   UNK N   1      32.651  16.732   3.468  0.00  0.00     0.130 A 
HETATM   45  C   UNK N   1      33.486  16.140   4.587  0.00  0.00     0.023 A 
HETATM   46  C   UNK N   1      33.131  17.611   4.599  0.00  0.00     0.023 A 
ENDBRANCH  41  44
ENDBRANCH  39  41
ENDBRANCH  32  37
ENDBRANCH  30  32
ENDBRANCH   7  28
BRANCH   1  47
HETATM   47  C   UNK N   1      22.453  15.722   4.024  0.00  0.00     0.094 C 
BRANCH  47  48
HETATM   48  C   UNK N   1      21.977  16.110   5.463  0.00  0.00    -0.039 C 
HETATM   49  C   UNK N   1      22.460  15.089   6.480  0.00  0.00     0.015 C 
HETATM   50  C   UNK N   1      22.461  17.479   5.884  0.00  0.00     0.015 C 
HETATM   51  C   UNK N   1      20.457  16.200   5.538  0.00  0.00     0.015 C 
ENDBRANCH  47  48
BRANCH  47  52
HETATM   52  C   UNK N   1      21.461  16.046   2.891  0.00  0.00     0.117 C 
BRANCH  52  53
HETATM   53  C   UNK N   1      21.465  14.972   1.821  0.00  0.00     0.220 C 
HETATM   54  O   UNK N   1      22.378  14.970   1.010  0.00  0.00    -0.273 OA
HETATM   55  N   UNK N   1      20.499  14.005   1.749  0.00  0.00    -0.352 N 
HETATM   56  C   UNK N   1      20.533  13.012   0.696  0.00  0.00     0.125 C 
HETATM   57  C   UNK N   1      19.445  13.894   2.729  0.00  0.00     0.125 C 
HETATM   58  C   UNK N   1      20.621  11.620   1.316  0.00  0.00     0.020 C 
HETATM   59  C   UNK N   1      19.492  11.422   2.330  0.00  0.00     0.003 C 
HETATM   60  C   UNK N   1      19.526  12.520   3.394  0.00  0.00     0.020 C 
ENDBRANCH  52  53
ENDBRANCH  47  52
ENDBRANCH   1  47
TORSDOF 14
ENDMDL
