MODEL 1
REMARK VINA RESULT:      -5.6      0.000      0.000
REMARK  10 active torsions:
REMARK  status: ('A' for Active; 'I' for Inactive)
REMARK    1  A    between atoms: C_6  and  C_2 
REMARK    2  A    between atoms: C_4  and  C_3 
REMARK    3  A    between atoms: C_5  and  C_3 
REMARK    4  A    between atoms: C_10  and  C_4 
REMARK    5  A    between atoms: N_13  and  C_5 
REMARK    6  A    between atoms: N_16  and  C_6 
REMARK    7  A    between atoms: C_10  and  C_7 
REMARK    8  A    between atoms: C_11  and  C_7 
REMARK    9  A    between atoms: C_10  and  C_12 
REMARK   10  A    between atoms: O_18  and  C_12 
ROOT
HETATM    1  C   UNK N   1      33.260  17.617   8.680  0.00  0.00     0.089 C 
ENDROOT
BRANCH   1   2
HETATM    2  C   UNK N   1      31.920  17.789   7.963  0.00  0.00     0.017 C 
BRANCH   2   3
HETATM    3  C   UNK N   1      30.811  16.944   8.577  0.00  0.00     0.020 C 
BRANCH   3   4
HETATM    4  C   UNK N   1      29.595  17.806   8.867  0.00  0.00     0.111 C 
BRANCH   4   5
HETATM    5  N   UNK N   1      29.843  18.629  10.037  0.00  0.00    -0.430 N 
HETATM    6  H   UNK N   1      30.207  19.579   9.972  0.00  0.00     0.149 HD
HETATM    7  H   UNK N   1      29.646  18.241  10.960  0.00  0.00     0.149 HD
ENDBRANCH   4   5
ENDBRANCH   3   4
ENDBRANCH   2   3
ENDBRANCH   1   2
BRANCH   1   8
HETATM    8  C   UNK N   1      33.512  16.115   8.876  0.00  0.00     0.073 C 
BRANCH   8   9
HETATM    9  C   UNK N   1      34.333  15.816  10.098  0.00  0.00     0.026 A 
HETATM   10  C   UNK N   1      34.430  14.599  10.741  0.00  0.00     0.116 A 
HETATM   11  N   UNK N   1      35.243  14.785  11.795  0.00  0.00    -0.351 N 
HETATM   12  C   UNK N   1      35.621  16.078  11.789  0.00  0.00     0.183 A 
HETATM   13  N   UNK N   1      35.079  16.733  10.742  0.00  0.00    -0.354 N 
ATOM     14  HN  UNK N   1      35.207  17.713  10.491  1.00  0.00     0.166 HD
BRANCH  11  15
HETATM   15  C   UNK N   1      35.582  13.799  12.815  0.00  0.00     0.129 C 
BRANCH  15  16
HETATM   16  C   UNK N   1      36.418  14.416  13.926  0.00  0.00     0.016 C 
HETATM   17  C   UNK N   1      36.630  13.423  15.049  0.00  0.00     0.006 C 
ENDBRANCH  15  16
ENDBRANCH  11  15
ENDBRANCH   8   9
ENDBRANCH   1   8
BRANCH   1  18
HETATM   18  C   UNK N   1      34.363  18.260   7.878  0.00  0.00     0.144 C 
HETATM   19  O   UNK N   1      34.471  18.022   6.685  0.00  0.00    -0.650 OA
BRANCH  18  20
HETATM   20  O   UNK N   1      35.230  19.104   8.470  0.00  0.00    -0.776 OA
HETATM   21  H   UNK N   1      35.390  19.992   8.726  0.00  0.00     0.167 HD
ENDBRANCH  18  20
ENDBRANCH   1  18
TORSDOF 10
ENDMDL
MODEL 2
REMARK VINA RESULT:      -5.3      4.008      6.918
REMARK  10 active torsions:
REMARK  status: ('A' for Active; 'I' for Inactive)
REMARK    1  A    between atoms: C_6  and  C_2 
REMARK    2  A    between atoms: C_4  and  C_3 
REMARK    3  A    between atoms: C_5  and  C_3 
REMARK    4  A    between atoms: C_10  and  C_4 
REMARK    5  A    between atoms: N_13  and  C_5 
REMARK    6  A    between atoms: N_16  and  C_6 
REMARK    7  A    between atoms: C_10  and  C_7 
REMARK    8  A    between atoms: C_11  and  C_7 
REMARK    9  A    between atoms: C_10  and  C_12 
REMARK   10  A    between atoms: O_18  and  C_12 
ROOT
HETATM    1  C   UNK N   1      33.358  17.792   7.660  0.00  0.00     0.089 C 
ENDROOT
BRANCH   1   2
HETATM    2  C   UNK N   1      33.764  16.937   6.460  0.00  0.00     0.017 C 
BRANCH   2   3
HETATM    3  C   UNK N   1      33.427  17.594   5.127  0.00  0.00     0.020 C 
BRANCH   3   4
HETATM    4  C   UNK N   1      32.277  16.863   4.458  0.00  0.00     0.111 C 
BRANCH   4   5
HETATM    5  N   UNK N   1      31.347  17.823   3.891  0.00  0.00    -0.430 N 
HETATM    6  H   UNK N   1      31.181  18.738   4.309  0.00  0.00     0.149 HD
HETATM    7  H   UNK N   1      30.841  17.572   3.042  0.00  0.00     0.149 HD
ENDBRANCH   4   5
ENDBRANCH   3   4
ENDBRANCH   2   3
ENDBRANCH   1   2
BRANCH   1   8
HETATM    8  C   UNK N   1      32.340  17.001   8.493  0.00  0.00     0.073 C 
BRANCH   8   9
HETATM    9  C   UNK N   1      30.958  17.586   8.436  0.00  0.00     0.026 A 
HETATM   10  C   UNK N   1      30.118  17.593   7.341  0.00  0.00     0.116 A 
HETATM   11  N   UNK N   1      29.000  18.237   7.719  0.00  0.00    -0.351 N 
HETATM   12  C   UNK N   1      29.164  18.611   9.003  0.00  0.00     0.183 A 
HETATM   13  N   UNK N   1      30.364  18.209   9.471  0.00  0.00    -0.354 N 
ATOM     14  HN  UNK N   1      30.741  18.348  10.408  1.00  0.00     0.166 HD
BRANCH  11  15
HETATM   15  C   UNK N   1      27.856  18.560   6.873  0.00  0.00     0.129 C 
BRANCH  15  16
HETATM   16  C   UNK N   1      27.562  20.053   6.885  0.00  0.00     0.016 C 
HETATM   17  C   UNK N   1      27.596  20.616   5.481  0.00  0.00     0.006 C 
ENDBRANCH  15  16
ENDBRANCH  11  15
ENDBRANCH   8   9
ENDBRANCH   1   8
BRANCH   1  18
HETATM   18  C   UNK N   1      34.574  18.154   8.474  0.00  0.00     0.144 C 
HETATM   19  O   UNK N   1      35.312  19.053   8.105  0.00  0.00    -0.650 OA
BRANCH  18  20
HETATM   20  O   UNK N   1      34.849  17.493   9.616  0.00  0.00    -0.776 OA
HETATM   21  H   UNK N   1      34.595  17.358  10.508  0.00  0.00     0.167 HD
ENDBRANCH  18  20
ENDBRANCH   1  18
TORSDOF 10
ENDMDL
MODEL 3
REMARK VINA RESULT:      -5.3      1.596      1.981
REMARK  10 active torsions:
REMARK  status: ('A' for Active; 'I' for Inactive)
REMARK    1  A    between atoms: C_6  and  C_2 
REMARK    2  A    between atoms: C_4  and  C_3 
REMARK    3  A    between atoms: C_5  and  C_3 
REMARK    4  A    between atoms: C_10  and  C_4 
REMARK    5  A    between atoms: N_13  and  C_5 
REMARK    6  A    between atoms: N_16  and  C_6 
REMARK    7  A    between atoms: C_10  and  C_7 
REMARK    8  A    between atoms: C_11  and  C_7 
REMARK    9  A    between atoms: C_10  and  C_12 
REMARK   10  A    between atoms: O_18  and  C_12 
ROOT
HETATM    1  C   UNK N   1      33.449  17.480   8.807  0.00  0.00     0.089 C 
ENDROOT
BRANCH   1   2
HETATM    2  C   UNK N   1      32.003  17.801   8.431  0.00  0.00     0.017 C 
BRANCH   2   3
HETATM    3  C   UNK N   1      31.302  16.637   7.741  0.00  0.00     0.020 C 
BRANCH   3   4
HETATM    4  C   UNK N   1      30.754  17.079   6.396  0.00  0.00     0.111 C 
BRANCH   4   5
HETATM    5  N   UNK N   1      31.840  17.210   5.441  0.00  0.00    -0.430 N 
HETATM    6  H   UNK N   1      31.858  16.703   4.557  0.00  0.00     0.149 HD
HETATM    7  H   UNK N   1      32.615  17.835   5.664  0.00  0.00     0.149 HD
ENDBRANCH   4   5
ENDBRANCH   3   4
ENDBRANCH   2   3
ENDBRANCH   1   2
BRANCH   1   8
HETATM    8  C   UNK N   1      33.667  15.970   8.638  0.00  0.00     0.073 C 
BRANCH   8   9
HETATM    9  C   UNK N   1      34.188  15.313   9.885  0.00  0.00     0.026 A 
HETATM   10  C   UNK N   1      35.035  15.880  10.816  0.00  0.00     0.116 A 
HETATM   11  N   UNK N   1      35.265  14.938  11.748  0.00  0.00    -0.351 N 
HETATM   12  C   UNK N   1      34.582  13.836  11.385  0.00  0.00     0.183 A 
HETATM   13  N   UNK N   1      33.899  14.047  10.241  0.00  0.00    -0.354 N 
ATOM     14  HN  UNK N   1      33.294  13.389   9.751  1.00  0.00     0.166 HD
BRANCH  11  15
HETATM   15  C   UNK N   1      36.164  15.052  12.891  0.00  0.00     0.129 C 
BRANCH  15  16
HETATM   16  C   UNK N   1      36.479  13.686  13.485  0.00  0.00     0.016 C 
HETATM   17  C   UNK N   1      36.310  13.707  14.989  0.00  0.00     0.006 C 
ENDBRANCH  15  16
ENDBRANCH  11  15
ENDBRANCH   8   9
ENDBRANCH   1   8
BRANCH   1  18
HETATM   18  C   UNK N   1      34.398  18.273   7.943  0.00  0.00     0.144 C 
HETATM   19  O   UNK N   1      35.088  19.149   8.438  0.00  0.00    -0.650 OA
BRANCH  18  20
HETATM   20  O   UNK N   1      34.493  18.014   6.624  0.00  0.00    -0.776 OA
HETATM   21  H   UNK N   1      34.542  17.342   5.972  0.00  0.00     0.167 HD
ENDBRANCH  18  20
ENDBRANCH   1  18
TORSDOF 10
ENDMDL
MODEL 4
REMARK VINA RESULT:      -5.2      1.827      2.122
REMARK  10 active torsions:
REMARK  status: ('A' for Active; 'I' for Inactive)
REMARK    1  A    between atoms: C_6  and  C_2 
REMARK    2  A    between atoms: C_4  and  C_3 
REMARK    3  A    between atoms: C_5  and  C_3 
REMARK    4  A    between atoms: C_10  and  C_4 
REMARK    5  A    between atoms: N_13  and  C_5 
REMARK    6  A    between atoms: N_16  and  C_6 
REMARK    7  A    between atoms: C_10  and  C_7 
REMARK    8  A    between atoms: C_11  and  C_7 
REMARK    9  A    between atoms: C_10  and  C_12 
REMARK   10  A    between atoms: O_18  and  C_12 
ROOT
HETATM    1  C   UNK N   1      32.931  17.600   8.348  0.00  0.00     0.089 C 
ENDROOT
BRANCH   1   2
HETATM    2  C   UNK N   1      31.774  17.657   7.350  0.00  0.00     0.017 C 
BRANCH   2   3
HETATM    3  C   UNK N   1      30.410  17.649   8.029  0.00  0.00     0.020 C 
BRANCH   3   4
HETATM    4  C   UNK N   1      30.349  18.726   9.096  0.00  0.00     0.111 C 
BRANCH   4   5
HETATM    5  N   UNK N   1      29.765  18.184  10.310  0.00  0.00    -0.430 N 
HETATM    6  H   UNK N   1      29.242  18.758  10.970  0.00  0.00     0.149 HD
HETATM    7  H   UNK N   1      29.882  17.190  10.508  0.00  0.00     0.149 HD
ENDBRANCH   4   5
ENDBRANCH   3   4
ENDBRANCH   2   3
ENDBRANCH   1   2
BRANCH   1   8
HETATM    8  C   UNK N   1      33.107  16.143   8.798  0.00  0.00     0.073 C 
BRANCH   8   9
HETATM    9  C   UNK N   1      34.353  15.929   9.609  0.00  0.00     0.026 A 
HETATM   10  C   UNK N   1      35.245  14.883   9.479  0.00  0.00     0.116 A 
HETATM   11  N   UNK N   1      36.193  15.069  10.415  0.00  0.00    -0.351 N 
HETATM   12  C   UNK N   1      35.878  16.190  11.090  0.00  0.00     0.183 A 
HETATM   13  N   UNK N   1      34.750  16.746  10.603  0.00  0.00    -0.354 N 
ATOM     14  HN  UNK N   1      34.295  17.602  10.919  1.00  0.00     0.166 HD
BRANCH  11  15
HETATM   15  C   UNK N   1      37.305  14.173  10.711  0.00  0.00     0.129 C 
BRANCH  15  16
HETATM   16  C   UNK N   1      38.299  14.125   9.559  0.00  0.00     0.016 C 
HETATM   17  C   UNK N   1      39.048  12.809   9.555  0.00  0.00     0.006 C 
ENDBRANCH  15  16
ENDBRANCH  11  15
ENDBRANCH   8   9
ENDBRANCH   1   8
BRANCH   1  18
HETATM   18  C   UNK N   1      34.190  18.136   7.714  0.00  0.00     0.144 C 
HETATM   19  O   UNK N   1      34.510  17.778   6.592  0.00  0.00    -0.650 OA
BRANCH  18  20
HETATM   20  O   UNK N   1      34.963  19.018   8.378  0.00  0.00    -0.776 OA
HETATM   21  H   UNK N   1      35.122  19.925   8.553  0.00  0.00     0.167 HD
ENDBRANCH  18  20
ENDBRANCH   1  18
TORSDOF 10
ENDMDL
MODEL 5
REMARK VINA RESULT:      -5.2      2.928      4.013
REMARK  10 active torsions:
REMARK  status: ('A' for Active; 'I' for Inactive)
REMARK    1  A    between atoms: C_6  and  C_2 
REMARK    2  A    between atoms: C_4  and  C_3 
REMARK    3  A    between atoms: C_5  and  C_3 
REMARK    4  A    between atoms: C_10  and  C_4 
REMARK    5  A    between atoms: N_13  and  C_5 
REMARK    6  A    between atoms: N_16  and  C_6 
REMARK    7  A    between atoms: C_10  and  C_7 
REMARK    8  A    between atoms: C_11  and  C_7 
REMARK    9  A    between atoms: C_10  and  C_12 
REMARK   10  A    between atoms: O_18  and  C_12 
ROOT
HETATM    1  C   UNK N   1      34.623  15.355  10.875  0.00  0.00     0.089 C 
ENDROOT
BRANCH   1   2
HETATM    2  C   UNK N   1      33.594  15.383   9.744  0.00  0.00     0.017 C 
BRANCH   2   3
HETATM    3  C   UNK N   1      33.811  14.272   8.724  0.00  0.00     0.020 C 
BRANCH   3   4
HETATM    4  C   UNK N   1      33.869  14.851   7.322  0.00  0.00     0.111 C 
BRANCH   4   5
HETATM    5  N   UNK N   1      34.603  16.104   7.338  0.00  0.00    -0.430 N 
HETATM    6  H   UNK N   1      35.605  16.150   7.519  0.00  0.00     0.149 HD
HETATM    7  H   UNK N   1      34.096  16.971   7.160  0.00  0.00     0.149 HD
ENDBRANCH   4   5
ENDBRANCH   3   4
ENDBRANCH   2   3
ENDBRANCH   1   2
BRANCH   1   8
HETATM    8  C   UNK N   1      35.191  13.932  10.975  0.00  0.00     0.073 C 
BRANCH   8   9
HETATM    9  C   UNK N   1      35.181  13.397  12.378  0.00  0.00     0.026 A 
HETATM   10  C   UNK N   1      35.837  13.939  13.465  0.00  0.00     0.116 A 
HETATM   11  N   UNK N   1      35.580  13.132  14.510  0.00  0.00    -0.351 N 
HETATM   12  C   UNK N   1      34.797  12.132  14.063  0.00  0.00     0.183 A 
HETATM   13  N   UNK N   1      34.528  12.280  12.750  0.00  0.00    -0.354 N 
ATOM     14  HN  UNK N   1      33.953  11.676  12.164  1.00  0.00     0.166 HD
BRANCH  11  15
HETATM   15  C   UNK N   1      36.125  13.258  15.857  0.00  0.00     0.129 C 
BRANCH  15  16
HETATM   16  C   UNK N   1      35.125  12.789  16.904  0.00  0.00     0.016 C 
HETATM   17  C   UNK N   1      35.133  13.714  18.102  0.00  0.00     0.006 C 
ENDBRANCH  15  16
ENDBRANCH  11  15
ENDBRANCH   8   9
ENDBRANCH   1   8
BRANCH   1  18
HETATM   18  C   UNK N   1      35.711  16.365  10.610  0.00  0.00     0.144 C 
HETATM   19  O   UNK N   1      35.433  17.453  10.132  0.00  0.00    -0.650 OA
BRANCH  18  20
HETATM   20  O   UNK N   1      36.994  16.075  10.907  0.00  0.00    -0.776 OA
HETATM   21  H   UNK N   1      37.602  15.886  11.594  0.00  0.00     0.167 HD
ENDBRANCH  18  20
ENDBRANCH   1  18
TORSDOF 10
ENDMDL
MODEL 6
REMARK VINA RESULT:      -5.0      2.267      7.019
REMARK  10 active torsions:
REMARK  status: ('A' for Active; 'I' for Inactive)
REMARK    1  A    between atoms: C_6  and  C_2 
REMARK    2  A    between atoms: C_4  and  C_3 
REMARK    3  A    between atoms: C_5  and  C_3 
REMARK    4  A    between atoms: C_10  and  C_4 
REMARK    5  A    between atoms: N_13  and  C_5 
REMARK    6  A    between atoms: N_16  and  C_6 
REMARK    7  A    between atoms: C_10  and  C_7 
REMARK    8  A    between atoms: C_11  and  C_7 
REMARK    9  A    between atoms: C_10  and  C_12 
REMARK   10  A    between atoms: O_18  and  C_12 
ROOT
HETATM    1  C   UNK N   1      32.831  16.873   7.648  0.00  0.00     0.089 C 
ENDROOT
BRANCH   1   2
HETATM    2  C   UNK N   1      33.470  15.553   8.079  0.00  0.00     0.017 C 
BRANCH   2   3
HETATM    3  C   UNK N   1      33.640  15.446   9.589  0.00  0.00     0.020 C 
BRANCH   3   4
HETATM    4  C   UNK N   1      35.071  15.767   9.980  0.00  0.00     0.111 C 
BRANCH   4   5
HETATM    5  N   UNK N   1      35.124  17.064  10.630  0.00  0.00    -0.430 N 
HETATM    6  H   UNK N   1      34.407  17.380  11.283  0.00  0.00     0.149 HD
HETATM    7  H   UNK N   1      35.909  17.683  10.426  0.00  0.00     0.149 HD
ENDBRANCH   4   5
ENDBRANCH   3   4
ENDBRANCH   2   3
ENDBRANCH   1   2
BRANCH   1   8
HETATM    8  C   UNK N   1      32.147  17.499   8.872  0.00  0.00     0.073 C 
BRANCH   8   9
HETATM    9  C   UNK N   1      30.703  17.833   8.627  0.00  0.00     0.026 A 
HETATM   10  C   UNK N   1      30.047  17.782   7.414  0.00  0.00     0.116 A 
HETATM   11  N   UNK N   1      28.785  18.185   7.644  0.00  0.00    -0.351 N 
HETATM   12  C   UNK N   1      28.686  18.474   8.955  0.00  0.00     0.183 A 
HETATM   13  N   UNK N   1      29.858  18.254   9.586  0.00  0.00    -0.354 N 
ATOM     14  HN  UNK N   1      30.060  18.379  10.577  1.00  0.00     0.166 HD
BRANCH  11  15
HETATM   15  C   UNK N   1      27.738  18.369   6.645  0.00  0.00     0.129 C 
BRANCH  15  16
HETATM   16  C   UNK N   1      27.659  19.818   6.185  0.00  0.00     0.016 C 
HETATM   17  C   UNK N   1      27.937  19.924   4.701  0.00  0.00     0.006 C 
ENDBRANCH  15  16
ENDBRANCH  11  15
ENDBRANCH   8   9
ENDBRANCH   1   8
BRANCH   1  18
HETATM   18  C   UNK N   1      33.879  17.793   7.073  0.00  0.00     0.144 C 
HETATM   19  O   UNK N   1      34.546  18.498   7.812  0.00  0.00    -0.650 OA
BRANCH  18  20
HETATM   20  O   UNK N   1      34.088  17.835   5.742  0.00  0.00    -0.776 OA
HETATM   21  H   UNK N   1      34.683  17.629   5.048  0.00  0.00     0.167 HD
ENDBRANCH  18  20
ENDBRANCH   1  18
TORSDOF 10
ENDMDL
MODEL 7
REMARK VINA RESULT:      -4.9     14.880     18.013
REMARK  10 active torsions:
REMARK  status: ('A' for Active; 'I' for Inactive)
REMARK    1  A    between atoms: C_6  and  C_2 
REMARK    2  A    between atoms: C_4  and  C_3 
REMARK    3  A    between atoms: C_5  and  C_3 
REMARK    4  A    between atoms: C_10  and  C_4 
REMARK    5  A    between atoms: N_13  and  C_5 
REMARK    6  A    between atoms: N_16  and  C_6 
REMARK    7  A    between atoms: C_10  and  C_7 
REMARK    8  A    between atoms: C_11  and  C_7 
REMARK    9  A    between atoms: C_10  and  C_12 
REMARK   10  A    between atoms: O_18  and  C_12 
ROOT
HETATM    1  C   UNK N   1      30.757  23.322  -3.799  0.00  0.00     0.089 C 
ENDROOT
BRANCH   1   2
HETATM    2  C   UNK N   1      31.967  22.990  -4.673  0.00  0.00     0.017 C 
BRANCH   2   3
HETATM    3  C   UNK N   1      31.689  21.862  -5.659  0.00  0.00     0.020 C 
BRANCH   3   4
HETATM    4  C   UNK N   1      32.531  20.647  -5.316  0.00  0.00     0.111 C 
BRANCH   4   5
HETATM    5  N   UNK N   1      31.818  19.806  -4.371  0.00  0.00    -0.430 N 
HETATM    6  H   UNK N   1      31.835  18.788  -4.423  0.00  0.00     0.149 HD
HETATM    7  H   UNK N   1      31.281  20.251  -3.627  0.00  0.00     0.149 HD
ENDBRANCH   4   5
ENDBRANCH   3   4
ENDBRANCH   2   3
ENDBRANCH   1   2
BRANCH   1   8
HETATM    8  C   UNK N   1      29.504  22.738  -4.468  0.00  0.00     0.073 C 
BRANCH   8   9
HETATM    9  C   UNK N   1      28.328  23.671  -4.419  0.00  0.00     0.026 A 
HETATM   10  C   UNK N   1      27.578  24.098  -5.496  0.00  0.00     0.116 A 
HETATM   11  N   UNK N   1      26.650  24.939  -5.007  0.00  0.00    -0.351 N 
HETATM   12  C   UNK N   1      26.839  25.019  -3.676  0.00  0.00     0.183 A 
HETATM   13  N   UNK N   1      27.865  24.234  -3.288  0.00  0.00    -0.354 N 
ATOM     14  HN  UNK N   1      28.215  24.097  -2.340  1.00  0.00     0.166 HD
BRANCH  11  15
HETATM   15  C   UNK N   1      25.676  25.701  -5.781  0.00  0.00     0.129 C 
BRANCH  15  16
HETATM   16  C   UNK N   1      25.665  27.166  -5.368  0.00  0.00     0.016 C 
HETATM   17  C   UNK N   1      26.791  27.920  -6.043  0.00  0.00     0.006 C 
ENDBRANCH  15  16
ENDBRANCH  11  15
ENDBRANCH   8   9
ENDBRANCH   1   8
BRANCH   1  18
HETATM   18  C   UNK N   1      30.951  22.763  -2.412  0.00  0.00     0.144 C 
HETATM   19  O   UNK N   1      30.204  23.100  -1.507  0.00  0.00    -0.650 OA
BRANCH  18  20
HETATM   20  O   UNK N   1      31.945  21.886  -2.165  0.00  0.00    -0.776 OA
HETATM   21  H   UNK N   1      32.211  21.147  -1.655  0.00  0.00     0.167 HD
ENDBRANCH  18  20
ENDBRANCH   1  18
TORSDOF 10
ENDMDL
MODEL 8
REMARK VINA RESULT:      -4.9      2.788      6.633
REMARK  10 active torsions:
REMARK  status: ('A' for Active; 'I' for Inactive)
REMARK    1  A    between atoms: C_6  and  C_2 
REMARK    2  A    between atoms: C_4  and  C_3 
REMARK    3  A    between atoms: C_5  and  C_3 
REMARK    4  A    between atoms: C_10  and  C_4 
REMARK    5  A    between atoms: N_13  and  C_5 
REMARK    6  A    between atoms: N_16  and  C_6 
REMARK    7  A    between atoms: C_10  and  C_7 
REMARK    8  A    between atoms: C_11  and  C_7 
REMARK    9  A    between atoms: C_10  and  C_12 
REMARK   10  A    between atoms: O_18  and  C_12 
ROOT
HETATM    1  C   UNK N   1      35.144  14.904   9.902  0.00  0.00     0.089 C 
ENDROOT
BRANCH   1   2
HETATM    2  C   UNK N   1      35.610  13.641  10.627  0.00  0.00     0.017 C 
BRANCH   2   3
HETATM    3  C   UNK N   1      35.113  13.572  12.066  0.00  0.00     0.020 C 
BRANCH   3   4
HETATM    4  C   UNK N   1      36.279  13.353  13.013  0.00  0.00     0.111 C 
BRANCH   4   5
HETATM    5  N   UNK N   1      36.674  14.618  13.607  0.00  0.00    -0.430 N 
HETATM    6  H   UNK N   1      37.128  15.357  13.072  0.00  0.00     0.149 HD
HETATM    7  H   UNK N   1      36.491  14.771  14.599  0.00  0.00     0.149 HD
ENDBRANCH   4   5
ENDBRANCH   3   4
ENDBRANCH   2   3
ENDBRANCH   1   2
BRANCH   1   8
HETATM    8  C   UNK N   1      33.614  14.978   9.997  0.00  0.00     0.073 C 
BRANCH   8   9
HETATM    9  C   UNK N   1      32.955  15.180   8.663  0.00  0.00     0.026 A 
HETATM   10  C   UNK N   1      32.901  16.358   7.947  0.00  0.00     0.116 A 
HETATM   11  N   UNK N   1      32.197  16.097   6.831  0.00  0.00    -0.351 N 
HETATM   12  C   UNK N   1      31.834  14.801   6.877  0.00  0.00     0.183 A 
HETATM   13  N   UNK N   1      32.301  14.210   7.996  0.00  0.00    -0.354 N 
ATOM     14  HN  UNK N   1      32.184  13.237   8.277  1.00  0.00     0.166 HD
BRANCH  11  15
HETATM   15  C   UNK N   1      31.812  17.059   5.804  0.00  0.00     0.129 C 
BRANCH  15  16
HETATM   16  C   UNK N   1      33.007  17.470   4.955  0.00  0.00     0.016 C 
HETATM   17  C   UNK N   1      32.943  16.817   3.591  0.00  0.00     0.006 C 
ENDBRANCH  15  16
ENDBRANCH  11  15
ENDBRANCH   8   9
ENDBRANCH   1   8
BRANCH   1  18
HETATM   18  C   UNK N   1      35.793  16.121  10.511  0.00  0.00     0.144 C 
HETATM   19  O   UNK N   1      35.148  17.145  10.668  0.00  0.00    -0.650 OA
BRANCH  18  20
HETATM   20  O   UNK N   1      37.086  16.083  10.893  0.00  0.00    -0.776 OA
HETATM   21  H   UNK N   1      37.733  16.452  11.461  0.00  0.00     0.167 HD
ENDBRANCH  18  20
ENDBRANCH   1  18
TORSDOF 10
ENDMDL
MODEL 9
REMARK VINA RESULT:      -4.8      7.476     10.533
REMARK  10 active torsions:
REMARK  status: ('A' for Active; 'I' for Inactive)
REMARK    1  A    between atoms: C_6  and  C_2 
REMARK    2  A    between atoms: C_4  and  C_3 
REMARK    3  A    between atoms: C_5  and  C_3 
REMARK    4  A    between atoms: C_10  and  C_4 
REMARK    5  A    between atoms: N_13  and  C_5 
REMARK    6  A    between atoms: N_16  and  C_6 
REMARK    7  A    between atoms: C_10  and  C_7 
REMARK    8  A    between atoms: C_11  and  C_7 
REMARK    9  A    between atoms: C_10  and  C_12 
REMARK   10  A    between atoms: O_18  and  C_12 
ROOT
HETATM    1  C   UNK N   1      34.810  12.694  17.629  0.00  0.00     0.089 C 
ENDROOT
BRANCH   1   2
HETATM    2  C   UNK N   1      34.980  13.160  16.183  0.00  0.00     0.017 C 
BRANCH   2   3
HETATM    3  C   UNK N   1      36.131  12.460  15.471  0.00  0.00     0.020 C 
BRANCH   3   4
HETATM    4  C   UNK N   1      36.895  13.450  14.610  0.00  0.00     0.111 C 
BRANCH   4   5
HETATM    5  N   UNK N   1      37.266  14.608  15.403  0.00  0.00    -0.430 N 
HETATM    6  H   UNK N   1      37.485  14.545  16.397  0.00  0.00     0.149 HD
HETATM    7  H   UNK N   1      37.309  15.520  14.948  0.00  0.00     0.149 HD
ENDBRANCH   4   5
ENDBRANCH   3   4
ENDBRANCH   2   3
ENDBRANCH   1   2
BRANCH   1   8
HETATM    8  C   UNK N   1      35.642  11.418  17.826  0.00  0.00     0.073 C 
BRANCH   8   9
HETATM    9  C   UNK N   1      34.983  10.428  18.743  0.00  0.00     0.026 A 
HETATM   10  C   UNK N   1      34.309   9.285  18.364  0.00  0.00     0.116 A 
HETATM   11  N   UNK N   1      33.859   8.712  19.494  0.00  0.00    -0.351 N 
HETATM   12  C   UNK N   1      34.248   9.490  20.522  0.00  0.00     0.183 A 
HETATM   13  N   UNK N   1      34.954  10.552  20.083  0.00  0.00    -0.354 N 
ATOM     14  HN  UNK N   1      35.376  11.290  20.645  1.00  0.00     0.166 HD
BRANCH  11  15
HETATM   15  C   UNK N   1      33.023   7.520  19.589  0.00  0.00     0.129 C 
BRANCH  15  16
HETATM   16  C   UNK N   1      31.593   7.876  19.971  0.00  0.00     0.016 C 
HETATM   17  C   UNK N   1      31.245   7.306  21.329  0.00  0.00     0.006 C 
ENDBRANCH  15  16
ENDBRANCH  11  15
ENDBRANCH   8   9
ENDBRANCH   1   8
BRANCH   1  18
HETATM   18  C   UNK N   1      35.240  13.783  18.579  0.00  0.00     0.144 C 
HETATM   19  O   UNK N   1      35.004  13.683  19.772  0.00  0.00    -0.650 OA
BRANCH  18  20
HETATM   20  O   UNK N   1      35.894  14.868  18.118  0.00  0.00    -0.776 OA
HETATM   21  H   UNK N   1      36.513  15.186  17.490  0.00  0.00     0.167 HD
ENDBRANCH  18  20
ENDBRANCH   1  18
TORSDOF 10
ENDMDL
