REMARK  14 active torsions:
REMARK  status: ('A' for Active; 'I' for Inactive)
REMARK    1  A    between atoms: C_4  and  C_7 
REMARK    2  A    between atoms: C_7  and  S_8 
REMARK    3  A    between atoms: S_8  and  C_9 
REMARK    4  A    between atoms: C_9  and  C_10 
REMARK    5  A    between atoms: C_10  and  C_11 
REMARK    6  A    between atoms: C_11  and  C_12 
REMARK    7  A    between atoms: C_11  and  S_19 
REMARK    8  A    between atoms: C_12  and  C_13 
REMARK    9  A    between atoms: C_13  and  C_14 
REMARK   10  A    between atoms: C_14  and  C_15 
REMARK   11  A    between atoms: C_15  and  C_16 
REMARK   12  A    between atoms: C_16  and  O_18 
REMARK   13  A    between atoms: S_19  and  C_20 
REMARK   14  A    between atoms: C_20  and  C_21 
ROOT
HETATM    1  C   UNK N   1       2.136  -3.471   0.314  0.00  0.00     0.048 C 
ENDROOT
BRANCH   1   2
HETATM    2  C   UNK N   1       0.865  -4.133   0.803  0.00  0.00     0.025 C 
BRANCH   2   3
HETATM    3  C   UNK N   1      -0.319  -3.622   0.008  0.00  0.00     0.075 C 
BRANCH   3   4
HETATM    4  S   UNK N   1      -1.050  -2.160   0.797  0.00  0.00    -0.164 SA
BRANCH   4   5
HETATM    5  C   UNK N   1      -2.239  -1.951  -0.563  0.00  0.00     0.112 C 
BRANCH   5   6
HETATM    6  C   UNK N   1      -3.462  -2.760  -0.298  0.00  0.00    -0.049 A 
HETATM    7  C   UNK N   1      -4.688  -2.119  -0.101  0.00  0.00     0.008 A 
HETATM    8  C   UNK N   1      -5.836  -2.872   0.161  0.00  0.00     0.001 A 
HETATM    9  C   UNK N   1      -5.759  -4.268   0.224  0.00  0.00     0.000 A 
HETATM   10  C   UNK N   1      -4.536  -4.911   0.020  0.00  0.00     0.001 A 
HETATM   11  C   UNK N   1      -3.389  -4.158  -0.242  0.00  0.00     0.008 A 
ENDBRANCH   5   6
ENDBRANCH   4   5
ENDBRANCH   3   4
ENDBRANCH   2   3
ENDBRANCH   1   2
BRANCH   1  12
HETATM   12  C   UNK N   1       3.329  -4.371   0.567  0.00  0.00     0.015 C 
BRANCH  12  13
HETATM   13  C   UNK N   1       4.133  -4.609  -0.710  0.00  0.00     0.002 C 
BRANCH  13  14
HETATM   14  C   UNK N   1       4.662  -3.326  -1.358  0.00  0.00     0.010 C 
BRANCH  14  15
HETATM   15  C   UNK N   1       5.342  -2.379  -0.370  0.00  0.00     0.110 C 
BRANCH  15  16
HETATM   16  C   UNK N   1       6.610  -2.938   0.188  0.00  0.00     0.139 C 
HETATM   17  O   UNK N   1       7.658  -2.339   0.023  0.00  0.00    -0.650 OA
BRANCH  16  18
HETATM   18  O   UNK N   1       6.594  -4.076   0.908  0.00  0.00    -0.776 OA
HETATM   19  H   UNK N   1       5.903  -4.462   1.409  0.00  0.00     0.167 HD
ENDBRANCH  16  18
ENDBRANCH  15  16
ENDBRANCH  14  15
ENDBRANCH  13  14
ENDBRANCH  12  13
ENDBRANCH   1  12
BRANCH   1  20
HETATM   20  S   UNK N   1       2.400  -1.863   1.125  0.00  0.00    -0.160 SA
BRANCH  20  21
HETATM   21  C   UNK N   1       2.186  -0.966  -0.442  0.00  0.00     0.112 C 
BRANCH  21  22
HETATM   22  C   UNK N   1       1.602   0.383  -0.201  0.00  0.00    -0.049 A 
HETATM   23  C   UNK N   1       0.311   0.675  -0.654  0.00  0.00     0.008 A 
HETATM   24  C   UNK N   1      -0.236   1.944  -0.441  0.00  0.00     0.001 A 
HETATM   25  C   UNK N   1       0.512   2.927   0.215  0.00  0.00     0.000 A 
HETATM   26  C   UNK N   1       1.806   2.640   0.661  0.00  0.00     0.001 A 
HETATM   27  C   UNK N   1       2.351   1.369   0.454  0.00  0.00     0.008 A 
ENDBRANCH  21  22
ENDBRANCH  20  21
ENDBRANCH   1  20
TORSDOF 14
