MODEL 1
REMARK VINA RESULT:      -6.6      0.000      0.000
REMARK  7 active torsions:
REMARK  status: ('A' for Active; 'I' for Inactive)
REMARK    1  A    between atoms: C_2  and  N_3 
REMARK    2  A    between atoms: C_6  and  O_12 
REMARK    3  A    between atoms: O_12  and  C_13 
REMARK    4  A    between atoms: C_15  and  C_13 
REMARK    5  A    between atoms: C_15  and  C_16 
REMARK    6  A    between atoms: C_15  and  C_18 
REMARK    7  A    between atoms: C_16  and  O_17 
ROOT
HETATM    1  O   UNK N   1      29.559  16.425   7.094  0.00  0.00    -0.315 OA
ENDROOT
BRANCH   1   2
HETATM    2  C   UNK N   1      30.878  16.860   7.066  0.00  0.00     0.136 C 
HETATM    3  C   UNK N   1      31.820  15.810   6.410  0.00  0.00     0.069 C 
HETATM    4  C   UNK N   1      33.289  15.948   6.883  0.00  0.00     0.224 C 
HETATM    5  N   UNK N   1      33.346  15.969   8.356  0.00  0.00    -0.058 N 
HETATM    6  C   UNK N   1      33.754  17.337   6.399  0.00  0.00     0.184 A 
HETATM    7  C   UNK N   1      32.862  17.332   8.631  0.00  0.00     0.224 C 
HETATM    8  C   UNK N   1      32.550  14.905   8.982  0.00  0.00     0.273 C 
HETATM    9  C   UNK N   1      31.322  17.368   8.460  0.00  0.00     0.069 C 
HETATM   10  C   UNK N   1      33.469  18.245   7.538  0.00  0.00     0.184 A 
HETATM   11  O   UNK N   1      34.787  17.868   7.199  0.00  0.00    -0.371 OA
BRANCH   5  12
HETATM   12  C   UNK N   1      34.731  15.762   8.815  0.00  0.00     0.234 C 
HETATM   13  C   UNK N   1      34.938  16.157  10.278  0.00  0.00     0.035 C 
ENDBRANCH   5  12
ENDBRANCH   1   2
BRANCH   1  14
HETATM   14  C   UNK N   1      28.670  16.584   6.068  0.00  0.00     0.270 C 
HETATM   15  O   UNK N   1      27.678  15.879   5.979  0.00  0.00    -0.264 OA
BRANCH  14  16
HETATM   16  C   UNK N   1      28.917  17.601   4.996  0.00  0.00     0.142 C 
BRANCH  16  17
HETATM   17  C   UNK N   1      28.729  16.975   3.617  0.00  0.00     0.183 C 
BRANCH  17  18
HETATM   18  O   UNK N   1      29.944  16.971   2.928  0.00  0.00    -0.400 OA
HETATM   19  H   UNK N   1      30.830  16.846   3.302  0.00  0.00     0.209 HD
ENDBRANCH  17  18
ENDBRANCH  16  17
BRANCH  16  20
HETATM   20  C   UNK N   1      28.093  18.843   5.225  0.00  0.00    -0.043 A 
HETATM   21  C   UNK N   1      27.936  19.394   6.508  0.00  0.00     0.008 A 
HETATM   22  C   UNK N   1      27.157  20.539   6.694  0.00  0.00     0.001 A 
HETATM   23  C   UNK N   1      26.530  21.143   5.603  0.00  0.00     0.000 A 
HETATM   24  C   UNK N   1      26.677  20.601   4.323  0.00  0.00     0.001 A 
HETATM   25  C   UNK N   1      27.452  19.453   4.136  0.00  0.00     0.008 A 
ENDBRANCH  16  20
ENDBRANCH  14  16
ENDBRANCH   1  14
TORSDOF 7
ENDMDL
MODEL 2
REMARK VINA RESULT:      -6.4      6.222     10.608
REMARK  7 active torsions:
REMARK  status: ('A' for Active; 'I' for Inactive)
REMARK    1  A    between atoms: C_2  and  N_3 
REMARK    2  A    between atoms: C_6  and  O_12 
REMARK    3  A    between atoms: O_12  and  C_13 
REMARK    4  A    between atoms: C_15  and  C_13 
REMARK    5  A    between atoms: C_15  and  C_16 
REMARK    6  A    between atoms: C_15  and  C_18 
REMARK    7  A    between atoms: C_16  and  O_17 
ROOT
HETATM    1  O   UNK N   1      34.757  13.392  13.441  0.00  0.00    -0.315 OA
ENDROOT
BRANCH   1   2
HETATM    2  C   UNK N   1      35.495  13.534  12.273  0.00  0.00     0.136 C 
HETATM    3  C   UNK N   1      35.738  15.029  11.920  0.00  0.00     0.069 C 
HETATM    4  C   UNK N   1      35.989  15.252  10.407  0.00  0.00     0.224 C 
HETATM    5  N   UNK N   1      34.921  14.615   9.617  0.00  0.00    -0.058 N 
HETATM    6  C   UNK N   1      37.294  14.495  10.086  0.00  0.00     0.184 A 
HETATM    7  C   UNK N   1      35.302  13.197   9.731  0.00  0.00     0.224 C 
HETATM    8  C   UNK N   1      33.571  14.921  10.113  0.00  0.00     0.273 C 
HETATM    9  C   UNK N   1      34.896  12.673  11.132  0.00  0.00     0.069 C 
HETATM   10  C   UNK N   1      36.846  13.148   9.651  0.00  0.00     0.184 A 
HETATM   11  O   UNK N   1      37.364  14.092   8.736  0.00  0.00    -0.371 OA
BRANCH   5  12
HETATM   12  C   UNK N   1      34.959  15.096   8.225  0.00  0.00     0.234 C 
HETATM   13  C   UNK N   1      34.526  16.556   8.088  0.00  0.00     0.035 C 
ENDBRANCH   5  12
ENDBRANCH   1   2
BRANCH   1  14
HETATM   14  C   UNK N   1      34.809  12.299  14.261  0.00  0.00     0.270 C 
HETATM   15  O   UNK N   1      33.919  11.464  14.254  0.00  0.00    -0.264 OA
BRANCH  14  16
HETATM   16  C   UNK N   1      35.942  12.123  15.225  0.00  0.00     0.142 C 
BRANCH  16  17
HETATM   17  C   UNK N   1      37.200  11.673  14.488  0.00  0.00     0.183 C 
BRANCH  17  18
HETATM   18  O   UNK N   1      36.928  10.524  13.741  0.00  0.00    -0.400 OA
HETATM   19  H   UNK N   1      36.981  10.424  12.779  0.00  0.00     0.209 HD
ENDBRANCH  17  18
ENDBRANCH  16  17
BRANCH  16  20
HETATM   20  C   UNK N   1      36.133  13.358  16.069  0.00  0.00    -0.043 A 
HETATM   21  C   UNK N   1      35.393  13.565  17.245  0.00  0.00     0.008 A 
HETATM   22  C   UNK N   1      35.582  14.724  18.003  0.00  0.00     0.001 A 
HETATM   23  C   UNK N   1      36.510  15.683  17.595  0.00  0.00     0.000 A 
HETATM   24  C   UNK N   1      37.249  15.487  16.425  0.00  0.00     0.001 A 
HETATM   25  C   UNK N   1      37.058  14.332  15.663  0.00  0.00     0.008 A 
ENDBRANCH  16  20
ENDBRANCH  14  16
ENDBRANCH   1  14
TORSDOF 7
ENDMDL
MODEL 3
REMARK VINA RESULT:      -6.4     14.333     15.811
REMARK  7 active torsions:
REMARK  status: ('A' for Active; 'I' for Inactive)
REMARK    1  A    between atoms: C_2  and  N_3 
REMARK    2  A    between atoms: C_6  and  O_12 
REMARK    3  A    between atoms: O_12  and  C_13 
REMARK    4  A    between atoms: C_15  and  C_13 
REMARK    5  A    between atoms: C_15  and  C_16 
REMARK    6  A    between atoms: C_15  and  C_18 
REMARK    7  A    between atoms: C_16  and  O_17 
ROOT
HETATM    1  O   UNK N   1      25.168  24.939  -6.638  0.00  0.00    -0.315 OA
ENDROOT
BRANCH   1   2
HETATM    2  C   UNK N   1      25.449  25.838  -5.618  0.00  0.00     0.136 C 
HETATM    3  C   UNK N   1      25.854  27.234  -6.170  0.00  0.00     0.069 C 
HETATM    4  C   UNK N   1      26.728  28.039  -5.176  0.00  0.00     0.224 C 
HETATM    5  N   UNK N   1      27.867  27.219  -4.724  0.00  0.00    -0.058 N 
HETATM    6  C   UNK N   1      25.837  28.283  -3.940  0.00  0.00     0.184 A 
HETATM    7  C   UNK N   1      27.193  26.305  -3.787  0.00  0.00     0.224 C 
HETATM    8  C   UNK N   1      28.570  26.547  -5.826  0.00  0.00     0.273 C 
HETATM    9  C   UNK N   1      26.433  25.221  -4.592  0.00  0.00     0.069 C 
HETATM   10  C   UNK N   1      26.135  27.146  -3.034  0.00  0.00     0.184 A 
HETATM   11  O   UNK N   1      26.589  28.455  -2.760  0.00  0.00    -0.371 OA
BRANCH   5  12
HETATM   12  C   UNK N   1      28.873  28.065  -4.058  0.00  0.00     0.234 C 
HETATM   13  C   UNK N   1      30.129  27.291  -3.657  0.00  0.00     0.035 C 
ENDBRANCH   5  12
ENDBRANCH   1   2
BRANCH   1  14
HETATM   14  C   UNK N   1      26.094  24.123  -7.226  0.00  0.00     0.270 C 
HETATM   15  O   UNK N   1      26.859  24.547  -8.078  0.00  0.00    -0.264 OA
BRANCH  14  16
HETATM   16  C   UNK N   1      26.163  22.669  -6.871  0.00  0.00     0.142 C 
BRANCH  16  17
HETATM   17  C   UNK N   1      25.116  21.882  -7.655  0.00  0.00     0.183 C 
BRANCH  17  18
HETATM   18  O   UNK N   1      24.319  22.758  -8.395  0.00  0.00    -0.400 OA
HETATM   19  H   UNK N   1      24.227  22.795  -9.359  0.00  0.00     0.209 HD
ENDBRANCH  17  18
ENDBRANCH  16  17
BRANCH  16  20
HETATM   20  C   UNK N   1      27.567  22.139  -7.018  0.00  0.00    -0.043 A 
HETATM   21  C   UNK N   1      27.896  21.196  -8.006  0.00  0.00     0.008 A 
HETATM   22  C   UNK N   1      29.203  20.712  -8.113  0.00  0.00     0.001 A 
HETATM   23  C   UNK N   1      30.191  21.167  -7.237  0.00  0.00     0.000 A 
HETATM   24  C   UNK N   1      29.873  22.104  -6.249  0.00  0.00     0.001 A 
HETATM   25  C   UNK N   1      28.565  22.584  -6.137  0.00  0.00     0.008 A 
ENDBRANCH  16  20
ENDBRANCH  14  16
ENDBRANCH   1  14
TORSDOF 7
ENDMDL
MODEL 4
REMARK VINA RESULT:      -6.3     11.477     13.713
REMARK  7 active torsions:
REMARK  status: ('A' for Active; 'I' for Inactive)
REMARK    1  A    between atoms: C_2  and  N_3 
REMARK    2  A    between atoms: C_6  and  O_12 
REMARK    3  A    between atoms: O_12  and  C_13 
REMARK    4  A    between atoms: C_15  and  C_13 
REMARK    5  A    between atoms: C_15  and  C_16 
REMARK    6  A    between atoms: C_15  and  C_18 
REMARK    7  A    between atoms: C_16  and  O_17 
ROOT
HETATM    1  O   UNK N   1      28.427  24.728  -3.760  0.00  0.00    -0.315 OA
ENDROOT
BRANCH   1   2
HETATM    2  C   UNK N   1      29.176  23.569  -3.918  0.00  0.00     0.136 C 
HETATM    3  C   UNK N   1      30.286  23.444  -2.835  0.00  0.00     0.069 C 
HETATM    4  C   UNK N   1      31.474  22.563  -3.295  0.00  0.00     0.224 C 
HETATM    5  N   UNK N   1      31.966  23.023  -4.607  0.00  0.00    -0.058 N 
HETATM    6  C   UNK N   1      30.889  21.152  -3.508  0.00  0.00     0.184 A 
HETATM    7  C   UNK N   1      30.909  22.507  -5.493  0.00  0.00     0.224 C 
HETATM    8  C   UNK N   1      32.158  24.478  -4.677  0.00  0.00     0.273 C 
HETATM    9  C   UNK N   1      29.662  23.419  -5.382  0.00  0.00     0.069 C 
HETATM   10  C   UNK N   1      30.513  21.116  -4.943  0.00  0.00     0.184 A 
HETATM   11  O   UNK N   1      31.625  20.400  -4.447  0.00  0.00    -0.371 OA
BRANCH   5  12
HETATM   12  C   UNK N   1      33.282  22.427  -4.896  0.00  0.00     0.234 C 
HETATM   13  C   UNK N   1      33.706  22.600  -6.355  0.00  0.00     0.035 C 
ENDBRANCH   5  12
ENDBRANCH   1   2
BRANCH   1  14
HETATM   14  C   UNK N   1      27.108  24.753  -3.402  0.00  0.00     0.270 C 
HETATM   15  O   UNK N   1      26.663  23.967  -2.581  0.00  0.00    -0.264 OA
BRANCH  14  16
HETATM   16  C   UNK N   1      26.162  25.721  -4.044  0.00  0.00     0.142 C 
BRANCH  16  17
HETATM   17  C   UNK N   1      26.537  27.153  -3.676  0.00  0.00     0.183 C 
BRANCH  17  18
HETATM   18  O   UNK N   1      25.497  27.746  -2.956  0.00  0.00    -0.400 OA
HETATM   19  H   UNK N   1      24.546  27.678  -3.135  0.00  0.00     0.209 HD
ENDBRANCH  17  18
ENDBRANCH  16  17
BRANCH  16  20
HETATM   20  C   UNK N   1      26.060  25.476  -5.529  0.00  0.00    -0.043 A 
HETATM   21  C   UNK N   1      26.054  26.537  -6.450  0.00  0.00     0.008 A 
HETATM   22  C   UNK N   1      25.946  26.282  -7.820  0.00  0.00     0.001 A 
HETATM   23  C   UNK N   1      25.845  24.968  -8.281  0.00  0.00     0.000 A 
HETATM   24  C   UNK N   1      25.848  23.906  -7.373  0.00  0.00     0.001 A 
HETATM   25  C   UNK N   1      25.950  24.159  -6.002  0.00  0.00     0.008 A 
ENDBRANCH  16  20
ENDBRANCH  14  16
ENDBRANCH   1  14
TORSDOF 7
ENDMDL
MODEL 5
REMARK VINA RESULT:      -6.3      6.579     11.188
REMARK  7 active torsions:
REMARK  status: ('A' for Active; 'I' for Inactive)
REMARK    1  A    between atoms: C_2  and  N_3 
REMARK    2  A    between atoms: C_6  and  O_12 
REMARK    3  A    between atoms: O_12  and  C_13 
REMARK    4  A    between atoms: C_15  and  C_13 
REMARK    5  A    between atoms: C_15  and  C_16 
REMARK    6  A    between atoms: C_15  and  C_18 
REMARK    7  A    between atoms: C_16  and  O_17 
ROOT
HETATM    1  O   UNK N   1      35.204  13.805  13.562  0.00  0.00    -0.315 OA
ENDROOT
BRANCH   1   2
HETATM    2  C   UNK N   1      35.836  13.795  12.325  0.00  0.00     0.136 C 
HETATM    3  C   UNK N   1      36.068  15.233  11.782  0.00  0.00     0.069 C 
HETATM    4  C   UNK N   1      36.185  15.277  10.238  0.00  0.00     0.224 C 
HETATM    5  N   UNK N   1      35.039  14.582   9.624  0.00  0.00    -0.058 N 
HETATM    6  C   UNK N   1      37.443  14.454   9.891  0.00  0.00     0.184 A 
HETATM    7  C   UNK N   1      35.407  13.177   9.866  0.00  0.00     0.224 C 
HETATM    8  C   UNK N   1      33.745  14.978  10.199  0.00  0.00     0.273 C 
HETATM    9  C   UNK N   1      35.123  12.826  11.348  0.00  0.00     0.069 C 
HETATM   10  C   UNK N   1      36.937  13.080   9.655  0.00  0.00     0.184 A 
HETATM   11  O   UNK N   1      37.384  13.900   8.596  0.00  0.00    -0.371 OA
BRANCH   5  12
HETATM   12  C   UNK N   1      34.958  14.902   8.188  0.00  0.00     0.234 C 
HETATM   13  C   UNK N   1      33.994  13.990   7.429  0.00  0.00     0.035 C 
ENDBRANCH   5  12
ENDBRANCH   1   2
BRANCH   1  14
HETATM   14  C   UNK N   1      35.537  12.988  14.607  0.00  0.00     0.270 C 
HETATM   15  O   UNK N   1      36.704  12.753  14.877  0.00  0.00    -0.264 OA
BRANCH  14  16
HETATM   16  C   UNK N   1      34.472  12.320  15.421  0.00  0.00     0.142 C 
BRANCH  16  17
HETATM   17  C   UNK N   1      34.101  10.973  14.807  0.00  0.00     0.183 C 
BRANCH  17  18
HETATM   18  O   UNK N   1      35.094  10.570  13.911  0.00  0.00    -0.400 OA
HETATM   19  H   UNK N   1      35.093  10.677  12.947  0.00  0.00     0.209 HD
ENDBRANCH  17  18
ENDBRANCH  16  17
BRANCH  16  20
HETATM   20  C   UNK N   1      34.866  12.244  16.875  0.00  0.00    -0.043 A 
HETATM   21  C   UNK N   1      35.204  11.023  17.481  0.00  0.00     0.008 A 
HETATM   22  C   UNK N   1      35.554  10.979  18.834  0.00  0.00     0.001 A 
HETATM   23  C   UNK N   1      35.572  12.152  19.590  0.00  0.00     0.000 A 
HETATM   24  C   UNK N   1      35.235  13.372  18.996  0.00  0.00     0.001 A 
HETATM   25  C   UNK N   1      34.879  13.417  17.645  0.00  0.00     0.008 A 
ENDBRANCH  16  20
ENDBRANCH  14  16
ENDBRANCH   1  14
TORSDOF 7
ENDMDL
MODEL 6
REMARK VINA RESULT:      -6.2      1.557      2.011
REMARK  7 active torsions:
REMARK  status: ('A' for Active; 'I' for Inactive)
REMARK    1  A    between atoms: C_2  and  N_3 
REMARK    2  A    between atoms: C_6  and  O_12 
REMARK    3  A    between atoms: O_12  and  C_13 
REMARK    4  A    between atoms: C_15  and  C_13 
REMARK    5  A    between atoms: C_15  and  C_16 
REMARK    6  A    between atoms: C_15  and  C_18 
REMARK    7  A    between atoms: C_16  and  O_17 
ROOT
HETATM    1  O   UNK N   1      29.348  16.738   7.238  0.00  0.00    -0.315 OA
ENDROOT
BRANCH   1   2
HETATM    2  C   UNK N   1      30.686  17.092   7.132  0.00  0.00     0.136 C 
HETATM    3  C   UNK N   1      31.428  16.244   6.060  0.00  0.00     0.069 C 
HETATM    4  C   UNK N   1      32.953  16.156   6.317  0.00  0.00     0.224 C 
HETATM    5  N   UNK N   1      33.208  15.726   7.704  0.00  0.00    -0.058 N 
HETATM    6  C   UNK N   1      33.480  17.600   6.194  0.00  0.00     0.184 A 
HETATM    7  C   UNK N   1      32.898  16.964   8.438  0.00  0.00     0.224 C 
HETATM    8  C   UNK N   1      32.404  14.564   8.108  0.00  0.00     0.273 C 
HETATM    9  C   UNK N   1      31.360  17.130   8.527  0.00  0.00     0.069 C 
HETATM   10  C   UNK N   1      33.438  18.133   7.579  0.00  0.00     0.184 A 
HETATM   11  O   UNK N   1      34.657  17.809   6.942  0.00  0.00    -0.371 OA
BRANCH   5  12
HETATM   12  C   UNK N   1      34.615  15.318   7.860  0.00  0.00     0.234 C 
HETATM   13  C   UNK N   1      35.044  15.210   9.324  0.00  0.00     0.035 C 
ENDBRANCH   5  12
ENDBRANCH   1   2
BRANCH   1  14
HETATM   14  C   UNK N   1      28.309  17.492   6.769  0.00  0.00     0.270 C 
HETATM   15  O   UNK N   1      28.001  18.544   7.306  0.00  0.00    -0.264 OA
BRANCH  14  16
HETATM   16  C   UNK N   1      27.488  17.021   5.608  0.00  0.00     0.142 C 
BRANCH  16  17
HETATM   17  C   UNK N   1      26.501  15.947   6.057  0.00  0.00     0.183 C 
BRANCH  17  18
HETATM   18  O   UNK N   1      26.389  15.959   7.450  0.00  0.00    -0.400 OA
HETATM   19  H   UNK N   1      26.120  15.224   8.023  0.00  0.00     0.209 HD
ENDBRANCH  17  18
ENDBRANCH  16  17
BRANCH  16  20
HETATM   20  C   UNK N   1      26.847  18.181   4.888  0.00  0.00    -0.043 A 
HETATM   21  C   UNK N   1      25.452  18.343   4.851  0.00  0.00     0.008 A 
HETATM   22  C   UNK N   1      24.884  19.421   4.167  0.00  0.00     0.001 A 
HETATM   23  C   UNK N   1      25.703  20.346   3.517  0.00  0.00     0.000 A 
HETATM   24  C   UNK N   1      27.092  20.192   3.546  0.00  0.00     0.001 A 
HETATM   25  C   UNK N   1      27.662  19.112   4.225  0.00  0.00     0.008 A 
ENDBRANCH  16  20
ENDBRANCH  14  16
ENDBRANCH   1  14
TORSDOF 7
ENDMDL
MODEL 7
REMARK VINA RESULT:      -6.1      2.927      4.958
REMARK  7 active torsions:
REMARK  status: ('A' for Active; 'I' for Inactive)
REMARK    1  A    between atoms: C_2  and  N_3 
REMARK    2  A    between atoms: C_6  and  O_12 
REMARK    3  A    between atoms: O_12  and  C_13 
REMARK    4  A    between atoms: C_15  and  C_13 
REMARK    5  A    between atoms: C_15  and  C_16 
REMARK    6  A    between atoms: C_15  and  C_18 
REMARK    7  A    between atoms: C_16  and  O_17 
ROOT
HETATM    1  O   UNK N   1      32.612  15.213   9.247  0.00  0.00    -0.315 OA
ENDROOT
BRANCH   1   2
HETATM    2  C   UNK N   1      33.617  14.891  10.150  0.00  0.00     0.136 C 
HETATM    3  C   UNK N   1      34.752  15.955  10.157  0.00  0.00     0.069 C 
HETATM    4  C   UNK N   1      36.107  15.380  10.640  0.00  0.00     0.224 C 
HETATM    5  N   UNK N   1      36.435  14.157   9.886  0.00  0.00    -0.058 N 
HETATM    6  C   UNK N   1      35.879  14.953  12.105  0.00  0.00     0.184 A 
HETATM    7  C   UNK N   1      35.514  13.193  10.509  0.00  0.00     0.224 C 
HETATM    8  C   UNK N   1      36.264  14.307   8.434  0.00  0.00     0.273 C 
HETATM    9  C   UNK N   1      34.084  13.426   9.958  0.00  0.00     0.069 C 
HETATM   10  C   UNK N   1      35.484  13.524  12.020  0.00  0.00     0.184 A 
HETATM   11  O   UNK N   1      36.751  13.919  12.506  0.00  0.00    -0.371 OA
BRANCH   5  12
HETATM   12  C   UNK N   1      37.849  13.795  10.091  0.00  0.00     0.234 C 
HETATM   13  C   UNK N   1      38.172  12.373   9.633  0.00  0.00     0.035 C 
ENDBRANCH   5  12
ENDBRANCH   1   2
BRANCH   1  14
HETATM   14  C   UNK N   1      32.827  15.748   8.008  0.00  0.00     0.270 C 
HETATM   15  O   UNK N   1      33.271  15.068   7.096  0.00  0.00    -0.264 OA
BRANCH  14  16
HETATM   16  C   UNK N   1      32.567  17.200   7.749  0.00  0.00     0.142 C 
BRANCH  16  17
HETATM   17  C   UNK N   1      33.147  17.611   6.398  0.00  0.00     0.183 C 
BRANCH  17  18
HETATM   18  O   UNK N   1      34.536  17.723   6.493  0.00  0.00    -0.400 OA
HETATM   19  H   UNK N   1      35.124  18.236   5.916  0.00  0.00     0.209 HD
ENDBRANCH  17  18
ENDBRANCH  16  17
BRANCH  16  20
HETATM   20  C   UNK N   1      31.104  17.528   7.914  0.00  0.00    -0.043 A 
HETATM   21  C   UNK N   1      30.638  18.275   9.008  0.00  0.00     0.008 A 
HETATM   22  C   UNK N   1      29.275  18.555   9.143  0.00  0.00     0.001 A 
HETATM   23  C   UNK N   1      28.368  18.092   8.187  0.00  0.00     0.000 A 
HETATM   24  C   UNK N   1      28.822  17.346   7.096  0.00  0.00     0.001 A 
HETATM   25  C   UNK N   1      30.184  17.061   6.962  0.00  0.00     0.008 A 
ENDBRANCH  16  20
ENDBRANCH  14  16
ENDBRANCH   1  14
TORSDOF 7
ENDMDL
MODEL 8
REMARK VINA RESULT:      -6.1      7.714     11.595
REMARK  7 active torsions:
REMARK  status: ('A' for Active; 'I' for Inactive)
REMARK    1  A    between atoms: C_2  and  N_3 
REMARK    2  A    between atoms: C_6  and  O_12 
REMARK    3  A    between atoms: O_12  and  C_13 
REMARK    4  A    between atoms: C_15  and  C_13 
REMARK    5  A    between atoms: C_15  and  C_16 
REMARK    6  A    between atoms: C_15  and  C_18 
REMARK    7  A    between atoms: C_16  and  O_17 
ROOT
HETATM    1  O   UNK N   1      35.144  10.823  13.572  0.00  0.00    -0.315 OA
ENDROOT
BRANCH   1   2
HETATM    2  C   UNK N   1      35.148  12.025  12.876  0.00  0.00     0.136 C 
HETATM    3  C   UNK N   1      34.598  11.860  11.431  0.00  0.00     0.069 C 
HETATM    4  C   UNK N   1      35.126  12.947  10.462  0.00  0.00     0.224 C 
HETATM    5  N   UNK N   1      36.596  13.021  10.539  0.00  0.00    -0.058 N 
HETATM    6  C   UNK N   1      34.583  14.286  11.003  0.00  0.00     0.184 A 
HETATM    7  C   UNK N   1      36.770  13.720  11.823  0.00  0.00     0.224 C 
HETATM    8  C   UNK N   1      37.248  11.706  10.472  0.00  0.00     0.273 C 
HETATM    9  C   UNK N   1      36.529  12.720  12.982  0.00  0.00     0.069 C 
HETATM   10  C   UNK N   1      35.654  14.789  11.898  0.00  0.00     0.184 A 
HETATM   11  O   UNK N   1      35.395  15.381  10.642  0.00  0.00    -0.371 OA
BRANCH   5  12
HETATM   12  C   UNK N   1      37.128  13.795   9.403  0.00  0.00     0.234 C 
HETATM   13  C   UNK N   1      38.609  14.139   9.559  0.00  0.00     0.035 C 
ENDBRANCH   5  12
ENDBRANCH   1   2
BRANCH   1  14
HETATM   14  C   UNK N   1      34.334  10.550  14.640  0.00  0.00     0.270 C 
HETATM   15  O   UNK N   1      33.129  10.739  14.581  0.00  0.00    -0.264 OA
BRANCH  14  16
HETATM   16  C   UNK N   1      34.913  10.056  15.929  0.00  0.00     0.142 C 
BRANCH  16  17
HETATM   17  C   UNK N   1      36.224   9.317  15.673  0.00  0.00     0.183 C 
BRANCH  17  18
HETATM   18  O   UNK N   1      37.251  10.237  15.446  0.00  0.00    -0.400 OA
HETATM   19  H   UNK N   1      38.120  10.060  15.055  0.00  0.00     0.209 HD
ENDBRANCH  17  18
ENDBRANCH  16  17
BRANCH  16  20
HETATM   20  C   UNK N   1      35.025  11.171  16.938  0.00  0.00    -0.043 A 
HETATM   21  C   UNK N   1      34.972  12.520  16.550  0.00  0.00     0.008 A 
HETATM   22  C   UNK N   1      35.089  13.535  17.504  0.00  0.00     0.001 A 
HETATM   23  C   UNK N   1      35.258  13.211  18.852  0.00  0.00     0.000 A 
HETATM   24  C   UNK N   1      35.315  11.872  19.248  0.00  0.00     0.001 A 
HETATM   25  C   UNK N   1      35.203  10.856  18.294  0.00  0.00     0.008 A 
ENDBRANCH  16  20
ENDBRANCH  14  16
ENDBRANCH   1  14
TORSDOF 7
ENDMDL
MODEL 9
REMARK VINA RESULT:      -6.0      5.261      7.828
REMARK  7 active torsions:
REMARK  status: ('A' for Active; 'I' for Inactive)
REMARK    1  A    between atoms: C_2  and  N_3 
REMARK    2  A    between atoms: C_6  and  O_12 
REMARK    3  A    between atoms: O_12  and  C_13 
REMARK    4  A    between atoms: C_15  and  C_13 
REMARK    5  A    between atoms: C_15  and  C_16 
REMARK    6  A    between atoms: C_15  and  C_18 
REMARK    7  A    between atoms: C_16  and  O_17 
ROOT
HETATM    1  O   UNK N   1      23.457  19.442   3.063  0.00  0.00    -0.315 OA
ENDROOT
BRANCH   1   2
HETATM    2  C   UNK N   1      24.527  19.825   3.861  0.00  0.00     0.136 C 
HETATM    3  C   UNK N   1      25.769  20.224   3.014  0.00  0.00     0.069 C 
HETATM    4  C   UNK N   1      27.099  20.065   3.792  0.00  0.00     0.224 C 
HETATM    5  N   UNK N   1      27.183  18.716   4.380  0.00  0.00    -0.058 N 
HETATM    6  C   UNK N   1      27.016  21.060   4.968  0.00  0.00     0.184 A 
HETATM    7  C   UNK N   1      26.244  18.848   5.507  0.00  0.00     0.224 C 
HETATM    8  C   UNK N   1      26.842  17.647   3.431  0.00  0.00     0.273 C 
HETATM    9  C   UNK N   1      24.792  18.776   4.971  0.00  0.00     0.069 C 
HETATM   10  C   UNK N   1      26.450  20.268   6.088  0.00  0.00     0.184 A 
HETATM   11  O   UNK N   1      27.806  20.662   6.066  0.00  0.00    -0.371 OA
BRANCH   5  12
HETATM   12  C   UNK N   1      28.559  18.438   4.826  0.00  0.00     0.234 C 
HETATM   13  C   UNK N   1      28.651  17.227   5.755  0.00  0.00     0.035 C 
ENDBRANCH   5  12
ENDBRANCH   1   2
BRANCH   1  14
HETATM   14  C   UNK N   1      22.235  20.056   3.060  0.00  0.00     0.270 C 
HETATM   15  O   UNK N   1      22.131  21.250   2.835  0.00  0.00    -0.264 OA
BRANCH  14  16
HETATM   16  C   UNK N   1      20.993  19.282   3.381  0.00  0.00     0.142 C 
BRANCH  16  17
HETATM   17  C   UNK N   1      20.270  18.883   2.098  0.00  0.00     0.183 C 
BRANCH  17  18
HETATM   18  O   UNK N   1      18.908  18.707   2.355  0.00  0.00    -0.400 OA
HETATM   19  H   UNK N   1      18.244  18.325   1.762  0.00  0.00     0.209 HD
ENDBRANCH  17  18
ENDBRANCH  16  17
BRANCH  16  20
HETATM   20  C   UNK N   1      21.296  18.125   4.301  0.00  0.00    -0.043 A 
HETATM   21  C   UNK N   1      21.308  18.281   5.697  0.00  0.00     0.008 A 
HETATM   22  C   UNK N   1      21.604  17.195   6.526  0.00  0.00     0.001 A 
HETATM   23  C   UNK N   1      21.887  15.946   5.968  0.00  0.00     0.000 A 
HETATM   24  C   UNK N   1      21.880  15.782   4.580  0.00  0.00     0.001 A 
HETATM   25  C   UNK N   1      21.590  16.868   3.750  0.00  0.00     0.008 A 
ENDBRANCH  16  20
ENDBRANCH  14  16
ENDBRANCH   1  14
TORSDOF 7
ENDMDL
