REMARK  8 active torsions:
REMARK  status: ('A' for Active; 'I' for Inactive)
REMARK    1  A    between atoms: C_4  and  C_3 
REMARK    2  A    between atoms: S_13  and  C_3 
REMARK    3  A    between atoms: C_5  and  C_4 
REMARK    4  A    between atoms: C_4  and  N_8 
REMARK    5  A    between atoms: O_11  and  C_5 
REMARK    6  A    between atoms: C_7  and  C_6 
REMARK    7  A    between atoms: C_6  and  O_12 
REMARK    8  A    between atoms: S_14  and  C_7 
ROOT
HETATM    1  C   UNK N   1       0.313   1.543  -0.260  0.00  0.00     0.130 C 
HETATM    2  N   UNK N   1      -0.728   0.940   0.218  0.00  0.00    -0.358 N 
ATOM      3  HN  UNK N   1      -1.299   1.448   0.892  1.00  0.00     0.162 HD
ENDROOT
BRANCH   2   4
HETATM    4  C   UNK N   1      -1.142  -0.408  -0.136  0.00  0.00     0.190 C 
BRANCH   4   5
HETATM    5  C   UNK N   1      -2.451  -0.678   0.604  0.00  0.00     0.106 C 
BRANCH   5   6
HETATM    6  S   UNK N   1      -3.326  -2.155  -0.001  0.00  0.00    -0.180 SA
HETATM    7  H   UNK N   1      -4.609  -2.140  -0.453  0.00  0.00     0.101 HD
ENDBRANCH   5   6
ENDBRANCH   4   5
BRANCH   4   8
HETATM    8  C   UNK N   1      -0.106  -1.460   0.218  0.00  0.00     0.164 C 
HETATM    9  O   UNK N   1       0.935  -1.155   0.778  0.00  0.00    -0.648 OA
BRANCH   8  10
HETATM   10  O   UNK N   1      -0.325  -2.750  -0.104  0.00  0.00    -0.775 OA
HETATM   11  H   UNK N   1      -1.178  -3.067  -0.328  0.00  0.00     0.167 HD
ENDBRANCH   8  10
ENDBRANCH   4   8
ENDBRANCH   2   4
BRANCH   1  12
HETATM   12  C   UNK N   1       0.614   2.972   0.132  0.00  0.00     0.062 C 
HETATM   13  C   UNK N   1       0.702   3.826  -1.119  0.00  0.00     0.035 C 
HETATM   14  C   UNK N   1      -0.461   3.567   1.032  0.00  0.00     0.035 C 
BRANCH  12  15
HETATM   15  S   UNK N   1       2.200   3.049   1.011  0.00  0.00    -0.164 SA
HETATM   16  H   UNK N   1       2.845   2.048   1.669  0.00  0.00     0.102 HD
ENDBRANCH  12  15
ENDBRANCH   1  12
BRANCH   1  17
HETATM   17  O   UNK N   1       1.137   0.909  -1.124  0.00  0.00    -0.348 OA
HETATM   18  H   UNK N   1       1.042   0.195  -1.723  0.00  0.00     0.219 HD
ENDBRANCH   1  17
TORSDOF 8
