REMARK  8 active torsions:
REMARK  status: ('A' for Active; 'I' for Inactive)
REMARK    1  A    between atoms: C_5  and  C_4 
REMARK    2  A    between atoms: C_6  and  C_5 
REMARK    3  A    between atoms: C_7  and  C_6 
REMARK    4  A    between atoms: C_8  and  C_7 
REMARK    5  A    between atoms: C_11  and  C_8 
REMARK    6  A    between atoms: C_12  and  C_10 
REMARK    7  A    between atoms: O_15  and  C_11 
REMARK    8  A    between atoms: O_15  and  C_12 
ROOT
HETATM    1  C   UNK N   1       3.518   0.110  -0.124  0.00  0.00     0.042 C 
HETATM    2  C   UNK N   1       4.831   2.104  -0.023  0.00  0.00     0.105 C 
HETATM    3  C   UNK N   1       3.552   1.438  -0.083  0.00  0.00     0.110 C 
HETATM    4  N   UNK N   1       5.856   2.636   0.045  0.00  0.00    -0.191 NA
ENDROOT
BRANCH   3   5
HETATM    5  C   UNK N   1       2.303   2.218   0.054  0.00  0.00     0.303 C 
HETATM    6  O   UNK N   1       2.373   3.424   0.251  0.00  0.00    -0.258 OA
BRANCH   5   7
HETATM    7  O   UNK N   1       1.089   1.603  -0.049  0.00  0.00    -0.312 OA
BRANCH   7   8
HETATM    8  C   UNK N   1      -0.117   2.220   0.247  0.00  0.00     0.128 C 
HETATM    9  C   UNK N   1      -0.298   3.515  -0.542  0.00  0.00     0.040 C 
BRANCH   8  10
HETATM   10  C   UNK N   1      -1.279   1.278  -0.058  0.00  0.00     0.032 C 
BRANCH  10  11
HETATM   11  C   UNK N   1      -2.565   1.906   0.454  0.00  0.00     0.002 C 
BRANCH  11  12
HETATM   12  C   UNK N   1      -3.812   1.249  -0.100  0.00  0.00     0.000 C 
BRANCH  12  13
HETATM   13  C   UNK N   1      -4.921   2.276   0.020  0.00  0.00    -0.000 C 
BRANCH  13  14
HETATM   14  C   UNK N   1      -6.293   1.651  -0.094  0.00  0.00    -0.005 C 
HETATM   15  C   UNK N   1      -7.329   2.754   0.002  0.00  0.00     0.005 C 
ENDBRANCH  13  14
ENDBRANCH  12  13
ENDBRANCH  11  12
ENDBRANCH  10  11
ENDBRANCH   8  10
ENDBRANCH   7   8
ENDBRANCH   5   7
ENDBRANCH   3   5
TORSDOF 8
