MODEL 1
REMARK VINA RESULT:      -7.6      0.000      0.000
REMARK  11 active torsions:
REMARK  status: ('A' for Active; 'I' for Inactive)
REMARK    1  A    between atoms: C_5  and  C_8 
REMARK       I    between atoms: C_8  and  N_10 
REMARK    2  A    between atoms: C_11  and  N_10 
REMARK    3  A    between atoms: N_10  and  C_25 
REMARK    4  A    between atoms: C_14  and  O_17 
REMARK    5  A    between atoms: C_14  and  C_18 
REMARK    6  A    between atoms: C_18  and  O_19 
REMARK    7  A    between atoms: C_20  and  O_19 
REMARK    8  A    between atoms: C_26  and  C_36 
REMARK    9  A    between atoms: C_28  and  C_30 
REMARK   10  A    between atoms: C_31  and  C_32 
REMARK   11  A    between atoms: C_36  and  O_38 
ROOT
HETATM    1  C   UNK N   1      26.816  18.117   5.377  0.00  0.00     0.229 C 
HETATM    2  O   UNK N   1      27.286  19.230   5.159  0.00  0.00    -0.273 OA
HETATM    3  N   UNK N   1      27.539  17.212   6.163  0.00  0.00    -0.311 N 
ENDROOT
BRANCH   3   4
HETATM    4  C   UNK N   1      28.781  17.707   6.693  0.00  0.00     0.093 C 
HETATM    5  C   UNK N   1      30.009  16.965   6.145  0.00  0.00     0.029 C 
HETATM    6  C   UNK N   1      30.776  16.272   7.260  0.00  0.00     0.042 C 
HETATM    7  C   UNK N   1      31.070  17.183   8.453  0.00  0.00     0.079 C 
HETATM    8  C   UNK N   1      29.973  18.189   8.811  0.00  0.00     0.042 C 
HETATM    9  C   UNK N   1      28.646  17.847   8.196  0.00  0.00     0.029 C 
BRANCH   7  10
HETATM   10  O   UNK N   1      31.311  16.386   9.572  0.00  0.00    -0.388 OA
HETATM   11  H   UNK N   1      30.712  16.008  10.234  0.00  0.00     0.210 HD
ENDBRANCH   7  10
BRANCH   7  12
HETATM   12  C   UNK N   1      32.312  17.965   8.107  0.00  0.00     0.206 C 
BRANCH  12  13
HETATM   13  O   UNK N   1      33.433  17.480   8.821  0.00  0.00    -0.381 OA
BRANCH  13  14
HETATM   14  C   UNK N   1      34.373  16.872   7.953  0.00  0.00     0.147 C 
HETATM   15  C   UNK N   1      34.506  15.385   8.141  0.00  0.00     0.199 C 
HETATM   16  O   UNK N   1      35.035  14.847   6.955  0.00  0.00    -0.389 OA
HETATM   17  C   UNK N   1      34.827  15.798   5.929  0.00  0.00     0.170 C 
HETATM   18  C   UNK N   1      34.131  17.016   6.480  0.00  0.00     0.060 C 
ENDBRANCH  13  14
ENDBRANCH  12  13
ENDBRANCH   7  12
ENDBRANCH   3   4
BRANCH   3  19
HETATM   19  C   UNK N   1      27.172  15.799   6.297  0.00  0.00     0.063 C 
HETATM   20  C   UNK N   1      27.445  14.672   5.423  0.00  0.00     0.106 C 
HETATM   21  S   UNK N   1      26.292  13.543   5.731  0.00  0.00    -0.072 SA
HETATM   22  C   UNK N   1      25.660  14.241   7.039  0.00  0.00     0.061 C 
HETATM   23  C   UNK N   1      26.240  15.433   7.250  0.00  0.00     0.059 C 
BRANCH  20  24
HETATM   24  C   UNK N   1      28.572  14.213   4.617  0.00  0.00     0.185 C 
HETATM   25  O   UNK N   1      29.450  13.546   5.145  0.00  0.00    -0.646 OA
BRANCH  24  26
HETATM   26  O   UNK N   1      28.842  14.842   3.461  0.00  0.00    -0.772 OA
HETATM   27  H   UNK N   1      28.566  15.432   2.786  0.00  0.00     0.167 HD
ENDBRANCH  24  26
ENDBRANCH  20  24
BRANCH  22  28
HETATM   28  C   UNK N   1      24.947  13.640   8.042  0.00  0.00    -0.059 C 
HETATM   29  C   UNK N   1      24.334  13.132   8.913  0.00  0.00    -0.092 C 
BRANCH  29  30
HETATM   30  C   UNK N   1      23.609  12.344   9.846  0.00  0.00     0.013 C 
HETATM   31  C   UNK N   1      22.344  13.032  10.361  0.00  0.00     0.028 C 
HETATM   32  C   UNK N   1      24.518  12.148  11.013  0.00  0.00     0.028 C 
HETATM   33  C   UNK N   1      23.263  11.100   9.065  0.00  0.00     0.028 C 
ENDBRANCH  29  30
ENDBRANCH  22  28
ENDBRANCH   3  19
BRANCH   1  34
HETATM   34  C   UNK N   1      25.432  17.828   4.797  0.00  0.00     0.082 C 
HETATM   35  C   UNK N   1      25.362  16.891   3.590  0.00  0.00     0.041 C 
HETATM   36  C   UNK N   1      23.933  16.427   3.458  0.00  0.00    -0.024 C 
HETATM   37  C   UNK N   1      22.912  17.256   3.735  0.00  0.00    -0.087 C 
HETATM   38  C   UNK N   1      21.514  16.762   3.609  0.00  0.00     0.043 C 
HETATM   39  C   UNK N   1      23.147  18.673   4.227  0.00  0.00     0.034 C 
HETATM   40  C   UNK N   1      24.624  19.057   4.411  0.00  0.00     0.018 C 
ENDBRANCH   1  34
TORSDOF 11
ENDMDL
MODEL 2
REMARK VINA RESULT:      -7.0      2.045      2.894
REMARK  11 active torsions:
REMARK  status: ('A' for Active; 'I' for Inactive)
REMARK    1  A    between atoms: C_5  and  C_8 
REMARK       I    between atoms: C_8  and  N_10 
REMARK    2  A    between atoms: C_11  and  N_10 
REMARK    3  A    between atoms: N_10  and  C_25 
REMARK    4  A    between atoms: C_14  and  O_17 
REMARK    5  A    between atoms: C_14  and  C_18 
REMARK    6  A    between atoms: C_18  and  O_19 
REMARK    7  A    between atoms: C_20  and  O_19 
REMARK    8  A    between atoms: C_26  and  C_36 
REMARK    9  A    between atoms: C_28  and  C_30 
REMARK   10  A    between atoms: C_31  and  C_32 
REMARK   11  A    between atoms: C_36  and  O_38 
ROOT
HETATM    1  C   UNK N   1      25.872  18.647   3.708  0.00  0.00     0.229 C 
HETATM    2  O   UNK N   1      26.596  19.597   3.425  0.00  0.00    -0.273 OA
HETATM    3  N   UNK N   1      26.456  17.434   4.091  0.00  0.00    -0.311 N 
ENDROOT
BRANCH   3   4
HETATM    4  C   UNK N   1      27.892  17.433   4.161  0.00  0.00     0.093 C 
HETATM    5  C   UNK N   1      28.536  16.306   3.340  0.00  0.00     0.029 C 
HETATM    6  C   UNK N   1      29.326  15.359   4.228  0.00  0.00     0.042 C 
HETATM    7  C   UNK N   1      30.289  16.077   5.176  0.00  0.00     0.079 C 
HETATM    8  C   UNK N   1      29.792  17.406   5.752  0.00  0.00     0.042 C 
HETATM    9  C   UNK N   1      28.307  17.581   5.611  0.00  0.00     0.029 C 
BRANCH   7  10
HETATM   10  O   UNK N   1      30.582  15.225   6.241  0.00  0.00    -0.388 OA
HETATM   11  H   UNK N   1      31.407  14.794   6.513  0.00  0.00     0.210 HD
ENDBRANCH   7  10
BRANCH   7  12
HETATM   12  C   UNK N   1      31.543  16.360   4.389  0.00  0.00     0.206 C 
BRANCH  12  13
HETATM   13  O   UNK N   1      32.169  17.547   4.840  0.00  0.00    -0.381 OA
BRANCH  13  14
HETATM   14  C   UNK N   1      33.474  17.289   5.327  0.00  0.00     0.147 C 
HETATM   15  C   UNK N   1      33.642  17.560   6.797  0.00  0.00     0.199 C 
HETATM   16  O   UNK N   1      34.748  16.818   7.247  0.00  0.00    -0.389 OA
HETATM   17  C   UNK N   1      34.992  15.802   6.296  0.00  0.00     0.170 C 
HETATM   18  C   UNK N   1      33.995  15.891   5.168  0.00  0.00     0.060 C 
ENDBRANCH  13  14
ENDBRANCH  12  13
ENDBRANCH   7  12
ENDBRANCH   3   4
BRANCH   3  19
HETATM   19  C   UNK N   1      25.693  16.190   4.232  0.00  0.00     0.063 C 
HETATM   20  C   UNK N   1      24.961  15.420   3.242  0.00  0.00     0.106 C 
HETATM   21  S   UNK N   1      23.831  14.550   4.058  0.00  0.00    -0.072 SA
HETATM   22  C   UNK N   1      24.366  14.857   5.546  0.00  0.00     0.061 C 
HETATM   23  C   UNK N   1      25.385  15.729   5.499  0.00  0.00     0.059 C 
BRANCH  20  24
HETATM   24  C   UNK N   1      25.160  15.038   1.848  0.00  0.00     0.185 C 
HETATM   25  O   UNK N   1      25.987  15.639   1.177  0.00  0.00    -0.646 OA
BRANCH  24  26
HETATM   26  O   UNK N   1      24.195  14.345   1.220  0.00  0.00    -0.772 OA
HETATM   27  H   UNK N   1      23.789  13.519   1.041  0.00  0.00     0.167 HD
ENDBRANCH  24  26
ENDBRANCH  20  24
BRANCH  22  28
HETATM   28  C   UNK N   1      24.153  14.116   6.678  0.00  0.00    -0.059 C 
HETATM   29  C   UNK N   1      23.965  13.470   7.648  0.00  0.00    -0.092 C 
BRANCH  29  30
HETATM   30  C   UNK N   1      23.798  12.863   8.921  0.00  0.00     0.013 C 
HETATM   31  C   UNK N   1      22.579  13.385   9.683  0.00  0.00     0.028 C 
HETATM   32  C   UNK N   1      25.010  13.229   9.713  0.00  0.00     0.028 C 
HETATM   33  C   UNK N   1      23.642  11.398   8.597  0.00  0.00     0.028 C 
ENDBRANCH  29  30
ENDBRANCH  22  28
ENDBRANCH   3  19
BRANCH   1  34
HETATM   34  C   UNK N   1      24.365  18.892   3.662  0.00  0.00     0.082 C 
HETATM   35  C   UNK N   1      23.894  20.275   3.205  0.00  0.00     0.041 C 
HETATM   36  C   UNK N   1      22.436  20.161   2.841  0.00  0.00    -0.024 C 
HETATM   37  C   UNK N   1      21.613  19.359   3.538  0.00  0.00    -0.087 C 
HETATM   38  C   UNK N   1      20.182  19.257   3.141  0.00  0.00     0.043 C 
HETATM   39  C   UNK N   1      22.116  18.508   4.690  0.00  0.00     0.034 C 
HETATM   40  C   UNK N   1      23.626  18.615   4.962  0.00  0.00     0.018 C 
ENDBRANCH   1  34
TORSDOF 11
ENDMDL
MODEL 3
REMARK VINA RESULT:      -6.9      8.355     13.504
REMARK  11 active torsions:
REMARK  status: ('A' for Active; 'I' for Inactive)
REMARK    1  A    between atoms: C_5  and  C_8 
REMARK       I    between atoms: C_8  and  N_10 
REMARK    2  A    between atoms: C_11  and  N_10 
REMARK    3  A    between atoms: N_10  and  C_25 
REMARK    4  A    between atoms: C_14  and  O_17 
REMARK    5  A    between atoms: C_14  and  C_18 
REMARK    6  A    between atoms: C_18  and  O_19 
REMARK    7  A    between atoms: C_20  and  O_19 
REMARK    8  A    between atoms: C_26  and  C_36 
REMARK    9  A    between atoms: C_28  and  C_30 
REMARK   10  A    between atoms: C_31  and  C_32 
REMARK   11  A    between atoms: C_36  and  O_38 
ROOT
HETATM    1  C   UNK N   1      35.122  12.383  14.878  0.00  0.00     0.229 C 
HETATM    2  O   UNK N   1      34.527  13.449  15.003  0.00  0.00    -0.273 OA
HETATM    3  N   UNK N   1      35.620  12.021  13.621  0.00  0.00    -0.311 N 
ENDROOT
BRANCH   3   4
HETATM    4  C   UNK N   1      35.419  12.987  12.575  0.00  0.00     0.093 C 
HETATM    5  C   UNK N   1      35.633  12.406  11.169  0.00  0.00     0.029 C 
HETATM    6  C   UNK N   1      36.774  13.108  10.451  0.00  0.00     0.042 C 
HETATM    7  C   UNK N   1      36.673  14.634  10.494  0.00  0.00     0.079 C 
HETATM    8  C   UNK N   1      36.126  15.230  11.794  0.00  0.00     0.042 C 
HETATM    9  C   UNK N   1      36.160  14.258  12.939  0.00  0.00     0.029 C 
BRANCH   7  10
HETATM   10  O   UNK N   1      37.941  15.170  10.271  0.00  0.00    -0.388 OA
HETATM   11  H   UNK N   1      38.226  16.041   9.955  0.00  0.00     0.210 HD
ENDBRANCH   7  10
BRANCH   7  12
HETATM   12  C   UNK N   1      35.744  15.040   9.379  0.00  0.00     0.206 C 
BRANCH  12  13
HETATM   13  O   UNK N   1      34.992  16.185   9.734  0.00  0.00    -0.381 OA
BRANCH  13  14
HETATM   14  C   UNK N   1      34.258  16.683   8.631  0.00  0.00     0.147 C 
HETATM   15  C   UNK N   1      34.663  18.066   8.201  0.00  0.00     0.199 C 
HETATM   16  O   UNK N   1      34.263  18.236   6.864  0.00  0.00    -0.389 OA
HETATM   17  C   UNK N   1      34.050  16.949   6.319  0.00  0.00     0.170 C 
HETATM   18  C   UNK N   1      34.320  15.891   7.359  0.00  0.00     0.060 C 
ENDBRANCH  13  14
ENDBRANCH  12  13
ENDBRANCH   7  12
ENDBRANCH   3   4
BRANCH   3  19
HETATM   19  C   UNK N   1      36.144  10.684  13.323  0.00  0.00     0.063 C 
HETATM   20  C   UNK N   1      35.457   9.484  12.881  0.00  0.00     0.106 C 
HETATM   21  S   UNK N   1      36.391   8.210  13.329  0.00  0.00    -0.072 SA
HETATM   22  C   UNK N   1      37.689   9.051  13.782  0.00  0.00     0.061 C 
HETATM   23  C   UNK N   1      37.434  10.367  13.705  0.00  0.00     0.059 C 
BRANCH  20  24
HETATM   24  C   UNK N   1      34.375   9.172  11.952  0.00  0.00     0.185 C 
HETATM   25  O   UNK N   1      34.580   8.382  11.042  0.00  0.00    -0.646 OA
BRANCH  24  26
HETATM   26  O   UNK N   1      33.340  10.023  11.852  0.00  0.00    -0.772 OA
HETATM   27  H   UNK N   1      32.445  10.170  11.617  0.00  0.00     0.167 HD
ENDBRANCH  24  26
ENDBRANCH  20  24
BRANCH  22  28
HETATM   28  C   UNK N   1      38.983   8.609  13.863  0.00  0.00    -0.059 C 
HETATM   29  C   UNK N   1      40.101   8.235  13.926  0.00  0.00    -0.092 C 
BRANCH  29  30
HETATM   30  C   UNK N   1      41.371   7.631  14.122  0.00  0.00     0.013 C 
HETATM   31  C   UNK N   1      41.281   6.170  14.565  0.00  0.00     0.028 C 
HETATM   32  C   UNK N   1      42.023   8.394  15.227  0.00  0.00     0.028 C 
HETATM   33  C   UNK N   1      42.028   7.741  12.769  0.00  0.00     0.028 C 
ENDBRANCH  29  30
ENDBRANCH  22  28
ENDBRANCH   3  19
BRANCH   1  34
HETATM   34  C   UNK N   1      35.311  11.547  16.144  0.00  0.00     0.082 C 
HETATM   35  C   UNK N   1      34.486  10.265  16.265  0.00  0.00     0.041 C 
HETATM   36  C   UNK N   1      35.118   9.418  17.340  0.00  0.00    -0.024 C 
HETATM   37  C   UNK N   1      35.659   9.984  18.433  0.00  0.00    -0.087 C 
HETATM   38  C   UNK N   1      36.289   9.120  19.468  0.00  0.00     0.043 C 
HETATM   39  C   UNK N   1      35.693  11.490  18.616  0.00  0.00     0.034 C 
HETATM   40  C   UNK N   1      35.099  12.298  17.450  0.00  0.00     0.018 C 
ENDBRANCH   1  34
TORSDOF 11
ENDMDL
MODEL 4
REMARK VINA RESULT:      -6.8      3.092      4.798
REMARK  11 active torsions:
REMARK  status: ('A' for Active; 'I' for Inactive)
REMARK    1  A    between atoms: C_5  and  C_8 
REMARK       I    between atoms: C_8  and  N_10 
REMARK    2  A    between atoms: C_11  and  N_10 
REMARK    3  A    between atoms: N_10  and  C_25 
REMARK    4  A    between atoms: C_14  and  O_17 
REMARK    5  A    between atoms: C_14  and  C_18 
REMARK    6  A    between atoms: C_18  and  O_19 
REMARK    7  A    between atoms: C_20  and  O_19 
REMARK    8  A    between atoms: C_26  and  C_36 
REMARK    9  A    between atoms: C_28  and  C_30 
REMARK   10  A    between atoms: C_31  and  C_32 
REMARK   11  A    between atoms: C_36  and  O_38 
ROOT
HETATM    1  C   UNK N   1      24.885  14.925   2.133  0.00  0.00     0.229 C 
HETATM    2  O   UNK N   1      25.872  14.929   1.404  0.00  0.00    -0.273 OA
HETATM    3  N   UNK N   1      24.908  15.670   3.318  0.00  0.00    -0.311 N 
ENDROOT
BRANCH   3   4
HETATM    4  C   UNK N   1      26.108  16.429   3.548  0.00  0.00     0.093 C 
HETATM    5  C   UNK N   1      27.056  15.766   4.558  0.00  0.00     0.029 C 
HETATM    6  C   UNK N   1      27.264  16.648   5.779  0.00  0.00     0.042 C 
HETATM    7  C   UNK N   1      27.624  18.094   5.431  0.00  0.00     0.079 C 
HETATM    8  C   UNK N   1      26.932  18.675   4.195  0.00  0.00     0.042 C 
HETATM    9  C   UNK N   1      25.729  17.879   3.774  0.00  0.00     0.029 C 
BRANCH   7  10
HETATM   10  O   UNK N   1      27.316  18.904   6.523  0.00  0.00    -0.388 OA
HETATM   11  H   UNK N   1      27.488  18.800   7.471  0.00  0.00     0.210 HD
ENDBRANCH   7  10
BRANCH   7  12
HETATM   12  C   UNK N   1      29.110  18.122   5.178  0.00  0.00     0.206 C 
BRANCH  12  13
HETATM   13  O   UNK N   1      29.801  17.319   6.116  0.00  0.00    -0.381 OA
BRANCH  13  14
HETATM   14  C   UNK N   1      31.087  16.963   5.642  0.00  0.00     0.147 C 
HETATM   15  C   UNK N   1      31.448  17.592   4.324  0.00  0.00     0.199 C 
HETATM   16  O   UNK N   1      32.850  17.592   4.217  0.00  0.00    -0.389 OA
HETATM   17  C   UNK N   1      33.374  17.423   5.520  0.00  0.00     0.170 C 
HETATM   18  C   UNK N   1      32.254  17.303   6.522  0.00  0.00     0.060 C 
ENDBRANCH  13  14
ENDBRANCH  12  13
ENDBRANCH   7  12
ENDBRANCH   3   4
BRANCH   3  19
HETATM   19  C   UNK N   1      23.877  15.556   4.354  0.00  0.00     0.063 C 
HETATM   20  C   UNK N   1      22.706  16.376   4.607  0.00  0.00     0.106 C 
HETATM   21  S   UNK N   1      22.324  16.181   6.193  0.00  0.00    -0.072 SA
HETATM   22  C   UNK N   1      23.333  14.963   6.503  0.00  0.00     0.061 C 
HETATM   23  C   UNK N   1      24.091  14.707   5.424  0.00  0.00     0.059 C 
BRANCH  20  24
HETATM   24  C   UNK N   1      21.693  17.044   3.797  0.00  0.00     0.185 C 
HETATM   25  O   UNK N   1      21.888  18.192   3.425  0.00  0.00    -0.646 OA
BRANCH  24  26
HETATM   26  O   UNK N   1      20.435  16.572   3.810  0.00  0.00    -0.772 OA
HETATM   27  H   UNK N   1      19.521  16.732   3.942  0.00  0.00     0.167 HD
ENDBRANCH  24  26
ENDBRANCH  20  24
BRANCH  22  28
HETATM   28  C   UNK N   1      23.238  14.036   7.506  0.00  0.00    -0.059 C 
HETATM   29  C   UNK N   1      23.147  13.241   8.374  0.00  0.00    -0.092 C 
BRANCH  29  30
HETATM   30  C   UNK N   1      23.236  12.236   9.373  0.00  0.00     0.013 C 
HETATM   31  C   UNK N   1      24.432  12.420  10.308  0.00  0.00     0.028 C 
HETATM   32  C   UNK N   1      23.433  10.948   8.644  0.00  0.00     0.028 C 
HETATM   33  C   UNK N   1      21.938  12.372  10.130  0.00  0.00     0.028 C 
ENDBRANCH  29  30
ENDBRANCH  22  28
ENDBRANCH   3  19
BRANCH   1  34
HETATM   34  C   UNK N   1      23.675  14.126   1.651  0.00  0.00     0.082 C 
HETATM   35  C   UNK N   1      23.924  13.049   0.594  0.00  0.00     0.041 C 
HETATM   36  C   UNK N   1      22.722  12.139   0.581  0.00  0.00    -0.024 C 
HETATM   37  C   UNK N   1      21.486  12.629   0.773  0.00  0.00    -0.087 C 
HETATM   38  C   UNK N   1      20.323  11.700   0.770  0.00  0.00     0.043 C 
HETATM   39  C   UNK N   1      21.246  14.102   1.049  0.00  0.00     0.034 C 
HETATM   40  C   UNK N   1      22.519  14.962   1.123  0.00  0.00     0.018 C 
ENDBRANCH   1  34
TORSDOF 11
ENDMDL
MODEL 5
REMARK VINA RESULT:      -6.7      5.051     11.367
REMARK  11 active torsions:
REMARK  status: ('A' for Active; 'I' for Inactive)
REMARK    1  A    between atoms: C_5  and  C_8 
REMARK       I    between atoms: C_8  and  N_10 
REMARK    2  A    between atoms: C_11  and  N_10 
REMARK    3  A    between atoms: N_10  and  C_25 
REMARK    4  A    between atoms: C_14  and  O_17 
REMARK    5  A    between atoms: C_14  and  C_18 
REMARK    6  A    between atoms: C_18  and  O_19 
REMARK    7  A    between atoms: C_20  and  O_19 
REMARK    8  A    between atoms: C_26  and  C_36 
REMARK    9  A    between atoms: C_28  and  C_30 
REMARK   10  A    between atoms: C_31  and  C_32 
REMARK   11  A    between atoms: C_36  and  O_38 
ROOT
HETATM    1  C   UNK N   1      34.786  13.864  11.422  0.00  0.00     0.229 C 
HETATM    2  O   UNK N   1      34.248  14.719  12.120  0.00  0.00    -0.273 OA
HETATM    3  N   UNK N   1      34.690  13.960  10.029  0.00  0.00    -0.311 N 
ENDROOT
BRANCH   3   4
HETATM    4  C   UNK N   1      33.987  15.113   9.535  0.00  0.00     0.093 C 
HETATM    5  C   UNK N   1      33.075  14.798   8.340  0.00  0.00     0.029 C 
HETATM    6  C   UNK N   1      33.503  15.569   7.102  0.00  0.00     0.042 C 
HETATM    7  C   UNK N   1      33.714  17.063   7.358  0.00  0.00     0.079 C 
HETATM    8  C   UNK N   1      34.320  17.429   8.715  0.00  0.00     0.042 C 
HETATM    9  C   UNK N   1      34.971  16.259   9.395  0.00  0.00     0.029 C 
BRANCH   7  10
HETATM   10  O   UNK N   1      34.544  17.572   6.360  0.00  0.00    -0.388 OA
HETATM   11  H   UNK N   1      34.435  18.317   5.749  0.00  0.00     0.210 HD
ENDBRANCH   7  10
BRANCH   7  12
HETATM   12  C   UNK N   1      32.356  17.713   7.273  0.00  0.00     0.206 C 
BRANCH  12  13
HETATM   13  O   UNK N   1      31.907  18.119   8.552  0.00  0.00    -0.381 OA
BRANCH  13  14
HETATM   14  C   UNK N   1      30.601  17.639   8.816  0.00  0.00     0.147 C 
HETATM   15  C   UNK N   1      29.768  18.566   9.658  0.00  0.00     0.199 C 
HETATM   16  O   UNK N   1      28.415  18.257   9.429  0.00  0.00    -0.389 OA
HETATM   17  C   UNK N   1      28.346  17.534   8.216  0.00  0.00     0.170 C 
HETATM   18  C   UNK N   1      29.725  17.363   7.630  0.00  0.00     0.060 C 
ENDBRANCH  13  14
ENDBRANCH  12  13
ENDBRANCH   7  12
ENDBRANCH   3   4
BRANCH   3  19
HETATM   19  C   UNK N   1      35.103  12.883   9.123  0.00  0.00     0.063 C 
HETATM   20  C   UNK N   1      34.488  11.596   8.855  0.00  0.00     0.106 C 
HETATM   21  S   UNK N   1      35.676  10.611   8.294  0.00  0.00    -0.072 SA
HETATM   22  C   UNK N   1      36.814  11.737   8.112  0.00  0.00     0.061 C 
HETATM   23  C   UNK N   1      36.369  12.918   8.569  0.00  0.00     0.059 C 
BRANCH  20  24
HETATM   24  C   UNK N   1      33.128  11.092   8.695  0.00  0.00     0.185 C 
HETATM   25  O   UNK N   1      32.725  10.807   7.576  0.00  0.00    -0.646 OA
BRANCH  24  26
HETATM   26  O   UNK N   1      32.230  11.324   9.667  0.00  0.00    -0.772 OA
HETATM   27  H   UNK N   1      31.600  11.900  10.055  0.00  0.00     0.167 HD
ENDBRANCH  24  26
ENDBRANCH  20  24
BRANCH  22  28
HETATM   28  C   UNK N   1      37.910  11.690   7.293  0.00  0.00    -0.059 C 
HETATM   29  C   UNK N   1      38.849  11.650   6.579  0.00  0.00    -0.092 C 
BRANCH  29  30
HETATM   30  C   UNK N   1      40.092  11.578   5.895  0.00  0.00     0.013 C 
HETATM   31  C   UNK N   1      40.463  10.157   5.466  0.00  0.00     0.028 C 
HETATM   32  C   UNK N   1      41.125  12.035   6.870  0.00  0.00     0.028 C 
HETATM   33  C   UNK N   1      39.885  12.464   4.692  0.00  0.00     0.028 C 
ENDBRANCH  29  30
ENDBRANCH  22  28
ENDBRANCH   3  19
BRANCH   1  34
HETATM   34  C   UNK N   1      35.568  12.773  12.150  0.00  0.00     0.082 C 
HETATM   35  C   UNK N   1      34.841  11.454  12.422  0.00  0.00     0.041 C 
HETATM   36  C   UNK N   1      35.887  10.418  12.750  0.00  0.00    -0.024 C 
HETATM   37  C   UNK N   1      36.983  10.747  13.454  0.00  0.00    -0.087 C 
HETATM   38  C   UNK N   1      38.004   9.703  13.747  0.00  0.00     0.043 C 
HETATM   39  C   UNK N   1      37.239  12.171  13.913  0.00  0.00     0.034 C 
HETATM   40  C   UNK N   1      36.172  13.191  13.483  0.00  0.00     0.018 C 
ENDBRANCH   1  34
TORSDOF 11
ENDMDL
MODEL 6
REMARK VINA RESULT:      -6.7      3.761      6.099
REMARK  11 active torsions:
REMARK  status: ('A' for Active; 'I' for Inactive)
REMARK    1  A    between atoms: C_5  and  C_8 
REMARK       I    between atoms: C_8  and  N_10 
REMARK    2  A    between atoms: C_11  and  N_10 
REMARK    3  A    between atoms: N_10  and  C_25 
REMARK    4  A    between atoms: C_14  and  O_17 
REMARK    5  A    between atoms: C_14  and  C_18 
REMARK    6  A    between atoms: C_18  and  O_19 
REMARK    7  A    between atoms: C_20  and  O_19 
REMARK    8  A    between atoms: C_26  and  C_36 
REMARK    9  A    between atoms: C_28  and  C_30 
REMARK   10  A    between atoms: C_31  and  C_32 
REMARK   11  A    between atoms: C_36  and  O_38 
ROOT
HETATM    1  C   UNK N   1      30.015  17.282   7.901  0.00  0.00     0.229 C 
HETATM    2  O   UNK N   1      29.942  17.758   9.029  0.00  0.00    -0.273 OA
HETATM    3  N   UNK N   1      31.045  16.381   7.605  0.00  0.00    -0.311 N 
ENDROOT
BRANCH   3   4
HETATM    4  C   UNK N   1      31.917  16.056   8.701  0.00  0.00     0.093 C 
HETATM    5  C   UNK N   1      32.937  17.162   9.009  0.00  0.00     0.029 C 
HETATM    6  C   UNK N   1      34.362  16.665   8.822  0.00  0.00     0.042 C 
HETATM    7  C   UNK N   1      34.639  15.337   9.530  0.00  0.00     0.079 C 
HETATM    8  C   UNK N   1      33.487  14.328   9.532  0.00  0.00     0.042 C 
HETATM    9  C   UNK N   1      32.435  14.645   8.508  0.00  0.00     0.029 C 
BRANCH   7  10
HETATM   10  O   UNK N   1      35.743  14.734   8.927  0.00  0.00    -0.388 OA
HETATM   11  H   UNK N   1      35.828  13.924   8.402  0.00  0.00     0.210 HD
ENDBRANCH   7  10
BRANCH   7  12
HETATM   12  C   UNK N   1      34.960  15.668  10.965  0.00  0.00     0.206 C 
BRANCH  12  13
HETATM   13  O   UNK N   1      36.095  14.950  11.411  0.00  0.00    -0.381 OA
BRANCH  13  14
HETATM   14  C   UNK N   1      35.776  14.112  12.508  0.00  0.00     0.147 C 
HETATM   15  C   UNK N   1      36.157  12.671  12.307  0.00  0.00     0.199 C 
HETATM   16  O   UNK N   1      36.271  12.075  13.575  0.00  0.00    -0.389 OA
HETATM   17  C   UNK N   1      36.421  13.116  14.520  0.00  0.00     0.170 C 
HETATM   18  C   UNK N   1      36.399  14.456  13.829  0.00  0.00     0.060 C 
ENDBRANCH  13  14
ENDBRANCH  12  13
ENDBRANCH   7  12
ENDBRANCH   3   4
BRANCH   3  19
HETATM   19  C   UNK N   1      31.348  15.932   6.242  0.00  0.00     0.063 C 
HETATM   20  C   UNK N   1      32.357  16.394   5.305  0.00  0.00     0.106 C 
HETATM   21  S   UNK N   1      31.819  16.007   3.802  0.00  0.00    -0.072 SA
HETATM   22  C   UNK N   1      30.577  15.085   4.254  0.00  0.00     0.061 C 
HETATM   23  C   UNK N   1      30.451  15.107   5.591  0.00  0.00     0.059 C 
BRANCH  20  24
HETATM   24  C   UNK N   1      33.751  16.816   5.383  0.00  0.00     0.185 C 
HETATM   25  O   UNK N   1      34.628  15.967   5.453  0.00  0.00    -0.646 OA
BRANCH  24  26
HETATM   26  O   UNK N   1      34.029  18.069   5.779  0.00  0.00    -0.772 OA
HETATM   27  H   UNK N   1      34.116  18.688   6.478  0.00  0.00     0.167 HD
ENDBRANCH  24  26
ENDBRANCH  20  24
BRANCH  22  28
HETATM   28  C   UNK N   1      29.956  14.106   3.525  0.00  0.00    -0.059 C 
HETATM   29  C   UNK N   1      29.412  13.265   2.902  0.00  0.00    -0.092 C 
BRANCH  29  30
HETATM   30  C   UNK N   1      28.947  12.209   2.073  0.00  0.00     0.013 C 
HETATM   31  C   UNK N   1      29.530  12.250   0.660  0.00  0.00     0.028 C 
HETATM   32  C   UNK N   1      27.471  12.401   1.953  0.00  0.00     0.028 C 
HETATM   33  C   UNK N   1      29.392  10.965   2.802  0.00  0.00     0.028 C 
ENDBRANCH  29  30
ENDBRANCH  22  28
ENDBRANCH   3  19
BRANCH   1  34
HETATM   34  C   UNK N   1      28.925  17.687   6.909  0.00  0.00     0.082 C 
HETATM   35  C   UNK N   1      28.336  19.092   7.053  0.00  0.00     0.041 C 
HETATM   36  C   UNK N   1      27.620  19.418   5.768  0.00  0.00    -0.024 C 
HETATM   37  C   UNK N   1      26.952  18.467   5.092  0.00  0.00    -0.087 C 
HETATM   38  C   UNK N   1      26.269  18.819   3.817  0.00  0.00     0.043 C 
HETATM   39  C   UNK N   1      26.921  17.025   5.566  0.00  0.00     0.034 C 
HETATM   40  C   UNK N   1      27.732  16.746   6.842  0.00  0.00     0.018 C 
ENDBRANCH   1  34
TORSDOF 11
ENDMDL
MODEL 7
REMARK VINA RESULT:      -6.5     13.114     16.914
REMARK  11 active torsions:
REMARK  status: ('A' for Active; 'I' for Inactive)
REMARK    1  A    between atoms: C_5  and  C_8 
REMARK       I    between atoms: C_8  and  N_10 
REMARK    2  A    between atoms: C_11  and  N_10 
REMARK    3  A    between atoms: N_10  and  C_25 
REMARK    4  A    between atoms: C_14  and  O_17 
REMARK    5  A    between atoms: C_14  and  C_18 
REMARK    6  A    between atoms: C_18  and  O_19 
REMARK    7  A    between atoms: C_20  and  O_19 
REMARK    8  A    between atoms: C_26  and  C_36 
REMARK    9  A    between atoms: C_28  and  C_30 
REMARK   10  A    between atoms: C_31  and  C_32 
REMARK   11  A    between atoms: C_36  and  O_38 
ROOT
HETATM    1  C   UNK N   1      31.458  25.983  -5.488  0.00  0.00     0.229 C 
HETATM    2  O   UNK N   1      31.177  27.177  -5.460  0.00  0.00    -0.273 OA
HETATM    3  N   UNK N   1      30.426  25.039  -5.544  0.00  0.00    -0.311 N 
ENDROOT
BRANCH   3   4
HETATM    4  C   UNK N   1      29.095  25.581  -5.610  0.00  0.00     0.093 C 
HETATM    5  C   UNK N   1      28.195  25.113  -4.458  0.00  0.00     0.029 C 
HETATM    6  C   UNK N   1      27.000  24.329  -4.976  0.00  0.00     0.042 C 
HETATM    7  C   UNK N   1      26.255  25.035  -6.111  0.00  0.00     0.079 C 
HETATM    8  C   UNK N   1      27.128  25.812  -7.100  0.00  0.00     0.042 C 
HETATM    9  C   UNK N   1      28.577  25.424  -7.026  0.00  0.00     0.029 C 
BRANCH   7  10
HETATM   10  O   UNK N   1      25.530  24.083  -6.827  0.00  0.00    -0.388 OA
HETATM   11  H   UNK N   1      25.411  23.130  -6.694  0.00  0.00     0.210 HD
ENDBRANCH   7  10
BRANCH   7  12
HETATM   12  C   UNK N   1      25.311  26.017  -5.466  0.00  0.00     0.206 C 
BRANCH  12  13
HETATM   13  O   UNK N   1      25.560  27.334  -5.919  0.00  0.00    -0.381 OA
BRANCH  13  14
HETATM   14  C   UNK N   1      25.861  28.202  -4.840  0.00  0.00     0.147 C 
HETATM   15  C   UNK N   1      25.707  27.567  -3.485  0.00  0.00     0.199 C 
HETATM   16  O   UNK N   1      26.486  28.304  -2.575  0.00  0.00    -0.389 OA
HETATM   17  C   UNK N   1      27.425  29.047  -3.326  0.00  0.00     0.170 C 
HETATM   18  C   UNK N   1      27.243  28.782  -4.799  0.00  0.00     0.060 C 
ENDBRANCH  13  14
ENDBRANCH  12  13
ENDBRANCH   7  12
ENDBRANCH   3   4
BRANCH   3  19
HETATM   19  C   UNK N   1      30.646  23.602  -5.359  0.00  0.00     0.063 C 
HETATM   20  C   UNK N   1      31.164  22.871  -4.216  0.00  0.00     0.106 C 
HETATM   21  S   UNK N   1      31.771  21.458  -4.792  0.00  0.00    -0.072 SA
HETATM   22  C   UNK N   1      31.197  21.580  -6.293  0.00  0.00     0.061 C 
HETATM   23  C   UNK N   1      30.590  22.766  -6.458  0.00  0.00     0.059 C 
BRANCH  20  24
HETATM   24  C   UNK N   1      31.023  22.947  -2.766  0.00  0.00     0.185 C 
HETATM   25  O   UNK N   1      30.621  23.985  -2.259  0.00  0.00    -0.646 OA
BRANCH  24  26
HETATM   26  O   UNK N   1      31.694  22.070  -2.001  0.00  0.00    -0.772 OA
HETATM   27  H   UNK N   1      31.892  21.741  -1.146  0.00  0.00     0.167 HD
ENDBRANCH  24  26
ENDBRANCH  20  24
BRANCH  22  28
HETATM   28  C   UNK N   1      30.968  20.565  -7.184  0.00  0.00    -0.059 C 
HETATM   29  C   UNK N   1      30.779  19.685  -7.948  0.00  0.00    -0.092 C 
BRANCH  29  30
HETATM   30  C   UNK N   1      30.400  18.749  -8.946  0.00  0.00     0.013 C 
HETATM   31  C   UNK N   1      31.593  18.051  -9.602  0.00  0.00     0.028 C 
HETATM   32  C   UNK N   1      29.705  19.537 -10.006  0.00  0.00     0.028 C 
HETATM   33  C   UNK N   1      29.546  17.758  -8.195  0.00  0.00     0.028 C 
ENDBRANCH  29  30
ENDBRANCH  22  28
ENDBRANCH   3  19
BRANCH   1  34
HETATM   34  C   UNK N   1      32.943  25.625  -5.507  0.00  0.00     0.082 C 
HETATM   35  C   UNK N   1      33.939  26.753  -5.228  0.00  0.00     0.041 C 
HETATM   36  C   UNK N   1      35.263  26.117  -4.888  0.00  0.00    -0.024 C 
HETATM   37  C   UNK N   1      35.665  24.993  -5.506  0.00  0.00    -0.087 C 
HETATM   38  C   UNK N   1      36.970  24.382  -5.135  0.00  0.00     0.043 C 
HETATM   39  C   UNK N   1      34.796  24.295  -6.537  0.00  0.00     0.034 C 
HETATM   40  C   UNK N   1      33.429  24.954  -6.783  0.00  0.00     0.018 C 
ENDBRANCH   1  34
TORSDOF 11
ENDMDL
MODEL 8
REMARK VINA RESULT:      -6.4      6.521     11.556
REMARK  11 active torsions:
REMARK  status: ('A' for Active; 'I' for Inactive)
REMARK    1  A    between atoms: C_5  and  C_8 
REMARK       I    between atoms: C_8  and  N_10 
REMARK    2  A    between atoms: C_11  and  N_10 
REMARK    3  A    between atoms: N_10  and  C_25 
REMARK    4  A    between atoms: C_14  and  O_17 
REMARK    5  A    between atoms: C_14  and  C_18 
REMARK    6  A    between atoms: C_18  and  O_19 
REMARK    7  A    between atoms: C_20  and  O_19 
REMARK    8  A    between atoms: C_26  and  C_36 
REMARK    9  A    between atoms: C_28  and  C_30 
REMARK   10  A    between atoms: C_31  and  C_32 
REMARK   11  A    between atoms: C_36  and  O_38 
ROOT
HETATM    1  C   UNK N   1      33.557  11.323   9.640  0.00  0.00     0.229 C 
HETATM    2  O   UNK N   1      32.490  11.221   9.041  0.00  0.00    -0.273 OA
HETATM    3  N   UNK N   1      34.287  12.512   9.536  0.00  0.00    -0.311 N 
ENDROOT
BRANCH   3   4
HETATM    4  C   UNK N   1      33.674  13.548   8.750  0.00  0.00     0.093 C 
HETATM    5  C   UNK N   1      34.585  14.076   7.632  0.00  0.00     0.029 C 
HETATM    6  C   UNK N   1      34.887  15.554   7.819  0.00  0.00     0.042 C 
HETATM    7  C   UNK N   1      33.638  16.403   8.069  0.00  0.00     0.079 C 
HETATM    8  C   UNK N   1      32.544  15.748   8.916  0.00  0.00     0.042 C 
HETATM    9  C   UNK N   1      33.040  14.557   9.686  0.00  0.00     0.029 C 
BRANCH   7  10
HETATM   10  O   UNK N   1      34.024  17.587   8.697  0.00  0.00    -0.388 OA
HETATM   11  H   UNK N   1      34.897  17.943   8.920  0.00  0.00     0.210 HD
ENDBRANCH   7  10
BRANCH   7  12
HETATM   12  C   UNK N   1      33.046  16.712   6.717  0.00  0.00     0.206 C 
BRANCH  12  13
HETATM   13  O   UNK N   1      34.055  17.051   5.785  0.00  0.00    -0.381 OA
BRANCH  13  14
HETATM   14  C   UNK N   1      33.549  17.075   4.462  0.00  0.00     0.147 C 
HETATM   15  C   UNK N   1      33.573  15.737   3.775  0.00  0.00     0.199 C 
HETATM   16  O   UNK N   1      32.627  15.771   2.736  0.00  0.00    -0.389 OA
HETATM   17  C   UNK N   1      31.739  16.837   3.007  0.00  0.00     0.170 C 
HETATM   18  C   UNK N   1      32.133  17.533   4.285  0.00  0.00     0.060 C 
ENDBRANCH  13  14
ENDBRANCH  12  13
ENDBRANCH   7  12
ENDBRANCH   3   4
BRANCH   3  19
HETATM   19  C   UNK N   1      35.663  12.651  10.026  0.00  0.00     0.063 C 
HETATM   20  C   UNK N   1      36.218  13.551  11.021  0.00  0.00     0.106 C 
HETATM   21  S   UNK N   1      37.820  13.695  10.687  0.00  0.00    -0.072 SA
HETATM   22  C   UNK N   1      37.910  12.527   9.582  0.00  0.00     0.061 C 
HETATM   23  C   UNK N   1      36.687  12.028   9.338  0.00  0.00     0.059 C 
BRANCH  20  24
HETATM   24  C   UNK N   1      35.797  14.080  12.314  0.00  0.00     0.185 C 
HETATM   25  O   UNK N   1      34.719  13.735  12.777  0.00  0.00    -0.646 OA
BRANCH  24  26
HETATM   26  O   UNK N   1      36.369  15.206  12.772  0.00  0.00    -0.772 OA
HETATM   27  H   UNK N   1      37.149  15.672  13.002  0.00  0.00     0.167 HD
ENDBRANCH  24  26
ENDBRANCH  20  24
BRANCH  22  28
HETATM   28  C   UNK N   1      39.022  11.826   9.197  0.00  0.00    -0.059 C 
HETATM   29  C   UNK N   1      39.984  11.223   8.876  0.00  0.00    -0.092 C 
BRANCH  29  30
HETATM   30  C   UNK N   1      41.079  10.531   8.292  0.00  0.00     0.013 C 
HETATM   31  C   UNK N   1      40.835  10.137   6.834  0.00  0.00     0.028 C 
HETATM   32  C   UNK N   1      41.233   9.270   9.075  0.00  0.00     0.028 C 
HETATM   33  C   UNK N   1      42.217  11.515   8.398  0.00  0.00     0.028 C 
ENDBRANCH  29  30
ENDBRANCH  22  28
ENDBRANCH   3  19
BRANCH   1  34
HETATM   34  C   UNK N   1      33.980  10.134  10.501  0.00  0.00     0.082 C 
HETATM   35  C   UNK N   1      33.276   8.799  10.246  0.00  0.00     0.041 C 
HETATM   36  C   UNK N   1      34.112   7.717  10.881  0.00  0.00    -0.024 C 
HETATM   37  C   UNK N   1      34.755   7.935  12.041  0.00  0.00    -0.087 C 
HETATM   38  C   UNK N   1      35.584   6.849  12.632  0.00  0.00     0.043 C 
HETATM   39  C   UNK N   1      34.703   9.281  12.740  0.00  0.00     0.034 C 
HETATM   40  C   UNK N   1      33.896  10.362  12.003  0.00  0.00     0.018 C 
ENDBRANCH   1  34
TORSDOF 11
ENDMDL
MODEL 9
REMARK VINA RESULT:      -6.4      3.335      8.489
REMARK  11 active torsions:
REMARK  status: ('A' for Active; 'I' for Inactive)
REMARK    1  A    between atoms: C_5  and  C_8 
REMARK       I    between atoms: C_8  and  N_10 
REMARK    2  A    between atoms: C_11  and  N_10 
REMARK    3  A    between atoms: N_10  and  C_25 
REMARK    4  A    between atoms: C_14  and  O_17 
REMARK    5  A    between atoms: C_14  and  C_18 
REMARK    6  A    between atoms: C_18  and  O_19 
REMARK    7  A    between atoms: C_20  and  O_19 
REMARK    8  A    between atoms: C_26  and  C_36 
REMARK    9  A    between atoms: C_28  and  C_30 
REMARK   10  A    between atoms: C_31  and  C_32 
REMARK   11  A    between atoms: C_36  and  O_38 
ROOT
HETATM    1  C   UNK N   1      30.251  16.943   7.094  0.00  0.00     0.229 C 
HETATM    2  O   UNK N   1      29.661  17.687   7.871  0.00  0.00    -0.273 OA
HETATM    3  N   UNK N   1      29.630  16.577   5.894  0.00  0.00    -0.311 N 
ENDROOT
BRANCH   3   4
HETATM    4  C   UNK N   1      28.338  17.166   5.662  0.00  0.00     0.093 C 
HETATM    5  C   UNK N   1      27.175  16.231   6.023  0.00  0.00     0.029 C 
HETATM    6  C   UNK N   1      26.322  15.917   4.804  0.00  0.00     0.042 C 
HETATM    7  C   UNK N   1      25.909  17.161   4.014  0.00  0.00     0.079 C 
HETATM    8  C   UNK N   1      26.956  18.276   3.930  0.00  0.00     0.042 C 
HETATM    9  C   UNK N   1      28.336  17.806   4.287  0.00  0.00     0.029 C 
BRANCH   7  10
HETATM   10  O   UNK N   1      25.582  16.774   2.715  0.00  0.00    -0.388 OA
HETATM   11  H   UNK N   1      25.979  16.993   1.858  0.00  0.00     0.210 HD
ENDBRANCH   7  10
BRANCH   7  12
HETATM   12  C   UNK N   1      24.692  17.727   4.700  0.00  0.00     0.206 C 
BRANCH  12  13
HETATM   13  O   UNK N   1      23.601  17.820   3.804  0.00  0.00    -0.381 OA
BRANCH  13  14
HETATM   14  C   UNK N   1      23.000  19.102   3.852  0.00  0.00     0.147 C 
HETATM   15  C   UNK N   1      23.800  20.176   3.168  0.00  0.00     0.199 C 
HETATM   16  O   UNK N   1      22.920  21.223   2.840  0.00  0.00    -0.389 OA
HETATM   17  C   UNK N   1      21.608  20.699   2.870  0.00  0.00     0.170 C 
HETATM   18  C   UNK N   1      21.638  19.238   3.241  0.00  0.00     0.060 C 
ENDBRANCH  13  14
ENDBRANCH  12  13
ENDBRANCH   7  12
ENDBRANCH   3   4
BRANCH   3  19
HETATM   19  C   UNK N   1      30.150  15.529   5.011  0.00  0.00     0.063 C 
HETATM   20  C   UNK N   1      30.851  15.632   3.744  0.00  0.00     0.106 C 
HETATM   21  S   UNK N   1      30.606  14.214   2.951  0.00  0.00    -0.072 SA
HETATM   22  C   UNK N   1      29.931  13.406   4.170  0.00  0.00     0.061 C 
HETATM   23  C   UNK N   1      29.767  14.218   5.226  0.00  0.00     0.059 C 
BRANCH  20  24
HETATM   24  C   UNK N   1      31.880  16.498   3.177  0.00  0.00     0.185 C 
HETATM   25  O   UNK N   1      32.859  15.993   2.646  0.00  0.00    -0.646 OA
BRANCH  24  26
HETATM   26  O   UNK N   1      31.951  17.775   3.587  0.00  0.00    -0.772 OA
HETATM   27  H   UNK N   1      31.550  18.499   4.028  0.00  0.00     0.167 HD
ENDBRANCH  24  26
ENDBRANCH  20  24
BRANCH  22  28
HETATM   28  C   UNK N   1      29.867  12.048   4.335  0.00  0.00    -0.059 C 
HETATM   29  C   UNK N   1      29.803  10.879   4.485  0.00  0.00    -0.092 C 
BRANCH  29  30
HETATM   30  C   UNK N   1      29.908   9.464   4.560  0.00  0.00     0.013 C 
HETATM   31  C   UNK N   1      28.551   8.760   4.602  0.00  0.00     0.028 C 
HETATM   32  C   UNK N   1      30.603   9.172   5.848  0.00  0.00     0.028 C 
HETATM   33  C   UNK N   1      30.663   9.099   3.306  0.00  0.00     0.028 C 
ENDBRANCH  29  30
ENDBRANCH  22  28
ENDBRANCH   3  19
BRANCH   1  34
HETATM   34  C   UNK N   1      31.660  16.507   7.492  0.00  0.00     0.082 C 
HETATM   35  C   UNK N   1      31.902  16.183   8.967  0.00  0.00     0.041 C 
HETATM   36  C   UNK N   1      33.188  15.400   9.056  0.00  0.00    -0.024 C 
HETATM   37  C   UNK N   1      34.221  15.679   8.243  0.00  0.00    -0.087 C 
HETATM   38  C   UNK N   1      35.470  14.876   8.346  0.00  0.00     0.043 C 
HETATM   39  C   UNK N   1      34.131  16.761   7.182  0.00  0.00     0.034 C 
HETATM   40  C   UNK N   1      32.769  17.470   7.095  0.00  0.00     0.018 C 
ENDBRANCH   1  34
TORSDOF 11
ENDMDL
