MODEL 1
REMARK VINA RESULT:      -6.4      0.000      0.000
REMARK  1 active torsions:
REMARK  status: ('A' for Active; 'I' for Inactive)
REMARK    1  A    between atoms: C_3  and  C_12 
ROOT
HETATM    1  O   UNK N   1      29.890  25.871  -4.929  0.00  0.00    -0.286 OA
HETATM    2  C   UNK N   1      28.829  25.674  -4.366  0.00  0.00     0.197 A 
HETATM    3  C   UNK N   1      28.519  24.410  -3.809  0.00  0.00     0.048 A 
HETATM    4  C   UNK N   1      27.275  24.260  -3.174  0.00  0.00     0.159 A 
HETATM    5  O   UNK N   1      26.409  25.270  -3.098  0.00  0.00    -0.321 OA
HETATM    6  C   UNK N   1      26.670  26.467  -3.618  0.00  0.00     0.089 A 
HETATM    7  C   UNK N   1      25.723  27.491  -3.520  0.00  0.00     0.038 A 
HETATM    8  C   UNK N   1      25.993  28.750  -4.071  0.00  0.00     0.003 A 
HETATM    9  C   UNK N   1      27.208  28.990  -4.717  0.00  0.00     0.001 A 
HETATM   10  C   UNK N   1      28.158  27.973  -4.817  0.00  0.00     0.018 A 
HETATM   11  C   UNK N   1      27.894  26.708  -4.270  0.00  0.00     0.049 A 
ENDROOT
BRANCH   3  12
HETATM   12  C   UNK N   1      29.457  23.249  -3.890  0.00  0.00    -0.020 A 
HETATM   13  C   UNK N   1      29.480  22.415  -5.022  0.00  0.00     0.012 A 
HETATM   14  C   UNK N   1      30.344  21.323  -5.091  0.00  0.00     0.001 A 
HETATM   15  C   UNK N   1      31.200  21.047  -4.027  0.00  0.00     0.000 A 
HETATM   16  C   UNK N   1      31.193  21.864  -2.894  0.00  0.00     0.001 A 
HETATM   17  C   UNK N   1      30.325  22.959  -2.824  0.00  0.00     0.012 A 
ENDBRANCH   3  12
TORSDOF 1
ENDMDL
MODEL 2
REMARK VINA RESULT:      -6.3      2.834      3.561
REMARK  1 active torsions:
REMARK  status: ('A' for Active; 'I' for Inactive)
REMARK    1  A    between atoms: C_3  and  C_12 
ROOT
HETATM    1  O   UNK N   1      26.876  25.785  -7.382  0.00  0.00    -0.286 OA
HETATM    2  C   UNK N   1      26.671  25.572  -6.200  0.00  0.00     0.197 A 
HETATM    3  C   UNK N   1      26.523  24.254  -5.709  0.00  0.00     0.048 A 
HETATM    4  C   UNK N   1      26.289  24.090  -4.333  0.00  0.00     0.159 A 
HETATM    5  O   UNK N   1      26.207  25.137  -3.513  0.00  0.00    -0.321 OA
HETATM    6  C   UNK N   1      26.336  26.388  -3.948  0.00  0.00     0.089 A 
HETATM    7  C   UNK N   1      26.230  27.454  -3.049  0.00  0.00     0.038 A 
HETATM    8  C   UNK N   1      26.360  28.771  -3.505  0.00  0.00     0.003 A 
HETATM    9  C   UNK N   1      26.598  29.027  -4.857  0.00  0.00     0.001 A 
HETATM   10  C   UNK N   1      26.706  27.969  -5.760  0.00  0.00     0.018 A 
HETATM   11  C   UNK N   1      26.574  26.646  -5.311  0.00  0.00     0.049 A 
ENDROOT
BRANCH   3  12
HETATM   12  C   UNK N   1      26.591  23.055  -6.599  0.00  0.00    -0.020 A 
HETATM   13  C   UNK N   1      27.827  22.510  -6.985  0.00  0.00     0.012 A 
HETATM   14  C   UNK N   1      27.891  21.401  -7.827  0.00  0.00     0.001 A 
HETATM   15  C   UNK N   1      26.716  20.818  -8.298  0.00  0.00     0.000 A 
HETATM   16  C   UNK N   1      25.477  21.344  -7.924  0.00  0.00     0.001 A 
HETATM   17  C   UNK N   1      25.413  22.458  -7.080  0.00  0.00     0.012 A 
ENDBRANCH   3  12
TORSDOF 1
ENDMDL
MODEL 3
REMARK VINA RESULT:      -6.3      9.779     11.367
REMARK  1 active torsions:
REMARK  status: ('A' for Active; 'I' for Inactive)
REMARK    1  A    between atoms: C_3  and  C_12 
ROOT
HETATM    1  O   UNK N   1      23.681  17.729   4.824  0.00  0.00    -0.286 OA
HETATM    2  C   UNK N   1      23.350  18.650   4.100  0.00  0.00     0.197 A 
HETATM    3  C   UNK N   1      24.266  19.668   3.745  0.00  0.00     0.048 A 
HETATM    4  C   UNK N   1      23.809  20.697   2.904  0.00  0.00     0.159 A 
HETATM    5  O   UNK N   1      22.555  20.721   2.455  0.00  0.00    -0.321 OA
HETATM    6  C   UNK N   1      21.670  19.782   2.777  0.00  0.00     0.089 A 
HETATM    7  C   UNK N   1      20.362  19.858   2.288  0.00  0.00     0.038 A 
HETATM    8  C   UNK N   1      19.427  18.873   2.630  0.00  0.00     0.003 A 
HETATM    9  C   UNK N   1      19.796  17.810   3.458  0.00  0.00     0.001 A 
HETATM   10  C   UNK N   1      21.099  17.727   3.949  0.00  0.00     0.018 A 
HETATM   11  C   UNK N   1      22.042  18.711   3.613  0.00  0.00     0.049 A 
ENDROOT
BRANCH   3  12
HETATM   12  C   UNK N   1      25.676  19.686   4.242  0.00  0.00    -0.020 A 
HETATM   13  C   UNK N   1      26.617  18.748   3.784  0.00  0.00     0.012 A 
HETATM   14  C   UNK N   1      27.927  18.755   4.259  0.00  0.00     0.001 A 
HETATM   15  C   UNK N   1      28.318  19.703   5.203  0.00  0.00     0.000 A 
HETATM   16  C   UNK N   1      27.398  20.645   5.670  0.00  0.00     0.001 A 
HETATM   17  C   UNK N   1      26.082  20.636   5.194  0.00  0.00     0.012 A 
ENDBRANCH   3  12
TORSDOF 1
ENDMDL
MODEL 4
REMARK VINA RESULT:      -6.2     13.475     16.714
REMARK  1 active torsions:
REMARK  status: ('A' for Active; 'I' for Inactive)
REMARK    1  A    between atoms: C_3  and  C_12 
ROOT
HETATM    1  O   UNK N   1      32.824  14.705   8.107  0.00  0.00    -0.286 OA
HETATM    2  C   UNK N   1      33.507  15.623   8.525  0.00  0.00     0.197 A 
HETATM    3  C   UNK N   1      33.556  16.865   7.849  0.00  0.00     0.048 A 
HETATM    4  C   UNK N   1      34.366  17.876   8.394  0.00  0.00     0.159 A 
HETATM    5  O   UNK N   1      35.069  17.677   9.508  0.00  0.00    -0.321 OA
HETATM    6  C   UNK N   1      35.047  16.518  10.161  0.00  0.00     0.089 A 
HETATM    7  C   UNK N   1      35.811  16.355  11.321  0.00  0.00     0.038 A 
HETATM    8  C   UNK N   1      35.794  15.135  12.007  0.00  0.00     0.003 A 
HETATM    9  C   UNK N   1      35.013  14.076  11.539  0.00  0.00     0.001 A 
HETATM   10  C   UNK N   1      34.247  14.231  10.383  0.00  0.00     0.018 A 
HETATM   11  C   UNK N   1      34.260  15.450   9.689  0.00  0.00     0.049 A 
ENDROOT
BRANCH   3  12
HETATM   12  C   UNK N   1      32.796  17.121   6.588  0.00  0.00    -0.020 A 
HETATM   13  C   UNK N   1      31.391  17.109   6.574  0.00  0.00     0.012 A 
HETATM   14  C   UNK N   1      30.683  17.333   5.394  0.00  0.00     0.001 A 
HETATM   15  C   UNK N   1      31.371  17.573   4.206  0.00  0.00     0.000 A 
HETATM   16  C   UNK N   1      32.768  17.590   4.199  0.00  0.00     0.001 A 
HETATM   17  C   UNK N   1      33.478  17.364   5.384  0.00  0.00     0.012 A 
ENDBRANCH   3  12
TORSDOF 1
ENDMDL
MODEL 5
REMARK VINA RESULT:      -6.2     21.157     23.957
REMARK  1 active torsions:
REMARK  status: ('A' for Active; 'I' for Inactive)
REMARK    1  A    between atoms: C_3  and  C_12 
ROOT
HETATM    1  O   UNK N   1      36.612  14.204  15.275  0.00  0.00    -0.286 OA
HETATM    2  C   UNK N   1      35.898  13.397  14.707  0.00  0.00     0.197 A 
HETATM    3  C   UNK N   1      35.191  12.408  15.431  0.00  0.00     0.048 A 
HETATM    4  C   UNK N   1      34.386  11.514  14.705  0.00  0.00     0.159 A 
HETATM    5  O   UNK N   1      34.289  11.588  13.378  0.00  0.00    -0.321 OA
HETATM    6  C   UNK N   1      34.947  12.503  12.671  0.00  0.00     0.089 A 
HETATM    7  C   UNK N   1      34.820  12.533  11.279  0.00  0.00     0.038 A 
HETATM    8  C   UNK N   1      35.514  13.491  10.531  0.00  0.00     0.003 A 
HETATM    9  C   UNK N   1      36.335  14.423  11.171  0.00  0.00     0.001 A 
HETATM   10  C   UNK N   1      36.465  14.401  12.560  0.00  0.00     0.018 A 
HETATM   11  C   UNK N   1      35.774  13.442  13.316  0.00  0.00     0.049 A 
ENDROOT
BRANCH   3  12
HETATM   12  C   UNK N   1      35.288  12.281  16.917  0.00  0.00    -0.020 A 
HETATM   13  C   UNK N   1      35.639  11.060  17.518  0.00  0.00     0.012 A 
HETATM   14  C   UNK N   1      35.716  10.938  18.905  0.00  0.00     0.001 A 
HETATM   15  C   UNK N   1      35.441  12.039  19.715  0.00  0.00     0.000 A 
HETATM   16  C   UNK N   1      35.092  13.261  19.137  0.00  0.00     0.001 A 
HETATM   17  C   UNK N   1      35.014  13.383  17.745  0.00  0.00     0.012 A 
ENDBRANCH   3  12
TORSDOF 1
ENDMDL
MODEL 6
REMARK VINA RESULT:      -6.1      1.077      1.827
REMARK  1 active torsions:
REMARK  status: ('A' for Active; 'I' for Inactive)
REMARK    1  A    between atoms: C_3  and  C_12 
ROOT
HETATM    1  O   UNK N   1      28.995  25.794  -6.308  0.00  0.00    -0.286 OA
HETATM    2  C   UNK N   1      28.197  25.632  -5.401  0.00  0.00     0.197 A 
HETATM    3  C   UNK N   1      27.979  24.353  -4.838  0.00  0.00     0.048 A 
HETATM    4  C   UNK N   1      27.044  24.247  -3.794  0.00  0.00     0.159 A 
HETATM    5  O   UNK N   1      26.379  25.312  -3.348  0.00  0.00    -0.321 OA
HETATM    6  C   UNK N   1      26.559  26.525  -3.863  0.00  0.00     0.089 A 
HETATM    7  C   UNK N   1      25.828  27.609  -3.366  0.00  0.00     0.038 A 
HETATM    8  C   UNK N   1      26.011  28.886  -3.909  0.00  0.00     0.003 A 
HETATM    9  C   UNK N   1      26.925  29.085  -4.948  0.00  0.00     0.001 A 
HETATM   10  C   UNK N   1      27.658  28.008  -5.448  0.00  0.00     0.018 A 
HETATM   11  C   UNK N   1      27.479  26.725  -4.910  0.00  0.00     0.049 A 
ENDROOT
BRANCH   3  12
HETATM   12  C   UNK N   1      28.692  23.132  -5.323  0.00  0.00    -0.020 A 
HETATM   13  C   UNK N   1      29.753  22.573  -4.590  0.00  0.00     0.012 A 
HETATM   14  C   UNK N   1      30.427  21.443  -5.050  0.00  0.00     0.001 A 
HETATM   15  C   UNK N   1      30.050  20.852  -6.255  0.00  0.00     0.000 A 
HETATM   16  C   UNK N   1      28.998  21.392  -6.998  0.00  0.00     0.001 A 
HETATM   17  C   UNK N   1      28.322  22.527  -6.536  0.00  0.00     0.012 A 
ENDBRANCH   3  12
TORSDOF 1
ENDMDL
MODEL 7
REMARK VINA RESULT:      -6.0     21.951     24.733
REMARK  1 active torsions:
REMARK  status: ('A' for Active; 'I' for Inactive)
REMARK    1  A    between atoms: C_3  and  C_12 
ROOT
HETATM    1  O   UNK N   1      34.837  13.191  14.729  0.00  0.00    -0.286 OA
HETATM    2  C   UNK N   1      34.995  12.185  15.397  0.00  0.00     0.197 A 
HETATM    3  C   UNK N   1      35.059  10.907  14.791  0.00  0.00     0.048 A 
HETATM    4  C   UNK N   1      35.244   9.794  15.628  0.00  0.00     0.159 A 
HETATM    5  O   UNK N   1      35.353   9.929  16.949  0.00  0.00    -0.321 OA
HETATM    6  C   UNK N   1      35.290  11.116  17.546  0.00  0.00     0.089 A 
HETATM    7  C   UNK N   1      35.399  11.204  18.938  0.00  0.00     0.038 A 
HETATM    8  C   UNK N   1      35.328  12.451  19.569  0.00  0.00     0.003 A 
HETATM    9  C   UNK N   1      35.149  13.613  18.814  0.00  0.00     0.001 A 
HETATM   10  C   UNK N   1      35.041  13.534  17.426  0.00  0.00     0.018 A 
HETATM   11  C   UNK N   1      35.109  12.287  16.785  0.00  0.00     0.049 A 
ENDROOT
BRANCH   3  12
HETATM   12  C   UNK N   1      34.923  10.713  13.315  0.00  0.00    -0.020 A 
HETATM   13  C   UNK N   1      33.732  10.220  12.757  0.00  0.00     0.012 A 
HETATM   14  C   UNK N   1      33.610  10.025  11.382  0.00  0.00     0.001 A 
HETATM   15  C   UNK N   1      34.681  10.321  10.541  0.00  0.00     0.000 A 
HETATM   16  C   UNK N   1      35.874  10.814  11.077  0.00  0.00     0.001 A 
HETATM   17  C   UNK N   1      35.996  11.008  12.457  0.00  0.00     0.012 A 
ENDBRANCH   3  12
TORSDOF 1
ENDMDL
MODEL 8
REMARK VINA RESULT:      -6.0     22.414     25.262
REMARK  1 active torsions:
REMARK  status: ('A' for Active; 'I' for Inactive)
REMARK    1  A    between atoms: C_3  and  C_12 
ROOT
HETATM    1  O   UNK N   1      37.167  10.388  15.687  0.00  0.00    -0.286 OA
HETATM    2  C   UNK N   1      36.423  11.305  15.389  0.00  0.00     0.197 A 
HETATM    3  C   UNK N   1      35.395  11.728  16.264  0.00  0.00     0.048 A 
HETATM    4  C   UNK N   1      34.579  12.794  15.850  0.00  0.00     0.159 A 
HETATM    5  O   UNK N   1      34.760  13.390  14.672  0.00  0.00    -0.321 OA
HETATM    6  C   UNK N   1      35.714  13.010  13.826  0.00  0.00     0.089 A 
HETATM    7  C   UNK N   1      35.857  13.660  12.597  0.00  0.00     0.038 A 
HETATM    8  C   UNK N   1      36.856  13.259  11.702  0.00  0.00     0.003 A 
HETATM    9  C   UNK N   1      37.717  12.209  12.034  0.00  0.00     0.001 A 
HETATM   10  C   UNK N   1      37.581  11.556  13.259  0.00  0.00     0.018 A 
HETATM   11  C   UNK N   1      36.581  11.951  14.160  0.00  0.00     0.049 A 
ENDROOT
BRANCH   3  12
HETATM   12  C   UNK N   1      35.149  11.074  17.585  0.00  0.00    -0.020 A 
HETATM   13  C   UNK N   1      34.608   9.779  17.662  0.00  0.00     0.012 A 
HETATM   14  C   UNK N   1      34.365   9.174  18.894  0.00  0.00     0.001 A 
HETATM   15  C   UNK N   1      34.659   9.858  20.073  0.00  0.00     0.000 A 
HETATM   16  C   UNK N   1      35.198  11.145  20.018  0.00  0.00     0.001 A 
HETATM   17  C   UNK N   1      35.441  11.752  18.781  0.00  0.00     0.012 A 
ENDBRANCH   3  12
TORSDOF 1
ENDMDL
MODEL 9
REMARK VINA RESULT:      -5.9     20.184     22.996
REMARK  1 active torsions:
REMARK  status: ('A' for Active; 'I' for Inactive)
REMARK    1  A    between atoms: C_3  and  C_12 
ROOT
HETATM    1  O   UNK N   1      34.718  11.653  13.270  0.00  0.00    -0.286 OA
HETATM    2  C   UNK N   1      35.266  12.739  13.348  0.00  0.00     0.197 A 
HETATM    3  C   UNK N   1      35.861  13.174  14.556  0.00  0.00     0.048 A 
HETATM    4  C   UNK N   1      36.474  14.438  14.566  0.00  0.00     0.159 A 
HETATM    5  O   UNK N   1      36.496  15.207  13.478  0.00  0.00    -0.321 OA
HETATM    6  C   UNK N   1      35.940  14.827  12.331  0.00  0.00     0.089 A 
HETATM    7  C   UNK N   1      35.981  15.676  11.221  0.00  0.00     0.038 A 
HETATM    8  C   UNK N   1      35.391  15.281  10.014  0.00  0.00     0.003 A 
HETATM    9  C   UNK N   1      34.763  14.037   9.912  0.00  0.00     0.001 A 
HETATM   10  C   UNK N   1      34.719  13.184  11.015  0.00  0.00     0.018 A 
HETATM   11  C   UNK N   1      35.305  13.574  12.229  0.00  0.00     0.049 A 
ENDROOT
BRANCH   3  12
HETATM   12  C   UNK N   1      35.841  12.347  15.801  0.00  0.00    -0.020 A 
HETATM   13  C   UNK N   1      35.196  12.805  16.963  0.00  0.00     0.012 A 
HETATM   14  C   UNK N   1      35.190  12.041  18.129  0.00  0.00     0.001 A 
HETATM   15  C   UNK N   1      35.831  10.803  18.151  0.00  0.00     0.000 A 
HETATM   16  C   UNK N   1      36.476  10.330  17.006  0.00  0.00     0.001 A 
HETATM   17  C   UNK N   1      36.483  11.098  15.836  0.00  0.00     0.012 A 
ENDBRANCH   3  12
TORSDOF 1
ENDMDL
