MODEL 1
REMARK VINA RESULT:      -5.7      0.000      0.000
REMARK  15 active torsions:
REMARK  status: ('A' for Active; 'I' for Inactive)
REMARK    1  A    between atoms: C_12  and  C_8 
REMARK    2  A    between atoms: C_14  and  C_8 
REMARK    3  A    between atoms: C_13  and  C_9 
REMARK    4  A    between atoms: C_15  and  C_9 
REMARK    5  A    between atoms: C_16  and  C_10 
REMARK    6  A    between atoms: C_17  and  C_10 
REMARK    7  A    between atoms: C_18  and  C_11 
REMARK    8  A    between atoms: C_19  and  C_11 
REMARK    9  A    between atoms: C_24  and  C_14 
REMARK   10  A    between atoms: C_26  and  C_15 
REMARK   11  A    between atoms: C_25  and  C_17 
REMARK   12  A    between atoms: C_27  and  C_19 
REMARK   13  A    between atoms: C_21  and  C_20 
REMARK   14  A    between atoms: O_29  and  C_21 
REMARK   15  A    between atoms: O_29  and  C_27 
ROOT
HETATM    1  C   UNK N   1      25.707  24.312  -6.092  0.00  0.00     0.037 C 
ENDROOT
BRANCH   1   2
HETATM    2  C   UNK N   1      25.697  25.520  -5.203  0.00  0.00    -0.024 C 
HETATM    3  C   UNK N   1      26.307  25.552  -4.002  0.00  0.00    -0.087 C 
HETATM    4  C   UNK N   1      27.019  24.367  -3.441  0.00  0.00     0.043 C 
BRANCH   3   5
HETATM    5  C   UNK N   1      26.339  26.819  -3.204  0.00  0.00     0.037 C 
BRANCH   5   6
HETATM    6  C   UNK N   1      25.610  27.959  -3.916  0.00  0.00     0.031 C 
BRANCH   6   7
HETATM    7  C   UNK N   1      26.429  29.224  -3.930  0.00  0.00    -0.024 C 
HETATM    8  C   UNK N   1      27.208  29.558  -4.968  0.00  0.00    -0.087 C 
HETATM    9  C   UNK N   1      27.990  30.836  -4.897  0.00  0.00     0.043 C 
BRANCH   8  10
HETATM   10  C   UNK N   1      27.286  28.665  -6.182  0.00  0.00     0.037 C 
BRANCH  10  11
HETATM   11  C   UNK N   1      28.709  28.284  -6.561  0.00  0.00     0.031 C 
BRANCH  11  12
HETATM   12  C   UNK N   1      28.779  26.866  -7.033  0.00  0.00    -0.024 C 
HETATM   13  C   UNK N   1      29.302  25.894  -6.276  0.00  0.00    -0.091 C 
HETATM   14  C   UNK N   1      29.868  26.175  -4.920  0.00  0.00     0.042 C 
HETATM   15  C   UNK N   1      29.334  24.500  -6.797  0.00  0.00     0.042 C 
ENDBRANCH  11  12
ENDBRANCH  10  11
ENDBRANCH   8  10
ENDBRANCH   6   7
ENDBRANCH   5   6
ENDBRANCH   3   5
ENDBRANCH   1   2
BRANCH   1  16
HETATM   16  C   UNK N   1      25.743  24.668  -7.567  0.00  0.00     0.115 C 
BRANCH  16  17
HETATM   17  C   UNK N   1      25.593  23.422  -8.370  0.00  0.00     0.259 C 
HETATM   18  O   UNK N   1      24.481  22.938  -8.535  0.00  0.00    -0.265 OA
BRANCH  17  19
HETATM   19  O   UNK N   1      26.693  22.831  -8.896  0.00  0.00    -0.318 OA
BRANCH  19  20
HETATM   20  C   UNK N   1      26.760  21.485  -9.166  0.00  0.00     0.206 C 
BRANCH  20  21
HETATM   21  C   UNK N   1      27.582  20.772  -8.131  0.00  0.00     0.002 C 
HETATM   22  C   UNK N   1      28.929  20.808  -8.124  0.00  0.00    -0.085 C 
HETATM   23  C   UNK N   1      29.704  21.542  -9.170  0.00  0.00     0.043 C 
BRANCH  22  24
HETATM   24  C   UNK N   1      29.703  20.147  -7.019  0.00  0.00     0.037 C 
BRANCH  24  25
HETATM   25  C   UNK N   1      30.634  21.131  -6.309  0.00  0.00     0.031 C 
BRANCH  25  26
HETATM   26  C   UNK N   1      30.139  21.447  -4.924  0.00  0.00    -0.024 C 
HETATM   27  C   UNK N   1      30.743  22.310  -4.103  0.00  0.00    -0.091 C 
HETATM   28  C   UNK N   1      31.982  23.040  -4.503  0.00  0.00     0.042 C 
HETATM   29  C   UNK N   1      30.158  22.550  -2.755  0.00  0.00     0.042 C 
ENDBRANCH  25  26
ENDBRANCH  24  25
ENDBRANCH  22  24
ENDBRANCH  20  21
ENDBRANCH  19  20
ENDBRANCH  17  19
ENDBRANCH  16  17
ENDBRANCH   1  16
TORSDOF 15
ENDMDL
MODEL 2
REMARK VINA RESULT:      -5.5      2.706      6.984
REMARK  15 active torsions:
REMARK  status: ('A' for Active; 'I' for Inactive)
REMARK    1  A    between atoms: C_12  and  C_8 
REMARK    2  A    between atoms: C_14  and  C_8 
REMARK    3  A    between atoms: C_13  and  C_9 
REMARK    4  A    between atoms: C_15  and  C_9 
REMARK    5  A    between atoms: C_16  and  C_10 
REMARK    6  A    between atoms: C_17  and  C_10 
REMARK    7  A    between atoms: C_18  and  C_11 
REMARK    8  A    between atoms: C_19  and  C_11 
REMARK    9  A    between atoms: C_24  and  C_14 
REMARK   10  A    between atoms: C_26  and  C_15 
REMARK   11  A    between atoms: C_25  and  C_17 
REMARK   12  A    between atoms: C_27  and  C_19 
REMARK   13  A    between atoms: C_21  and  C_20 
REMARK   14  A    between atoms: O_29  and  C_21 
REMARK   15  A    between atoms: O_29  and  C_27 
ROOT
HETATM    1  C   UNK N   1      30.165  26.710  -4.286  0.00  0.00     0.037 C 
ENDROOT
BRANCH   1   2
HETATM    2  C   UNK N   1      30.211  25.367  -3.619  0.00  0.00    -0.024 C 
HETATM    3  C   UNK N   1      31.194  24.471  -3.838  0.00  0.00    -0.087 C 
HETATM    4  C   UNK N   1      32.309  24.734  -4.795  0.00  0.00     0.043 C 
BRANCH   3   5
HETATM    5  C   UNK N   1      31.231  23.186  -3.070  0.00  0.00     0.037 C 
BRANCH   5   6
HETATM    6  C   UNK N   1      30.001  22.320  -3.349  0.00  0.00     0.031 C 
BRANCH   6   7
HETATM    7  C   UNK N   1      30.205  21.431  -4.548  0.00  0.00    -0.024 C 
HETATM    8  C   UNK N   1      29.680  21.718  -5.747  0.00  0.00    -0.087 C 
HETATM    9  C   UNK N   1      29.934  20.776  -6.886  0.00  0.00     0.043 C 
BRANCH   8  10
HETATM   10  C   UNK N   1      28.856  22.968  -5.940  0.00  0.00     0.037 C 
BRANCH  10  11
HETATM   11  C   UNK N   1      28.044  22.964  -7.226  0.00  0.00     0.031 C 
BRANCH  11  12
HETATM   12  C   UNK N   1      26.614  22.613  -6.959  0.00  0.00    -0.024 C 
HETATM   13  C   UNK N   1      25.968  21.688  -7.677  0.00  0.00    -0.091 C 
HETATM   14  C   UNK N   1      26.633  20.965  -8.806  0.00  0.00     0.042 C 
HETATM   15  C   UNK N   1      24.549  21.375  -7.357  0.00  0.00     0.042 C 
ENDBRANCH  11  12
ENDBRANCH  10  11
ENDBRANCH   8  10
ENDBRANCH   6   7
ENDBRANCH   5   6
ENDBRANCH   3   5
ENDBRANCH   1   2
BRANCH   1  16
HETATM   16  C   UNK N   1      30.359  27.856  -3.311  0.00  0.00     0.115 C 
BRANCH  16  17
HETATM   17  C   UNK N   1      29.624  29.050  -3.815  0.00  0.00     0.259 C 
HETATM   18  O   UNK N   1      29.097  29.816  -3.019  0.00  0.00    -0.265 OA
BRANCH  17  19
HETATM   19  O   UNK N   1      29.534  29.265  -5.149  0.00  0.00    -0.318 OA
BRANCH  19  20
HETATM   20  C   UNK N   1      28.417  29.802  -5.745  0.00  0.00     0.206 C 
BRANCH  20  21
HETATM   21  C   UNK N   1      27.389  28.739  -6.009  0.00  0.00     0.002 C 
HETATM   22  C   UNK N   1      27.461  27.906  -7.066  0.00  0.00    -0.085 C 
HETATM   23  C   UNK N   1      28.561  28.002  -8.072  0.00  0.00     0.043 C 
BRANCH  22  24
HETATM   24  C   UNK N   1      26.452  26.807  -7.239  0.00  0.00     0.037 C 
BRANCH  24  25
HETATM   25  C   UNK N   1      25.589  26.625  -5.989  0.00  0.00     0.031 C 
BRANCH  25  26
HETATM   26  C   UNK N   1      26.018  25.417  -5.202  0.00  0.00    -0.024 C 
HETATM   27  C   UNK N   1      26.404  25.467  -3.924  0.00  0.00    -0.091 C 
HETATM   28  C   UNK N   1      26.444  26.751  -3.164  0.00  0.00     0.042 C 
HETATM   29  C   UNK N   1      26.800  24.203  -3.242  0.00  0.00     0.042 C 
ENDBRANCH  25  26
ENDBRANCH  24  25
ENDBRANCH  22  24
ENDBRANCH  20  21
ENDBRANCH  19  20
ENDBRANCH  17  19
ENDBRANCH  16  17
ENDBRANCH   1  16
TORSDOF 15
ENDMDL
MODEL 3
REMARK VINA RESULT:      -5.5      2.529      4.416
REMARK  15 active torsions:
REMARK  status: ('A' for Active; 'I' for Inactive)
REMARK    1  A    between atoms: C_12  and  C_8 
REMARK    2  A    between atoms: C_14  and  C_8 
REMARK    3  A    between atoms: C_13  and  C_9 
REMARK    4  A    between atoms: C_15  and  C_9 
REMARK    5  A    between atoms: C_16  and  C_10 
REMARK    6  A    between atoms: C_17  and  C_10 
REMARK    7  A    between atoms: C_18  and  C_11 
REMARK    8  A    between atoms: C_19  and  C_11 
REMARK    9  A    between atoms: C_24  and  C_14 
REMARK   10  A    between atoms: C_26  and  C_15 
REMARK   11  A    between atoms: C_25  and  C_17 
REMARK   12  A    between atoms: C_27  and  C_19 
REMARK   13  A    between atoms: C_21  and  C_20 
REMARK   14  A    between atoms: O_29  and  C_21 
REMARK   15  A    between atoms: O_29  and  C_27 
ROOT
HETATM    1  C   UNK N   1      28.824  24.217  -3.720  0.00  0.00     0.037 C 
ENDROOT
BRANCH   1   2
HETATM    2  C   UNK N   1      28.090  25.496  -3.442  0.00  0.00    -0.024 C 
HETATM    3  C   UNK N   1      26.777  25.659  -3.695  0.00  0.00    -0.087 C 
HETATM    4  C   UNK N   1      25.947  24.580  -4.308  0.00  0.00     0.043 C 
BRANCH   3   5
HETATM    5  C   UNK N   1      26.084  26.928  -3.307  0.00  0.00     0.037 C 
BRANCH   5   6
HETATM    6  C   UNK N   1      25.562  27.688  -4.528  0.00  0.00     0.031 C 
BRANCH   6   7
HETATM    7  C   UNK N   1      26.663  28.435  -5.233  0.00  0.00    -0.024 C 
HETATM    8  C   UNK N   1      27.121  28.064  -6.436  0.00  0.00    -0.087 C 
HETATM    9  C   UNK N   1      28.221  28.866  -7.065  0.00  0.00     0.043 C 
BRANCH   8  10
HETATM   10  C   UNK N   1      26.534  26.863  -7.139  0.00  0.00     0.037 C 
BRANCH  10  11
HETATM   11  C   UNK N   1      27.524  26.150  -8.046  0.00  0.00     0.031 C 
BRANCH  11  12
HETATM   12  C   UNK N   1      28.594  25.473  -7.249  0.00  0.00    -0.024 C 
HETATM   13  C   UNK N   1      29.635  24.868  -7.833  0.00  0.00    -0.091 C 
HETATM   14  C   UNK N   1      29.777  24.814  -9.321  0.00  0.00     0.042 C 
HETATM   15  C   UNK N   1      30.672  24.221  -6.984  0.00  0.00     0.042 C 
ENDBRANCH  11  12
ENDBRANCH  10  11
ENDBRANCH   8  10
ENDBRANCH   6   7
ENDBRANCH   5   6
ENDBRANCH   3   5
ENDBRANCH   1   2
BRANCH   1  16
HETATM   16  C   UNK N   1      30.307  24.313  -3.414  0.00  0.00     0.115 C 
BRANCH  16  17
HETATM   17  C   UNK N   1      30.728  23.096  -2.665  0.00  0.00     0.259 C 
HETATM   18  O   UNK N   1      30.434  22.982  -1.482  0.00  0.00    -0.265 OA
BRANCH  17  19
HETATM   19  O   UNK N   1      31.444  22.136  -3.298  0.00  0.00    -0.318 OA
BRANCH  19  20
HETATM   20  C   UNK N   1      30.901  20.934  -3.686  0.00  0.00     0.206 C 
BRANCH  20  21
HETATM   21  C   UNK N   1      30.326  21.029  -5.070  0.00  0.00     0.002 C 
HETATM   22  C   UNK N   1      30.995  20.613  -6.164  0.00  0.00    -0.085 C 
HETATM   23  C   UNK N   1      32.376  20.051  -6.078  0.00  0.00     0.043 C 
BRANCH  22  24
HETATM   24  C   UNK N   1      30.343  20.654  -7.516  0.00  0.00     0.037 C 
BRANCH  24  25
HETATM   25  C   UNK N   1      28.816  20.665  -7.412  0.00  0.00     0.031 C 
BRANCH  25  26
HETATM   26  C   UNK N   1      28.197  21.393  -8.573  0.00  0.00    -0.024 C 
HETATM   27  C   UNK N   1      27.136  22.197  -8.459  0.00  0.00    -0.091 C 
HETATM   28  C   UNK N   1      26.469  22.438  -7.145  0.00  0.00     0.042 C 
HETATM   29  C   UNK N   1      26.612  22.874  -9.678  0.00  0.00     0.042 C 
ENDBRANCH  25  26
ENDBRANCH  24  25
ENDBRANCH  22  24
ENDBRANCH  20  21
ENDBRANCH  19  20
ENDBRANCH  17  19
ENDBRANCH  16  17
ENDBRANCH   1  16
TORSDOF 15
ENDMDL
MODEL 4
REMARK VINA RESULT:      -5.5      2.308      4.718
REMARK  15 active torsions:
REMARK  status: ('A' for Active; 'I' for Inactive)
REMARK    1  A    between atoms: C_12  and  C_8 
REMARK    2  A    between atoms: C_14  and  C_8 
REMARK    3  A    between atoms: C_13  and  C_9 
REMARK    4  A    between atoms: C_15  and  C_9 
REMARK    5  A    between atoms: C_16  and  C_10 
REMARK    6  A    between atoms: C_17  and  C_10 
REMARK    7  A    between atoms: C_18  and  C_11 
REMARK    8  A    between atoms: C_19  and  C_11 
REMARK    9  A    between atoms: C_24  and  C_14 
REMARK   10  A    between atoms: C_26  and  C_15 
REMARK   11  A    between atoms: C_25  and  C_17 
REMARK   12  A    between atoms: C_27  and  C_19 
REMARK   13  A    between atoms: C_21  and  C_20 
REMARK   14  A    between atoms: O_29  and  C_21 
REMARK   15  A    between atoms: O_29  and  C_27 
ROOT
HETATM    1  C   UNK N   1      29.687  24.650  -4.121  0.00  0.00     0.037 C 
ENDROOT
BRANCH   1   2
HETATM    2  C   UNK N   1      29.791  26.102  -4.481  0.00  0.00    -0.024 C 
HETATM    3  C   UNK N   1      29.626  26.562  -5.737  0.00  0.00    -0.087 C 
HETATM    4  C   UNK N   1      29.355  25.650  -6.886  0.00  0.00     0.043 C 
BRANCH   3   5
HETATM    5  C   UNK N   1      29.650  28.033  -6.013  0.00  0.00     0.037 C 
BRANCH   5   6
HETATM    6  C   UNK N   1      28.310  28.534  -6.553  0.00  0.00     0.031 C 
BRANCH   6   7
HETATM    7  C   UNK N   1      27.770  29.677  -5.733  0.00  0.00    -0.024 C 
HETATM    8  C   UNK N   1      26.988  29.481  -4.663  0.00  0.00    -0.087 C 
HETATM    9  C   UNK N   1      26.494  30.678  -3.905  0.00  0.00     0.043 C 
BRANCH   8  10
HETATM   10  C   UNK N   1      26.619  28.082  -4.233  0.00  0.00     0.037 C 
BRANCH  10  11
HETATM   11  C   UNK N   1      25.245  27.643  -4.715  0.00  0.00     0.031 C 
BRANCH  11  12
HETATM   12  C   UNK N   1      25.327  27.002  -6.065  0.00  0.00    -0.024 C 
HETATM   13  C   UNK N   1      25.630  25.708  -6.215  0.00  0.00    -0.091 C 
HETATM   14  C   UNK N   1      25.927  24.830  -5.040  0.00  0.00     0.042 C 
HETATM   15  C   UNK N   1      25.687  25.126  -7.584  0.00  0.00     0.042 C 
ENDBRANCH  11  12
ENDBRANCH  10  11
ENDBRANCH   8  10
ENDBRANCH   6   7
ENDBRANCH   5   6
ENDBRANCH   3   5
ENDBRANCH   1   2
BRANCH   1  16
HETATM   16  C   UNK N   1      30.930  24.126  -3.426  0.00  0.00     0.115 C 
BRANCH  16  17
HETATM   17  C   UNK N   1      30.561  22.946  -2.595  0.00  0.00     0.259 C 
HETATM   18  O   UNK N   1      30.349  23.091  -1.399  0.00  0.00    -0.265 OA
BRANCH  17  19
HETATM   19  O   UNK N   1      30.478  21.723  -3.172  0.00  0.00    -0.318 OA
BRANCH  19  20
HETATM   20  C   UNK N   1      31.553  21.105  -3.767  0.00  0.00     0.206 C 
BRANCH  20  21
HETATM   21  C   UNK N   1      31.112  20.280  -4.942  0.00  0.00     0.002 C 
HETATM   22  C   UNK N   1      31.184  20.729  -6.211  0.00  0.00    -0.085 C 
HETATM   23  C   UNK N   1      31.683  22.099  -6.536  0.00  0.00     0.043 C 
BRANCH  22  24
HETATM   24  C   UNK N   1      30.807  19.835  -7.357  0.00  0.00     0.037 C 
BRANCH  24  25
HETATM   25  C   UNK N   1      29.290  19.681  -7.485  0.00  0.00     0.031 C 
BRANCH  25  26
HETATM   26  C   UNK N   1      28.739  20.587  -8.552  0.00  0.00    -0.024 C 
HETATM   27  C   UNK N   1      28.142  21.754  -8.294  0.00  0.00    -0.091 C 
HETATM   28  C   UNK N   1      27.970  22.257  -6.898  0.00  0.00     0.042 C 
HETATM   29  C   UNK N   1      27.642  22.574  -9.431  0.00  0.00     0.042 C 
ENDBRANCH  25  26
ENDBRANCH  24  25
ENDBRANCH  22  24
ENDBRANCH  20  21
ENDBRANCH  19  20
ENDBRANCH  17  19
ENDBRANCH  16  17
ENDBRANCH   1  16
TORSDOF 15
ENDMDL
MODEL 5
REMARK VINA RESULT:      -5.4      1.512      5.990
REMARK  15 active torsions:
REMARK  status: ('A' for Active; 'I' for Inactive)
REMARK    1  A    between atoms: C_12  and  C_8 
REMARK    2  A    between atoms: C_14  and  C_8 
REMARK    3  A    between atoms: C_13  and  C_9 
REMARK    4  A    between atoms: C_15  and  C_9 
REMARK    5  A    between atoms: C_16  and  C_10 
REMARK    6  A    between atoms: C_17  and  C_10 
REMARK    7  A    between atoms: C_18  and  C_11 
REMARK    8  A    between atoms: C_19  and  C_11 
REMARK    9  A    between atoms: C_24  and  C_14 
REMARK   10  A    between atoms: C_26  and  C_15 
REMARK   11  A    between atoms: C_25  and  C_17 
REMARK   12  A    between atoms: C_27  and  C_19 
REMARK   13  A    between atoms: C_21  and  C_20 
REMARK   14  A    between atoms: O_29  and  C_21 
REMARK   15  A    between atoms: O_29  and  C_27 
ROOT
HETATM    1  C   UNK N   1      26.994  22.153  -6.866  0.00  0.00     0.037 C 
ENDROOT
BRANCH   1   2
HETATM    2  C   UNK N   1      27.956  23.094  -6.203  0.00  0.00    -0.024 C 
HETATM    3  C   UNK N   1      27.587  23.967  -5.245  0.00  0.00    -0.087 C 
HETATM    4  C   UNK N   1      26.172  24.090  -4.787  0.00  0.00     0.043 C 
BRANCH   3   5
HETATM    5  C   UNK N   1      28.613  24.813  -4.558  0.00  0.00     0.037 C 
BRANCH   5   6
HETATM    6  C   UNK N   1      30.037  24.363  -4.887  0.00  0.00     0.031 C 
BRANCH   6   7
HETATM    7  C   UNK N   1      30.619  23.507  -3.793  0.00  0.00    -0.024 C 
HETATM    8  C   UNK N   1      31.506  22.534  -4.043  0.00  0.00    -0.087 C 
HETATM    9  C   UNK N   1      32.034  21.730  -2.893  0.00  0.00     0.043 C 
BRANCH   8  10
HETATM   10  C   UNK N   1      31.963  22.263  -5.457  0.00  0.00     0.037 C 
BRANCH  10  11
HETATM   11  C   UNK N   1      32.074  20.782  -5.782  0.00  0.00     0.031 C 
BRANCH  11  12
HETATM   12  C   UNK N   1      30.740  20.208  -6.144  0.00  0.00    -0.024 C 
HETATM   13  C   UNK N   1      30.393  19.972  -7.414  0.00  0.00    -0.091 C 
HETATM   14  C   UNK N   1      31.314  20.288  -8.550  0.00  0.00     0.042 C 
HETATM   15  C   UNK N   1      29.055  19.391  -7.709  0.00  0.00     0.042 C 
ENDBRANCH  11  12
ENDBRANCH  10  11
ENDBRANCH   8  10
ENDBRANCH   6   7
ENDBRANCH   5   6
ENDBRANCH   3   5
ENDBRANCH   1   2
BRANCH   1  16
HETATM   16  C   UNK N   1      26.666  22.557  -8.291  0.00  0.00     0.115 C 
BRANCH  16  17
HETATM   17  C   UNK N   1      25.322  23.200  -8.315  0.00  0.00     0.259 C 
HETATM   18  O   UNK N   1      24.319  22.503  -8.398  0.00  0.00    -0.265 OA
BRANCH  17  19
HETATM   19  O   UNK N   1      25.227  24.551  -8.260  0.00  0.00    -0.318 OA
BRANCH  19  20
HETATM   20  C   UNK N   1      26.016  25.385  -9.016  0.00  0.00     0.206 C 
BRANCH  20  21
HETATM   21  C   UNK N   1      26.619  26.466  -8.165  0.00  0.00     0.002 C 
HETATM   22  C   UNK N   1      27.944  26.557  -7.940  0.00  0.00    -0.085 C 
HETATM   23  C   UNK N   1      28.910  25.565  -8.502  0.00  0.00     0.043 C 
BRANCH  22  24
HETATM   24  C   UNK N   1      28.505  27.704  -7.150  0.00  0.00     0.037 C 
BRANCH  24  25
HETATM   25  C   UNK N   1      27.401  28.551  -6.513  0.00  0.00     0.031 C 
BRANCH  25  26
HETATM   26  C   UNK N   1      27.228  28.214  -5.057  0.00  0.00    -0.024 C 
HETATM   27  C   UNK N   1      26.107  27.698  -4.547  0.00  0.00    -0.091 C 
HETATM   28  C   UNK N   1      24.914  27.412  -5.399  0.00  0.00     0.042 C 
HETATM   29  C   UNK N   1      26.051  27.396  -3.090  0.00  0.00     0.042 C 
ENDBRANCH  25  26
ENDBRANCH  24  25
ENDBRANCH  22  24
ENDBRANCH  20  21
ENDBRANCH  19  20
ENDBRANCH  17  19
ENDBRANCH  16  17
ENDBRANCH   1  16
TORSDOF 15
ENDMDL
MODEL 6
REMARK VINA RESULT:      -5.4      3.146      7.890
REMARK  15 active torsions:
REMARK  status: ('A' for Active; 'I' for Inactive)
REMARK    1  A    between atoms: C_12  and  C_8 
REMARK    2  A    between atoms: C_14  and  C_8 
REMARK    3  A    between atoms: C_13  and  C_9 
REMARK    4  A    between atoms: C_15  and  C_9 
REMARK    5  A    between atoms: C_16  and  C_10 
REMARK    6  A    between atoms: C_17  and  C_10 
REMARK    7  A    between atoms: C_18  and  C_11 
REMARK    8  A    between atoms: C_19  and  C_11 
REMARK    9  A    between atoms: C_24  and  C_14 
REMARK   10  A    between atoms: C_26  and  C_15 
REMARK   11  A    between atoms: C_25  and  C_17 
REMARK   12  A    between atoms: C_27  and  C_19 
REMARK   13  A    between atoms: C_21  and  C_20 
REMARK   14  A    between atoms: O_29  and  C_21 
REMARK   15  A    between atoms: O_29  and  C_27 
ROOT
HETATM    1  C   UNK N   1      29.735  27.170  -3.672  0.00  0.00     0.037 C 
ENDROOT
BRANCH   1   2
HETATM    2  C   UNK N   1      29.834  26.215  -4.825  0.00  0.00    -0.024 C 
HETATM    3  C   UNK N   1      29.069  25.111  -4.932  0.00  0.00    -0.087 C 
HETATM    4  C   UNK N   1      28.075  24.730  -3.886  0.00  0.00     0.043 C 
BRANCH   3   5
HETATM    5  C   UNK N   1      29.152  24.249  -6.154  0.00  0.00     0.037 C 
BRANCH   5   6
HETATM    6  C   UNK N   1      28.576  22.854  -5.907  0.00  0.00     0.031 C 
BRANCH   6   7
HETATM    7  C   UNK N   1      29.488  21.774  -6.427  0.00  0.00    -0.024 C 
HETATM    8  C   UNK N   1      30.265  21.044  -5.616  0.00  0.00    -0.087 C 
HETATM    9  C   UNK N   1      31.143  19.989  -6.220  0.00  0.00     0.043 C 
BRANCH   8  10
HETATM   10  C   UNK N   1      30.247  21.281  -4.124  0.00  0.00     0.037 C 
BRANCH  10  11
HETATM   11  C   UNK N   1      31.594  21.709  -3.564  0.00  0.00     0.031 C 
BRANCH  11  12
HETATM   12  C   UNK N   1      31.889  23.136  -3.902  0.00  0.00    -0.024 C 
HETATM   13  C   UNK N   1      32.881  23.475  -4.732  0.00  0.00    -0.091 C 
HETATM   14  C   UNK N   1      33.770  22.446  -5.354  0.00  0.00     0.042 C 
HETATM   15  C   UNK N   1      33.118  24.913  -5.037  0.00  0.00     0.042 C 
ENDBRANCH  11  12
ENDBRANCH  10  11
ENDBRANCH   8  10
ENDBRANCH   6   7
ENDBRANCH   5   6
ENDBRANCH   3   5
ENDBRANCH   1   2
BRANCH   1  16
HETATM   16  C   UNK N   1      30.916  28.120  -3.594  0.00  0.00     0.115 C 
BRANCH  16  17
HETATM   17  C   UNK N   1      30.617  29.184  -2.594  0.00  0.00     0.259 C 
HETATM   18  O   UNK N   1      31.108  29.118  -1.476  0.00  0.00    -0.265 OA
BRANCH  17  19
HETATM   19  O   UNK N   1      29.792  30.204  -2.932  0.00  0.00    -0.318 OA
BRANCH  19  20
HETATM   20  C   UNK N   1      28.660  30.516  -2.216  0.00  0.00     0.206 C 
BRANCH  20  21
HETATM   21  C   UNK N   1      27.639  29.420  -2.325  0.00  0.00     0.002 C 
HETATM   22  C   UNK N   1      26.957  29.174  -3.461  0.00  0.00    -0.085 C 
HETATM   23  C   UNK N   1      27.149  30.000  -4.691  0.00  0.00     0.043 C 
BRANCH  22  24
HETATM   24  C   UNK N   1      26.007  28.013  -3.542  0.00  0.00     0.037 C 
BRANCH  24  25
HETATM   25  C   UNK N   1      25.188  28.038  -4.834  0.00  0.00     0.031 C 
BRANCH  25  26
HETATM   26  C   UNK N   1      25.123  26.673  -5.464  0.00  0.00    -0.024 C 
HETATM   27  C   UNK N   1      25.880  26.301  -6.499  0.00  0.00    -0.091 C 
HETATM   28  C   UNK N   1      26.866  27.230  -7.127  0.00  0.00     0.042 C 
HETATM   29  C   UNK N   1      25.736  24.920  -7.036  0.00  0.00     0.042 C 
ENDBRANCH  25  26
ENDBRANCH  24  25
ENDBRANCH  22  24
ENDBRANCH  20  21
ENDBRANCH  19  20
ENDBRANCH  17  19
ENDBRANCH  16  17
ENDBRANCH   1  16
TORSDOF 15
ENDMDL
MODEL 7
REMARK VINA RESULT:      -5.3     12.230     15.544
REMARK  15 active torsions:
REMARK  status: ('A' for Active; 'I' for Inactive)
REMARK    1  A    between atoms: C_12  and  C_8 
REMARK    2  A    between atoms: C_14  and  C_8 
REMARK    3  A    between atoms: C_13  and  C_9 
REMARK    4  A    between atoms: C_15  and  C_9 
REMARK    5  A    between atoms: C_16  and  C_10 
REMARK    6  A    between atoms: C_17  and  C_10 
REMARK    7  A    between atoms: C_18  and  C_11 
REMARK    8  A    between atoms: C_19  and  C_11 
REMARK    9  A    between atoms: C_24  and  C_14 
REMARK   10  A    between atoms: C_26  and  C_15 
REMARK   11  A    between atoms: C_25  and  C_17 
REMARK   12  A    between atoms: C_27  and  C_19 
REMARK   13  A    between atoms: C_21  and  C_20 
REMARK   14  A    between atoms: O_29  and  C_21 
REMARK   15  A    between atoms: O_29  and  C_27 
ROOT
HETATM    1  C   UNK N   1      34.082  15.722   4.863  0.00  0.00     0.037 C 
ENDROOT
BRANCH   1   2
HETATM    2  C   UNK N   1      32.632  15.360   4.725  0.00  0.00    -0.024 C 
HETATM    3  C   UNK N   1      31.688  16.242   4.342  0.00  0.00    -0.087 C 
HETATM    4  C   UNK N   1      32.008  17.671   4.053  0.00  0.00     0.043 C 
BRANCH   3   5
HETATM    5  C   UNK N   1      30.275  15.794   4.134  0.00  0.00     0.037 C 
BRANCH   5   6
HETATM    6  C   UNK N   1      29.764  16.150   2.738  0.00  0.00     0.031 C 
BRANCH   6   7
HETATM    7  C   UNK N   1      28.690  15.199   2.277  0.00  0.00    -0.024 C 
HETATM    8  C   UNK N   1      27.395  15.390   2.565  0.00  0.00    -0.087 C 
HETATM    9  C   UNK N   1      26.393  14.393   2.067  0.00  0.00     0.043 C 
BRANCH   8  10
HETATM   10  C   UNK N   1      26.962  16.592   3.372  0.00  0.00     0.037 C 
BRANCH  10  11
HETATM   11  C   UNK N   1      26.140  16.231   4.599  0.00  0.00     0.031 C 
BRANCH  11  12
HETATM   12  C   UNK N   1      25.145  17.303   4.914  0.00  0.00    -0.024 C 
HETATM   13  C   UNK N   1      23.862  17.204   4.552  0.00  0.00    -0.091 C 
HETATM   14  C   UNK N   1      23.350  16.023   3.789  0.00  0.00     0.042 C 
HETATM   15  C   UNK N   1      22.917  18.300   4.903  0.00  0.00     0.042 C 
ENDBRANCH  11  12
ENDBRANCH  10  11
ENDBRANCH   8  10
ENDBRANCH   6   7
ENDBRANCH   5   6
ENDBRANCH   3   5
ENDBRANCH   1   2
BRANCH   1  16
HETATM   16  C   UNK N   1      34.578  15.624   6.294  0.00  0.00     0.115 C 
BRANCH  16  17
HETATM   17  C   UNK N   1      34.204  16.869   7.022  0.00  0.00     0.259 C 
HETATM   18  O   UNK N   1      34.518  17.958   6.561  0.00  0.00    -0.265 OA
BRANCH  17  19
HETATM   19  O   UNK N   1      33.534  16.779   8.197  0.00  0.00    -0.318 OA
BRANCH  19  20
HETATM   20  C   UNK N   1      32.492  17.614   8.527  0.00  0.00     0.206 C 
BRANCH  20  21
HETATM   21  C   UNK N   1      31.253  17.251   7.760  0.00  0.00     0.002 C 
HETATM   22  C   UNK N   1      30.018  17.607   8.164  0.00  0.00    -0.085 C 
HETATM   23  C   UNK N   1      29.792  18.370   9.429  0.00  0.00     0.043 C 
BRANCH  22  24
HETATM   24  C   UNK N   1      28.819  17.291   7.318  0.00  0.00     0.037 C 
BRANCH  24  25
HETATM   25  C   UNK N   1      28.645  18.297   6.179  0.00  0.00     0.031 C 
BRANCH  25  26
HETATM   26  C   UNK N   1      27.848  19.492   6.624  0.00  0.00    -0.024 C 
HETATM   27  C   UNK N   1      27.276  20.355   5.780  0.00  0.00    -0.091 C 
HETATM   28  C   UNK N   1      27.389  20.198   4.299  0.00  0.00     0.042 C 
HETATM   29  C   UNK N   1      26.502  21.500   6.334  0.00  0.00     0.042 C 
ENDBRANCH  25  26
ENDBRANCH  24  25
ENDBRANCH  22  24
ENDBRANCH  20  21
ENDBRANCH  19  20
ENDBRANCH  17  19
ENDBRANCH  16  17
ENDBRANCH   1  16
TORSDOF 15
ENDMDL
MODEL 8
REMARK VINA RESULT:      -5.2      2.335      5.864
REMARK  15 active torsions:
REMARK  status: ('A' for Active; 'I' for Inactive)
REMARK    1  A    between atoms: C_12  and  C_8 
REMARK    2  A    between atoms: C_14  and  C_8 
REMARK    3  A    between atoms: C_13  and  C_9 
REMARK    4  A    between atoms: C_15  and  C_9 
REMARK    5  A    between atoms: C_16  and  C_10 
REMARK    6  A    between atoms: C_17  and  C_10 
REMARK    7  A    between atoms: C_18  and  C_11 
REMARK    8  A    between atoms: C_19  and  C_11 
REMARK    9  A    between atoms: C_24  and  C_14 
REMARK   10  A    between atoms: C_26  and  C_15 
REMARK   11  A    between atoms: C_25  and  C_17 
REMARK   12  A    between atoms: C_27  and  C_19 
REMARK   13  A    between atoms: C_21  and  C_20 
REMARK   14  A    between atoms: O_29  and  C_21 
REMARK   15  A    between atoms: O_29  and  C_27 
ROOT
HETATM    1  C   UNK N   1      27.052  28.401  -5.244  0.00  0.00     0.037 C 
ENDROOT
BRANCH   1   2
HETATM    2  C   UNK N   1      26.971  27.453  -6.404  0.00  0.00    -0.024 C 
HETATM    3  C   UNK N   1      25.827  26.847  -6.779  0.00  0.00    -0.087 C 
HETATM    4  C   UNK N   1      24.544  27.048  -6.043  0.00  0.00     0.043 C 
BRANCH   3   5
HETATM    5  C   UNK N   1      25.794  25.984  -8.002  0.00  0.00     0.037 C 
BRANCH   5   6
HETATM    6  C   UNK N   1      25.714  24.498  -7.650  0.00  0.00     0.031 C 
BRANCH   6   7
HETATM    7  C   UNK N   1      25.537  23.643  -8.877  0.00  0.00    -0.024 C 
HETATM    8  C   UNK N   1      26.151  22.460  -9.018  0.00  0.00    -0.087 C 
HETATM    9  C   UNK N   1      25.917  21.674 -10.274  0.00  0.00     0.043 C 
BRANCH   8  10
HETATM   10  C   UNK N   1      27.054  21.934  -7.928  0.00  0.00     0.037 C 
BRANCH  10  11
HETATM   11  C   UNK N   1      28.400  21.448  -8.441  0.00  0.00     0.031 C 
BRANCH  11  12
HETATM   12  C   UNK N   1      29.392  21.335  -7.326  0.00  0.00    -0.024 C 
HETATM   13  C   UNK N   1      29.935  20.164  -6.980  0.00  0.00    -0.091 C 
HETATM   14  C   UNK N   1      29.565  18.891  -7.674  0.00  0.00     0.042 C 
HETATM   15  C   UNK N   1      30.925  20.118  -5.869  0.00  0.00     0.042 C 
ENDBRANCH  11  12
ENDBRANCH  10  11
ENDBRANCH   8  10
ENDBRANCH   6   7
ENDBRANCH   5   6
ENDBRANCH   3   5
ENDBRANCH   1   2
BRANCH   1  16
HETATM   16  C   UNK N   1      27.559  27.737  -3.977  0.00  0.00     0.115 C 
BRANCH  16  17
HETATM   17  C   UNK N   1      26.399  27.191  -3.217  0.00  0.00     0.259 C 
HETATM   18  O   UNK N   1      25.487  27.937  -2.888  0.00  0.00    -0.265 OA
BRANCH  17  19
HETATM   19  O   UNK N   1      26.377  25.877  -2.887  0.00  0.00    -0.318 OA
BRANCH  19  20
HETATM   20  C   UNK N   1      26.554  24.873  -3.809  0.00  0.00     0.206 C 
BRANCH  20  21
HETATM   21  C   UNK N   1      27.822  24.116  -3.538  0.00  0.00     0.002 C 
HETATM   22  C   UNK N   1      28.792  23.971  -4.461  0.00  0.00    -0.085 C 
HETATM   23  C   UNK N   1      28.660  24.533  -5.839  0.00  0.00     0.043 C 
BRANCH  22  24
HETATM   24  C   UNK N   1      30.077  23.275  -4.113  0.00  0.00     0.037 C 
BRANCH  24  25
HETATM   25  C   UNK N   1      31.286  24.198  -4.275  0.00  0.00     0.031 C 
BRANCH  25  26
HETATM   26  C   UNK N   1      31.153  25.426  -3.417  0.00  0.00    -0.024 C 
HETATM   27  C   UNK N   1      31.229  26.671  -3.893  0.00  0.00    -0.091 C 
HETATM   28  C   UNK N   1      31.461  26.946  -5.343  0.00  0.00     0.042 C 
HETATM   29  C   UNK N   1      31.073  27.813  -2.951  0.00  0.00     0.042 C 
ENDBRANCH  25  26
ENDBRANCH  24  25
ENDBRANCH  22  24
ENDBRANCH  20  21
ENDBRANCH  19  20
ENDBRANCH  17  19
ENDBRANCH  16  17
ENDBRANCH   1  16
TORSDOF 15
ENDMDL
MODEL 9
REMARK VINA RESULT:      -5.2      2.784      4.835
REMARK  15 active torsions:
REMARK  status: ('A' for Active; 'I' for Inactive)
REMARK    1  A    between atoms: C_12  and  C_8 
REMARK    2  A    between atoms: C_14  and  C_8 
REMARK    3  A    between atoms: C_13  and  C_9 
REMARK    4  A    between atoms: C_15  and  C_9 
REMARK    5  A    between atoms: C_16  and  C_10 
REMARK    6  A    between atoms: C_17  and  C_10 
REMARK    7  A    between atoms: C_18  and  C_11 
REMARK    8  A    between atoms: C_19  and  C_11 
REMARK    9  A    between atoms: C_24  and  C_14 
REMARK   10  A    between atoms: C_26  and  C_15 
REMARK   11  A    between atoms: C_25  and  C_17 
REMARK   12  A    between atoms: C_27  and  C_19 
REMARK   13  A    between atoms: C_21  and  C_20 
REMARK   14  A    between atoms: O_29  and  C_21 
REMARK   15  A    between atoms: O_29  and  C_27 
ROOT
HETATM    1  C   UNK N   1      28.656  23.874  -3.888  0.00  0.00     0.037 C 
ENDROOT
BRANCH   1   2
HETATM    2  C   UNK N   1      28.032  25.215  -3.634  0.00  0.00    -0.024 C 
HETATM    3  C   UNK N   1      26.740  25.487  -3.904  0.00  0.00    -0.087 C 
HETATM    4  C   UNK N   1      25.827  24.475  -4.512  0.00  0.00     0.043 C 
BRANCH   3   5
HETATM    5  C   UNK N   1      26.156  26.817  -3.541  0.00  0.00     0.037 C 
BRANCH   5   6
HETATM    6  C   UNK N   1      25.673  27.582  -4.774  0.00  0.00     0.031 C 
BRANCH   6   7
HETATM    7  C   UNK N   1      26.825  28.077  -5.610  0.00  0.00    -0.024 C 
HETATM    8  C   UNK N   1      27.040  27.642  -6.859  0.00  0.00    -0.087 C 
HETATM    9  C   UNK N   1      28.212  28.188  -7.618  0.00  0.00     0.043 C 
BRANCH   8  10
HETATM   10  C   UNK N   1      26.114  26.626  -7.483  0.00  0.00     0.037 C 
BRANCH  10  11
HETATM   11  C   UNK N   1      26.797  25.734  -8.507  0.00  0.00     0.031 C 
BRANCH  11  12
HETATM   12  C   UNK N   1      26.805  24.307  -8.059  0.00  0.00    -0.024 C 
HETATM   13  C   UNK N   1      27.896  23.737  -7.535  0.00  0.00    -0.091 C 
HETATM   14  C   UNK N   1      29.180  24.489  -7.387  0.00  0.00     0.042 C 
HETATM   15  C   UNK N   1      27.838  22.315  -7.097  0.00  0.00     0.042 C 
ENDBRANCH  11  12
ENDBRANCH  10  11
ENDBRANCH   8  10
ENDBRANCH   6   7
ENDBRANCH   5   6
ENDBRANCH   3   5
ENDBRANCH   1   2
BRANCH   1  16
HETATM   16  C   UNK N   1      30.154  23.869  -3.650  0.00  0.00     0.115 C 
BRANCH  16  17
HETATM   17  C   UNK N   1      30.477  22.853  -2.608  0.00  0.00     0.259 C 
HETATM   18  O   UNK N   1      30.390  23.151  -1.425  0.00  0.00    -0.265 OA
BRANCH  17  19
HETATM   19  O   UNK N   1      30.878  21.615  -2.986  0.00  0.00    -0.318 OA
BRANCH  19  20
HETATM   20  C   UNK N   1      31.616  21.384  -4.122  0.00  0.00     0.206 C 
BRANCH  20  21
HETATM   21  C   UNK N   1      30.892  20.450  -5.049  0.00  0.00     0.002 C 
HETATM   22  C   UNK N   1      30.975  20.550  -6.391  0.00  0.00    -0.085 C 
HETATM   23  C   UNK N   1      31.778  21.622  -7.054  0.00  0.00     0.043 C 
BRANCH  22  24
HETATM   24  C   UNK N   1      30.298  19.540  -7.272  0.00  0.00     0.037 C 
BRANCH  24  25
HETATM   25  C   UNK N   1      30.258  19.996  -8.732  0.00  0.00     0.031 C 
BRANCH  25  26
HETATM   26  C   UNK N   1      29.904  18.857  -9.649  0.00  0.00    -0.024 C 
HETATM   27  C   UNK N   1      30.793  18.231 -10.425  0.00  0.00    -0.091 C 
HETATM   28  C   UNK N   1      32.233  18.624 -10.446  0.00  0.00     0.042 C 
HETATM   29  C   UNK N   1      30.331  17.109 -11.288  0.00  0.00     0.042 C 
ENDBRANCH  25  26
ENDBRANCH  24  25
ENDBRANCH  22  24
ENDBRANCH  20  21
ENDBRANCH  19  20
ENDBRANCH  17  19
ENDBRANCH  16  17
ENDBRANCH   1  16
TORSDOF 15
ENDMDL
