MODEL 1
REMARK VINA RESULT:      -8.6      0.000      0.000
REMARK  6 active torsions:
REMARK  status: ('A' for Active; 'I' for Inactive)
REMARK    1  A    between atoms: C_9  and  C_23 
REMARK    2  A    between atoms: C_10  and  C_12 
REMARK    3  A    between atoms: C_13  and  C_14 
REMARK    4  A    between atoms: C_17  and  C_20 
REMARK    5  A    between atoms: C_20  and  O_22 
REMARK    6  A    between atoms: C_23  and  N_24 
ROOT
HETATM    1  C   UNK N   1      32.471  18.215   8.313  0.00  0.00     0.020 C 
HETATM    2  C   UNK N   1      32.254  16.975   7.460  0.00  0.00    -0.020 C 
HETATM    3  C   UNK N   1      33.528  16.808   6.632  0.00  0.00     0.015 C 
HETATM    4  C   UNK N   1      33.310  15.906   5.434  0.00  0.00     0.015 C 
HETATM    5  C   UNK N   1      32.297  16.524   4.473  0.00  0.00    -0.020 C 
HETATM    6  C   UNK N   1      31.036  16.949   5.201  0.00  0.00    -0.042 A 
HETATM    7  C   UNK N   1      31.013  17.144   6.607  0.00  0.00    -0.043 A 
HETATM    8  C   UNK N   1      29.824  17.558   7.228  0.00  0.00     0.018 A 
HETATM    9  C   UNK N   1      28.672  17.801   6.486  0.00  0.00    -0.028 A 
HETATM   10  C   UNK N   1      28.704  17.603   5.078  0.00  0.00    -0.028 A 
HETATM   11  C   UNK N   1      29.879  17.194   4.461  0.00  0.00     0.020 A 
HETATM   12  C   UNK N   1      31.992  15.469   3.422  0.00  0.00     0.020 C 
HETATM   13  C   UNK N   1      32.899  17.733   3.769  0.00  0.00     0.020 C 
HETATM   14  C   UNK N   1      32.066  15.781   8.379  0.00  0.00     0.020 C 
ENDROOT
BRANCH  10  15
HETATM   15  C   UNK N   1      27.591  17.974   4.201  0.00  0.00     0.013 C 
HETATM   16  C   UNK N   1      26.381  17.465   4.386  0.00  0.00     0.012 C 
BRANCH  16  17
HETATM   17  C   UNK N   1      25.194  18.236   4.101  0.00  0.00    -0.036 A 
HETATM   18  C   UNK N   1      25.338  19.490   3.513  0.00  0.00     0.012 A 
HETATM   19  C   UNK N   1      24.208  20.198   3.112  0.00  0.00     0.019 A 
HETATM   20  C   UNK N   1      22.935  19.637   3.282  0.00  0.00     0.037 A 
HETATM   21  C   UNK N   1      22.801  18.357   3.829  0.00  0.00     0.019 A 
HETATM   22  C   UNK N   1      23.927  17.654   4.225  0.00  0.00     0.012 A 
BRANCH  20  23
HETATM   23  C   UNK N   1      21.733  20.408   2.951  0.00  0.00     0.176 C 
HETATM   24  O   UNK N   1      20.662  19.843   2.807  0.00  0.00    -0.646 OA
BRANCH  23  25
HETATM   25  O   UNK N   1      21.822  21.736   2.749  0.00  0.00    -0.773 OA
HETATM   26  H   UNK N   1      21.215  22.384   3.049  0.00  0.00     0.167 HD
ENDBRANCH  23  25
ENDBRANCH  20  23
ENDBRANCH  16  17
ENDBRANCH  10  15
BRANCH   9  27
HETATM   27  C   UNK N   1      27.466  18.439   7.145  0.00  0.00     0.187 C 
BRANCH  27  28
HETATM   28  N   UNK N   1      27.292  19.866   6.982  0.00  0.00    -0.299 N 
HETATM   29  C   UNK N   1      27.898  20.651   6.081  0.00  0.00     0.112 A 
HETATM   30  C   UNK N   1      27.345  21.914   6.176  0.00  0.00     0.037 A 
HETATM   31  C   UNK N   1      26.376  21.813   7.164  0.00  0.00     0.108 A 
HETATM   32  N   UNK N   1      26.361  20.553   7.628  0.00  0.00    -0.310 N 
ATOM     33  HN  UNK N   1      25.741  20.188   8.350  1.00  0.00     0.186 HD
ENDBRANCH  27  28
ENDBRANCH   9  27
TORSDOF 6
ENDMDL
MODEL 2
REMARK VINA RESULT:      -8.4      2.515      4.474
REMARK  6 active torsions:
REMARK  status: ('A' for Active; 'I' for Inactive)
REMARK    1  A    between atoms: C_9  and  C_23 
REMARK    2  A    between atoms: C_10  and  C_12 
REMARK    3  A    between atoms: C_13  and  C_14 
REMARK    4  A    between atoms: C_17  and  C_20 
REMARK    5  A    between atoms: C_20  and  O_22 
REMARK    6  A    between atoms: C_23  and  N_24 
ROOT
HETATM    1  C   UNK N   1      31.775  15.144   6.996  0.00  0.00     0.020 C 
HETATM    2  C   UNK N   1      31.497  16.627   7.183  0.00  0.00    -0.020 C 
HETATM    3  C   UNK N   1      31.205  16.814   8.672  0.00  0.00     0.015 C 
HETATM    4  C   UNK N   1      30.487  18.121   8.948  0.00  0.00     0.015 C 
HETATM    5  C   UNK N   1      29.117  18.133   8.276  0.00  0.00    -0.020 C 
HETATM    6  C   UNK N   1      29.217  17.746   6.813  0.00  0.00    -0.042 A 
HETATM    7  C   UNK N   1      30.344  17.055   6.297  0.00  0.00    -0.043 A 
HETATM    8  C   UNK N   1      30.376  16.703   4.938  0.00  0.00     0.018 A 
HETATM    9  C   UNK N   1      29.314  17.002   4.092  0.00  0.00    -0.028 A 
HETATM   10  C   UNK N   1      28.188  17.697   4.617  0.00  0.00    -0.028 A 
HETATM   11  C   UNK N   1      28.153  18.045   5.961  0.00  0.00     0.020 A 
HETATM   12  C   UNK N   1      28.566  19.541   8.433  0.00  0.00     0.020 C 
HETATM   13  C   UNK N   1      28.168  17.172   8.983  0.00  0.00     0.020 C 
HETATM   14  C   UNK N   1      32.739  17.407   6.790  0.00  0.00     0.020 C 
ENDROOT
BRANCH  10  15
HETATM   15  C   UNK N   1      26.966  17.922   3.842  0.00  0.00     0.013 C 
HETATM   16  C   UNK N   1      25.774  17.669   4.365  0.00  0.00     0.012 C 
BRANCH  16  17
HETATM   17  C   UNK N   1      24.621  18.465   4.017  0.00  0.00    -0.036 A 
HETATM   18  C   UNK N   1      24.825  19.714   3.435  0.00  0.00     0.012 A 
HETATM   19  C   UNK N   1      23.733  20.446   2.975  0.00  0.00     0.019 A 
HETATM   20  C   UNK N   1      22.440  19.915   3.079  0.00  0.00     0.037 A 
HETATM   21  C   UNK N   1      22.249  18.640   3.621  0.00  0.00     0.019 A 
HETATM   22  C   UNK N   1      23.337  17.912   4.076  0.00  0.00     0.012 A 
BRANCH  20  23
HETATM   23  C   UNK N   1      21.275  20.711   2.685  0.00  0.00     0.176 C 
HETATM   24  O   UNK N   1      20.385  20.937   3.487  0.00  0.00    -0.646 OA
BRANCH  23  25
HETATM   25  O   UNK N   1      21.159  21.148   1.416  0.00  0.00    -0.773 OA
HETATM   26  H   UNK N   1      21.157  22.042   1.136  0.00  0.00     0.167 HD
ENDBRANCH  23  25
ENDBRANCH  20  23
ENDBRANCH  16  17
ENDBRANCH  10  15
BRANCH   9  27
HETATM   27  C   UNK N   1      29.280  16.437   2.687  0.00  0.00     0.187 C 
BRANCH  27  28
HETATM   28  N   UNK N   1      28.811  15.078   2.523  0.00  0.00    -0.299 N 
HETATM   29  C   UNK N   1      27.581  14.693   2.162  0.00  0.00     0.112 A 
HETATM   30  C   UNK N   1      27.599  13.321   1.988  0.00  0.00     0.037 A 
HETATM   31  C   UNK N   1      28.907  12.939   2.248  0.00  0.00     0.108 A 
HETATM   32  N   UNK N   1      29.622  14.031   2.561  0.00  0.00    -0.310 N 
ATOM     33  HN  UNK N   1      30.616  14.051   2.787  1.00  0.00     0.186 HD
ENDBRANCH  27  28
ENDBRANCH   9  27
TORSDOF 6
ENDMDL
MODEL 3
REMARK VINA RESULT:      -8.1     11.169     14.168
REMARK  6 active torsions:
REMARK  status: ('A' for Active; 'I' for Inactive)
REMARK    1  A    between atoms: C_9  and  C_23 
REMARK    2  A    between atoms: C_10  and  C_12 
REMARK    3  A    between atoms: C_13  and  C_14 
REMARK    4  A    between atoms: C_17  and  C_20 
REMARK    5  A    between atoms: C_20  and  O_22 
REMARK    6  A    between atoms: C_23  and  N_24 
ROOT
HETATM    1  C   UNK N   1      26.586  28.887  -4.136  0.00  0.00     0.020 C 
HETATM    2  C   UNK N   1      26.917  28.011  -5.333  0.00  0.00    -0.020 C 
HETATM    3  C   UNK N   1      25.597  27.364  -5.756  0.00  0.00     0.015 C 
HETATM    4  C   UNK N   1      25.820  26.146  -6.631  0.00  0.00     0.015 C 
HETATM    5  C   UNK N   1      26.560  25.057  -5.858  0.00  0.00    -0.020 C 
HETATM    6  C   UNK N   1      27.804  25.607  -5.187  0.00  0.00    -0.042 A 
HETATM    7  C   UNK N   1      27.978  26.997  -4.957  0.00  0.00    -0.043 A 
HETATM    8  C   UNK N   1      29.140  27.451  -4.313  0.00  0.00     0.018 A 
HETATM    9  C   UNK N   1      30.116  26.560  -3.877  0.00  0.00    -0.028 A 
HETATM   10  C   UNK N   1      29.934  25.168  -4.113  0.00  0.00    -0.028 A 
HETATM   11  C   UNK N   1      28.785  24.717  -4.749  0.00  0.00     0.020 A 
HETATM   12  C   UNK N   1      26.915  23.973  -6.863  0.00  0.00     0.020 C 
HETATM   13  C   UNK N   1      25.652  24.443  -4.800  0.00  0.00     0.020 C 
HETATM   14  C   UNK N   1      27.448  28.894  -6.449  0.00  0.00     0.020 C 
ENDROOT
BRANCH  10  15
HETATM   15  C   UNK N   1      30.830  24.149  -3.561  0.00  0.00     0.013 C 
HETATM   16  C   UNK N   1      30.411  22.906  -3.374  0.00  0.00     0.012 C 
BRANCH  16  17
HETATM   17  C   UNK N   1      31.306  21.784  -3.532  0.00  0.00    -0.036 A 
HETATM   18  C   UNK N   1      31.017  20.833  -4.507  0.00  0.00     0.012 A 
HETATM   19  C   UNK N   1      31.928  19.812  -4.765  0.00  0.00     0.019 A 
HETATM   20  C   UNK N   1      33.138  19.758  -4.059  0.00  0.00     0.037 A 
HETATM   21  C   UNK N   1      33.441  20.745  -3.116  0.00  0.00     0.019 A 
HETATM   22  C   UNK N   1      32.535  21.761  -2.862  0.00  0.00     0.012 A 
BRANCH  20  23
HETATM   23  C   UNK N   1      34.063  18.639  -4.254  0.00  0.00     0.176 C 
HETATM   24  O   UNK N   1      34.939  18.706  -5.101  0.00  0.00    -0.646 OA
BRANCH  23  25
HETATM   25  O   UNK N   1      33.913  17.510  -3.536  0.00  0.00    -0.773 OA
HETATM   26  H   UNK N   1      34.568  16.858  -3.386  0.00  0.00     0.167 HD
ENDBRANCH  23  25
ENDBRANCH  20  23
ENDBRANCH  16  17
ENDBRANCH  10  15
BRANCH   9  27
HETATM   27  C   UNK N   1      31.257  27.049  -3.009  0.00  0.00     0.187 C 
BRANCH  27  28
HETATM   28  N   UNK N   1      31.445  28.479  -2.893  0.00  0.00    -0.299 N 
HETATM   29  C   UNK N   1      31.165  29.241  -1.829  0.00  0.00     0.112 A 
HETATM   30  C   UNK N   1      31.625  30.519  -2.087  0.00  0.00     0.037 A 
HETATM   31  C   UNK N   1      32.202  30.449  -3.347  0.00  0.00     0.108 A 
HETATM   32  N   UNK N   1      32.084  29.194  -3.807  0.00  0.00    -0.310 N 
ATOM     33  HN  UNK N   1      32.430  28.850  -4.703  1.00  0.00     0.186 HD
ENDBRANCH  27  28
ENDBRANCH   9  27
TORSDOF 6
ENDMDL
MODEL 4
REMARK VINA RESULT:      -8.1      5.306      9.385
REMARK  6 active torsions:
REMARK  status: ('A' for Active; 'I' for Inactive)
REMARK    1  A    between atoms: C_9  and  C_23 
REMARK    2  A    between atoms: C_10  and  C_12 
REMARK    3  A    between atoms: C_13  and  C_14 
REMARK    4  A    between atoms: C_17  and  C_20 
REMARK    5  A    between atoms: C_20  and  O_22 
REMARK    6  A    between atoms: C_23  and  N_24 
ROOT
HETATM    1  C   UNK N   1      26.386  15.955   2.491  0.00  0.00     0.020 C 
HETATM    2  C   UNK N   1      26.062  16.608   3.826  0.00  0.00    -0.020 C 
HETATM    3  C   UNK N   1      25.419  17.953   3.488  0.00  0.00     0.015 C 
HETATM    4  C   UNK N   1      25.442  18.903   4.669  0.00  0.00     0.015 C 
HETATM    5  C   UNK N   1      26.879  19.242   5.057  0.00  0.00    -0.020 C 
HETATM    6  C   UNK N   1      27.716  17.988   5.219  0.00  0.00    -0.042 A 
HETATM    7  C   UNK N   1      27.322  16.747   4.655  0.00  0.00    -0.043 A 
HETATM    8  C   UNK N   1      28.145  15.621   4.817  0.00  0.00     0.018 A 
HETATM    9  C   UNK N   1      29.351  15.705   5.505  0.00  0.00    -0.028 A 
HETATM   10  C   UNK N   1      29.738  16.953   6.069  0.00  0.00    -0.028 A 
HETATM   11  C   UNK N   1      28.927  18.068   5.909  0.00  0.00     0.020 A 
HETATM   12  C   UNK N   1      26.806  20.023   6.360  0.00  0.00     0.020 C 
HETATM   13  C   UNK N   1      27.519  20.138   4.004  0.00  0.00     0.020 C 
HETATM   14  C   UNK N   1      25.073  15.727   4.569  0.00  0.00     0.020 C 
ENDROOT
BRANCH  10  15
HETATM   15  C   UNK N   1      31.053  17.172   6.677  0.00  0.00     0.013 C 
HETATM   16  C   UNK N   1      31.217  17.087   7.990  0.00  0.00     0.012 C 
BRANCH  16  17
HETATM   17  C   UNK N   1      32.449  16.595   8.559  0.00  0.00    -0.036 A 
HETATM   18  C   UNK N   1      33.532  17.465   8.656  0.00  0.00     0.012 A 
HETATM   19  C   UNK N   1      34.688  17.055   9.314  0.00  0.00     0.019 A 
HETATM   20  C   UNK N   1      34.749  15.780   9.894  0.00  0.00     0.037 A 
HETATM   21  C   UNK N   1      33.640  14.931   9.834  0.00  0.00     0.019 A 
HETATM   22  C   UNK N   1      32.489  15.342   9.180  0.00  0.00     0.012 A 
BRANCH  20  23
HETATM   23  C   UNK N   1      35.990  15.301  10.509  0.00  0.00     0.176 C 
HETATM   24  O   UNK N   1      36.124  14.121  10.784  0.00  0.00    -0.646 OA
BRANCH  23  25
HETATM   25  O   UNK N   1      36.965  16.176  10.823  0.00  0.00    -0.773 OA
HETATM   26  H   UNK N   1      37.376  16.781  10.238  0.00  0.00     0.167 HD
ENDBRANCH  23  25
ENDBRANCH  20  23
ENDBRANCH  16  17
ENDBRANCH  10  15
BRANCH   9  27
HETATM   27  C   UNK N   1      30.314  14.536   5.494  0.00  0.00     0.187 C 
BRANCH  27  28
HETATM   28  N   UNK N   1      31.491  14.646   4.659  0.00  0.00    -0.299 N 
HETATM   29  C   UNK N   1      31.543  15.111   3.405  0.00  0.00     0.112 A 
HETATM   30  C   UNK N   1      32.872  15.176   3.029  0.00  0.00     0.037 A 
HETATM   31  C   UNK N   1      33.584  14.743   4.138  0.00  0.00     0.108 A 
HETATM   32  N   UNK N   1      32.717  14.437   5.116  0.00  0.00    -0.310 N 
ATOM     33  HN  UNK N   1      32.959  14.104   6.049  1.00  0.00     0.186 HD
ENDBRANCH  27  28
ENDBRANCH   9  27
TORSDOF 6
ENDMDL
MODEL 5
REMARK VINA RESULT:      -7.8      4.156      8.162
REMARK  6 active torsions:
REMARK  status: ('A' for Active; 'I' for Inactive)
REMARK    1  A    between atoms: C_9  and  C_23 
REMARK    2  A    between atoms: C_10  and  C_12 
REMARK    3  A    between atoms: C_13  and  C_14 
REMARK    4  A    between atoms: C_17  and  C_20 
REMARK    5  A    between atoms: C_20  and  O_22 
REMARK    6  A    between atoms: C_23  and  N_24 
ROOT
HETATM    1  C   UNK N   1      22.132  16.302   5.733  0.00  0.00     0.020 C 
HETATM    2  C   UNK N   1      22.536  16.463   4.276  0.00  0.00    -0.020 C 
HETATM    3  C   UNK N   1      21.810  15.354   3.515  0.00  0.00     0.015 C 
HETATM    4  C   UNK N   1      22.434  15.098   2.157  0.00  0.00     0.015 C 
HETATM    5  C   UNK N   1      23.866  14.593   2.311  0.00  0.00    -0.020 C 
HETATM    6  C   UNK N   1      24.670  15.490   3.234  0.00  0.00    -0.042 A 
HETATM    7  C   UNK N   1      24.044  16.381   4.144  0.00  0.00    -0.043 A 
HETATM    8  C   UNK N   1      24.835  17.174   4.990  0.00  0.00     0.018 A 
HETATM    9  C   UNK N   1      26.223  17.088   4.967  0.00  0.00    -0.028 A 
HETATM   10  C   UNK N   1      26.843  16.193   4.050  0.00  0.00    -0.028 A 
HETATM   11  C   UNK N   1      26.063  15.407   3.213  0.00  0.00     0.020 A 
HETATM   12  C   UNK N   1      24.470  14.562   0.916  0.00  0.00     0.020 C 
HETATM   13  C   UNK N   1      23.876  13.173   2.863  0.00  0.00     0.020 C 
HETATM   14  C   UNK N   1      22.069  17.824   3.791  0.00  0.00     0.020 C 
ENDROOT
BRANCH  10  15
HETATM   15  C   UNK N   1      28.283  15.926   4.057  0.00  0.00     0.013 C 
HETATM   16  C   UNK N   1      29.156  16.902   3.854  0.00  0.00     0.012 C 
BRANCH  16  17
HETATM   17  C   UNK N   1      30.443  16.902   4.508  0.00  0.00    -0.036 A 
HETATM   18  C   UNK N   1      31.562  17.299   3.779  0.00  0.00     0.012 A 
HETATM   19  C   UNK N   1      32.791  17.430   4.420  0.00  0.00     0.019 A 
HETATM   20  C   UNK N   1      32.893  17.183   5.796  0.00  0.00     0.037 A 
HETATM   21  C   UNK N   1      31.756  16.832   6.530  0.00  0.00     0.019 A 
HETATM   22  C   UNK N   1      30.533  16.705   5.891  0.00  0.00     0.012 A 
BRANCH  20  23
HETATM   23  C   UNK N   1      34.196  17.227   6.464  0.00  0.00     0.176 C 
HETATM   24  O   UNK N   1      34.945  16.265   6.413  0.00  0.00    -0.646 OA
BRANCH  23  25
HETATM   25  O   UNK N   1      34.546  18.309   7.185  0.00  0.00    -0.773 OA
HETATM   26  H   UNK N   1      34.048  18.699   7.877  0.00  0.00     0.167 HD
ENDBRANCH  23  25
ENDBRANCH  20  23
ENDBRANCH  16  17
ENDBRANCH  10  15
BRANCH   9  27
HETATM   27  C   UNK N   1      27.046  17.797   6.022  0.00  0.00     0.187 C 
BRANCH  27  28
HETATM   28  N   UNK N   1      27.064  19.244   5.997  0.00  0.00    -0.299 N 
HETATM   29  C   UNK N   1      27.270  20.024   4.929  0.00  0.00     0.112 A 
HETATM   30  C   UNK N   1      27.064  21.336   5.313  0.00  0.00     0.037 A 
HETATM   31  C   UNK N   1      26.710  21.270   6.653  0.00  0.00     0.108 A 
HETATM   32  N   UNK N   1      26.710  19.984   7.037  0.00  0.00    -0.310 N 
ATOM     33  HN  UNK N   1      26.476  19.636   7.967  1.00  0.00     0.186 HD
ENDBRANCH  27  28
ENDBRANCH   9  27
TORSDOF 6
ENDMDL
MODEL 6
REMARK VINA RESULT:      -7.8      5.614      8.768
REMARK  6 active torsions:
REMARK  status: ('A' for Active; 'I' for Inactive)
REMARK    1  A    between atoms: C_9  and  C_23 
REMARK    2  A    between atoms: C_10  and  C_12 
REMARK    3  A    between atoms: C_13  and  C_14 
REMARK    4  A    between atoms: C_17  and  C_20 
REMARK    5  A    between atoms: C_20  and  O_22 
REMARK    6  A    between atoms: C_23  and  N_24 
ROOT
HETATM    1  C   UNK N   1      39.261  12.533   9.300  0.00  0.00     0.020 C 
HETATM    2  C   UNK N   1      38.198  12.137   8.288  0.00  0.00    -0.020 C 
HETATM    3  C   UNK N   1      38.921  12.014   6.947  0.00  0.00     0.015 C 
HETATM    4  C   UNK N   1      37.957  12.064   5.778  0.00  0.00     0.015 C 
HETATM    5  C   UNK N   1      37.252  13.417   5.720  0.00  0.00    -0.020 C 
HETATM    6  C   UNK N   1      36.657  13.786   7.065  0.00  0.00    -0.042 A 
HETATM    7  C   UNK N   1      37.090  13.171   8.270  0.00  0.00    -0.043 A 
HETATM    8  C   UNK N   1      36.520  13.565   9.491  0.00  0.00     0.018 A 
HETATM    9  C   UNK N   1      35.552  14.562   9.544  0.00  0.00    -0.028 A 
HETATM   10  C   UNK N   1      35.123  15.173   8.332  0.00  0.00    -0.028 A 
HETATM   11  C   UNK N   1      35.685  14.786   7.123  0.00  0.00     0.020 A 
HETATM   12  C   UNK N   1      36.171  13.301   4.658  0.00  0.00     0.020 C 
HETATM   13  C   UNK N   1      38.225  14.507   5.289  0.00  0.00     0.020 C 
HETATM   14  C   UNK N   1      37.616  10.795   8.695  0.00  0.00     0.020 C 
ENDROOT
BRANCH  10  15
HETATM   15  C   UNK N   1      34.223  16.328   8.304  0.00  0.00     0.013 C 
HETATM   16  C   UNK N   1      33.386  16.514   7.293  0.00  0.00     0.012 C 
BRANCH  16  17
HETATM   17  C   UNK N   1      32.091  17.118   7.496  0.00  0.00    -0.036 A 
HETATM   18  C   UNK N   1      31.040  16.736   6.665  0.00  0.00     0.012 A 
HETATM   19  C   UNK N   1      29.755  17.207   6.920  0.00  0.00     0.019 A 
HETATM   20  C   UNK N   1      29.521  18.044   8.020  0.00  0.00     0.037 A 
HETATM   21  C   UNK N   1      30.573  18.383   8.877  0.00  0.00     0.019 A 
HETATM   22  C   UNK N   1      31.851  17.912   8.623  0.00  0.00     0.012 A 
BRANCH  20  23
HETATM   23  C   UNK N   1      28.193  18.621   8.246  0.00  0.00     0.176 C 
HETATM   24  O   UNK N   1      27.755  19.471   7.488  0.00  0.00    -0.646 OA
BRANCH  23  25
HETATM   25  O   UNK N   1      27.476  18.254   9.325  0.00  0.00    -0.773 OA
HETATM   26  H   UNK N   1      27.492  18.665  10.167  0.00  0.00     0.167 HD
ENDBRANCH  23  25
ENDBRANCH  20  23
ENDBRANCH  16  17
ENDBRANCH  10  15
BRANCH   9  27
HETATM   27  C   UNK N   1      35.101  15.111  10.882  0.00  0.00     0.187 C 
BRANCH  27  28
HETATM   28  N   UNK N   1      35.339  14.297  12.054  0.00  0.00    -0.299 N 
HETATM   29  C   UNK N   1      36.110  14.609  13.103  0.00  0.00     0.112 A 
HETATM   30  C   UNK N   1      35.948  13.623  14.059  0.00  0.00     0.037 A 
HETATM   31  C   UNK N   1      35.029  12.737  13.514  0.00  0.00     0.108 A 
HETATM   32  N   UNK N   1      34.671  13.180  12.299  0.00  0.00    -0.310 N 
ATOM     33  HN  UNK N   1      33.999  12.735  11.673  1.00  0.00     0.186 HD
ENDBRANCH  27  28
ENDBRANCH   9  27
TORSDOF 6
ENDMDL
MODEL 7
REMARK VINA RESULT:      -7.7     11.023     14.110
REMARK  6 active torsions:
REMARK  status: ('A' for Active; 'I' for Inactive)
REMARK    1  A    between atoms: C_9  and  C_23 
REMARK    2  A    between atoms: C_10  and  C_12 
REMARK    3  A    between atoms: C_13  and  C_14 
REMARK    4  A    between atoms: C_17  and  C_20 
REMARK    5  A    between atoms: C_20  and  O_22 
REMARK    6  A    between atoms: C_23  and  N_24 
ROOT
HETATM    1  C   UNK N   1      35.086  10.415   7.082  0.00  0.00     0.020 C 
HETATM    2  C   UNK N   1      34.995   9.112   7.862  0.00  0.00    -0.020 C 
HETATM    3  C   UNK N   1      33.878   8.305   7.200  0.00  0.00     0.015 C 
HETATM    4  C   UNK N   1      33.366   7.202   8.104  0.00  0.00     0.015 C 
HETATM    5  C   UNK N   1      32.732   7.789   9.362  0.00  0.00    -0.020 C 
HETATM    6  C   UNK N   1      33.654   8.793  10.026  0.00  0.00    -0.042 A 
HETATM    7  C   UNK N   1      34.729   9.401   9.325  0.00  0.00    -0.043 A 
HETATM    8  C   UNK N   1      35.540  10.340   9.982  0.00  0.00     0.018 A 
HETATM    9  C   UNK N   1      35.297  10.701  11.303  0.00  0.00    -0.028 A 
HETATM   10  C   UNK N   1      34.219  10.086  11.999  0.00  0.00    -0.028 A 
HETATM   11  C   UNK N   1      33.415   9.158  11.352  0.00  0.00     0.020 A 
HETATM   12  C   UNK N   1      32.438   6.620  10.289  0.00  0.00     0.020 C 
HETATM   13  C   UNK N   1      31.411   8.470   9.026  0.00  0.00     0.020 C 
HETATM   14  C   UNK N   1      36.318   8.378   7.734  0.00  0.00     0.020 C 
ENDROOT
BRANCH  10  15
HETATM   15  C   UNK N   1      33.797  10.510  13.336  0.00  0.00     0.013 C 
HETATM   16  C   UNK N   1      34.440  10.090  14.417  0.00  0.00     0.012 C 
BRANCH  16  17
HETATM   17  C   UNK N   1      34.574  10.932  15.581  0.00  0.00    -0.036 A 
HETATM   18  C   UNK N   1      34.973  10.350  16.782  0.00  0.00     0.012 A 
HETATM   19  C   UNK N   1      35.232  11.158  17.886  0.00  0.00     0.019 A 
HETATM   20  C   UNK N   1      35.111  12.550  17.780  0.00  0.00     0.037 A 
HETATM   21  C   UNK N   1      34.757  13.129  16.557  0.00  0.00     0.019 A 
HETATM   22  C   UNK N   1      34.502  12.324  15.459  0.00  0.00     0.012 A 
BRANCH  20  23
HETATM   23  C   UNK N   1      35.290  13.404  18.956  0.00  0.00     0.176 C 
HETATM   24  O   UNK N   1      35.329  14.618  18.835  0.00  0.00    -0.646 OA
BRANCH  23  25
HETATM   25  O   UNK N   1      35.470  12.848  20.169  0.00  0.00    -0.773 OA
HETATM   26  H   UNK N   1      35.350  13.272  20.996  0.00  0.00     0.167 HD
ENDBRANCH  23  25
ENDBRANCH  20  23
ENDBRANCH  16  17
ENDBRANCH  10  15
BRANCH   9  27
HETATM   27  C   UNK N   1      36.051  11.858  11.925  0.00  0.00     0.187 C 
BRANCH  27  28
HETATM   28  N   UNK N   1      35.511  13.187  11.738  0.00  0.00    -0.299 N 
HETATM   29  C   UNK N   1      36.106  14.345  12.050  0.00  0.00     0.112 A 
HETATM   30  C   UNK N   1      35.310  15.373  11.580  0.00  0.00     0.037 A 
HETATM   31  C   UNK N   1      34.235  14.748  10.964  0.00  0.00     0.108 A 
HETATM   32  N   UNK N   1      34.392  13.418  11.069  0.00  0.00    -0.310 N 
ATOM     33  HN  UNK N   1      33.759  12.710  10.696  1.00  0.00     0.186 HD
ENDBRANCH  27  28
ENDBRANCH   9  27
TORSDOF 6
ENDMDL
MODEL 8
REMARK VINA RESULT:      -7.7     14.443     18.573
REMARK  6 active torsions:
REMARK  status: ('A' for Active; 'I' for Inactive)
REMARK    1  A    between atoms: C_9  and  C_23 
REMARK    2  A    between atoms: C_10  and  C_12 
REMARK    3  A    between atoms: C_13  and  C_14 
REMARK    4  A    between atoms: C_17  and  C_20 
REMARK    5  A    between atoms: C_20  and  O_22 
REMARK    6  A    between atoms: C_23  and  N_24 
ROOT
HETATM    1  C   UNK N   1      34.302   7.823  24.023  0.00  0.00     0.020 C 
HETATM    2  C   UNK N   1      33.124   8.304  23.190  0.00  0.00    -0.020 C 
HETATM    3  C   UNK N   1      32.169   7.114  23.089  0.00  0.00     0.015 C 
HETATM    4  C   UNK N   1      31.183   7.276  21.950  0.00  0.00     0.015 C 
HETATM    5  C   UNK N   1      31.911   7.307  20.609  0.00  0.00    -0.020 C 
HETATM    6  C   UNK N   1      33.051   8.307  20.624  0.00  0.00    -0.042 A 
HETATM    7  C   UNK N   1      33.608   8.789  21.838  0.00  0.00    -0.043 A 
HETATM    8  C   UNK N   1      34.677   9.698  21.795  0.00  0.00     0.018 A 
HETATM    9  C   UNK N   1      35.213  10.122  20.584  0.00  0.00    -0.028 A 
HETATM   10  C   UNK N   1      34.647   9.635  19.372  0.00  0.00    -0.028 A 
HETATM   11  C   UNK N   1      33.591   8.735  19.411  0.00  0.00     0.020 A 
HETATM   12  C   UNK N   1      30.876   7.674  19.558  0.00  0.00     0.020 C 
HETATM   13  C   UNK N   1      32.462   5.927  20.269  0.00  0.00     0.020 C 
HETATM   14  C   UNK N   1      32.453   9.455  23.918  0.00  0.00     0.020 C 
ENDROOT
BRANCH  10  15
HETATM   15  C   UNK N   1      35.238   9.907  18.059  0.00  0.00     0.013 C 
HETATM   16  C   UNK N   1      34.499   9.863  16.959  0.00  0.00     0.012 C 
BRANCH  16  17
HETATM   17  C   UNK N   1      34.764  10.741  15.845  0.00  0.00    -0.036 A 
HETATM   18  C   UNK N   1      34.194  10.441  14.609  0.00  0.00     0.012 A 
HETATM   19  C   UNK N   1      34.329  11.337  13.553  0.00  0.00     0.019 A 
HETATM   20  C   UNK N   1      35.017  12.544  13.741  0.00  0.00     0.037 A 
HETATM   21  C   UNK N   1      35.543  12.859  14.998  0.00  0.00     0.019 A 
HETATM   22  C   UNK N   1      35.406  11.967  16.049  0.00  0.00     0.012 A 
BRANCH  20  23
HETATM   23  C   UNK N   1      35.246  13.453  12.616  0.00  0.00     0.176 C 
HETATM   24  O   UNK N   1      36.381  13.770  12.303  0.00  0.00    -0.646 OA
BRANCH  23  25
HETATM   25  O   UNK N   1      34.198  13.986  11.958  0.00  0.00    -0.773 OA
HETATM   26  H   UNK N   1      34.152  14.162  11.039  0.00  0.00     0.167 HD
ENDBRANCH  23  25
ENDBRANCH  20  23
ENDBRANCH  16  17
ENDBRANCH  10  15
BRANCH   9  27
HETATM   27  C   UNK N   1      36.488  10.939  20.562  0.00  0.00     0.187 C 
BRANCH  27  28
HETATM   28  N   UNK N   1      37.552  10.542  21.458  0.00  0.00    -0.299 N 
HETATM   29  C   UNK N   1      38.444   9.563  21.259  0.00  0.00     0.112 A 
HETATM   30  C   UNK N   1      39.366   9.612  22.288  0.00  0.00     0.037 A 
HETATM   31  C   UNK N   1      38.972  10.682  23.079  0.00  0.00     0.108 A 
HETATM   32  N   UNK N   1      37.872  11.233  22.542  0.00  0.00    -0.310 N 
ATOM     33  HN  UNK N   1      37.370  12.043  22.906  1.00  0.00     0.186 HD
ENDBRANCH  27  28
ENDBRANCH   9  27
TORSDOF 6
ENDMDL
MODEL 9
REMARK VINA RESULT:      -7.6      2.431      2.865
REMARK  6 active torsions:
REMARK  status: ('A' for Active; 'I' for Inactive)
REMARK    1  A    between atoms: C_9  and  C_23 
REMARK    2  A    between atoms: C_10  and  C_12 
REMARK    3  A    between atoms: C_13  and  C_14 
REMARK    4  A    between atoms: C_17  and  C_20 
REMARK    5  A    between atoms: C_20  and  O_22 
REMARK    6  A    between atoms: C_23  and  N_24 
ROOT
HETATM    1  C   UNK N   1      32.594  17.933   7.560  0.00  0.00     0.020 C 
HETATM    2  C   UNK N   1      32.500  16.556   6.922  0.00  0.00    -0.020 C 
HETATM    3  C   UNK N   1      33.799  16.368   6.138  0.00  0.00     0.015 C 
HETATM    4  C   UNK N   1      33.681  15.265   5.104  0.00  0.00     0.015 C 
HETATM    5  C   UNK N   1      32.637  15.626   4.051  0.00  0.00    -0.020 C 
HETATM    6  C   UNK N   1      31.331  16.052   4.694  0.00  0.00    -0.042 A 
HETATM    7  C   UNK N   1      31.265  16.472   6.048  0.00  0.00    -0.043 A 
HETATM    8  C   UNK N   1      30.034  16.877   6.588  0.00  0.00     0.018 A 
HETATM    9  C   UNK N   1      28.879  16.893   5.812  0.00  0.00    -0.028 A 
HETATM   10  C   UNK N   1      28.954  16.469   4.455  0.00  0.00    -0.028 A 
HETATM   11  C   UNK N   1      30.170  16.069   3.919  0.00  0.00     0.020 A 
HETATM   12  C   UNK N   1      32.442  14.389   3.188  0.00  0.00     0.020 C 
HETATM   13  C   UNK N   1      33.145  16.751   3.159  0.00  0.00     0.020 C 
HETATM   14  C   UNK N   1      32.399  15.517   8.025  0.00  0.00     0.020 C 
ENDROOT
BRANCH  10  15
HETATM   15  C   UNK N   1      27.828  16.593   3.526  0.00  0.00     0.013 C 
HETATM   16  C   UNK N   1      27.327  15.526   2.919  0.00  0.00     0.012 C 
BRANCH  16  17
HETATM   17  C   UNK N   1      25.920  15.434   2.612  0.00  0.00    -0.036 A 
HETATM   18  C   UNK N   1      25.530  14.715   1.484  0.00  0.00     0.012 A 
HETATM   19  C   UNK N   1      24.177  14.503   1.235  0.00  0.00     0.019 A 
HETATM   20  C   UNK N   1      23.216  14.994   2.130  0.00  0.00     0.037 A 
HETATM   21  C   UNK N   1      23.617  15.672   3.285  0.00  0.00     0.019 A 
HETATM   22  C   UNK N   1      24.965  15.880   3.531  0.00  0.00     0.012 A 
BRANCH  20  23
HETATM   23  C   UNK N   1      21.787  14.859   1.834  0.00  0.00     0.176 C 
HETATM   24  O   UNK N   1      21.369  15.083   0.710  0.00  0.00    -0.646 OA
BRANCH  23  25
HETATM   25  O   UNK N   1      20.924  14.543   2.818  0.00  0.00    -0.773 OA
HETATM   26  H   UNK N   1      20.531  13.704   2.962  0.00  0.00     0.167 HD
ENDBRANCH  23  25
ENDBRANCH  20  23
ENDBRANCH  16  17
ENDBRANCH  10  15
BRANCH   9  27
HETATM   27  C   UNK N   1      27.611  17.522   6.351  0.00  0.00     0.187 C 
BRANCH  27  28
HETATM   28  N   UNK N   1      27.468  18.956   6.221  0.00  0.00    -0.299 N 
HETATM   29  C   UNK N   1      27.349  19.650   5.082  0.00  0.00     0.112 A 
HETATM   30  C   UNK N   1      27.094  20.969   5.411  0.00  0.00     0.037 A 
HETATM   31  C   UNK N   1      27.053  20.995   6.798  0.00  0.00     0.108 A 
HETATM   32  N   UNK N   1      27.275  19.755   7.260  0.00  0.00    -0.310 N 
ATOM     33  HN  UNK N   1      27.290  19.475   8.241  1.00  0.00     0.186 HD
ENDBRANCH  27  28
ENDBRANCH   9  27
TORSDOF 6
ENDMDL
