MODEL 1
REMARK VINA RESULT:      -7.9      0.000      0.000
REMARK  5 active torsions:
REMARK  status: ('A' for Active; 'I' for Inactive)
REMARK    1  A    between atoms: C_5  and  C_27 
REMARK    2  A    between atoms: C_6  and  C_8 
REMARK       I    between atoms: C_8  and  N_10 
REMARK    3  A    between atoms: C_12  and  C_17 
REMARK    4  A    between atoms: C_17  and  O_18 
REMARK    5  A    between atoms: O_18  and  C_19 
ROOT
HETATM    1  C   UNK N   1      36.436  15.211   9.971  0.00  0.00     0.255 C 
HETATM    2  O   UNK N   1      36.671  16.131  10.733  0.00  0.00    -0.267 OA
HETATM    3  N   UNK N   1      35.299  15.315   9.185  0.00  0.00    -0.343 N 
HETATM    4  C   UNK N   1      34.522  16.538   9.281  0.00  0.00     0.133 C 
HETATM    5  C   UNK N   1      34.462  17.231   7.923  0.00  0.00     0.028 C 
HETATM    6  C   UNK N   1      34.181  16.258   6.769  0.00  0.00     0.010 C 
HETATM    7  C   UNK N   1      33.788  14.867   7.260  0.00  0.00     0.025 C 
HETATM    8  C   UNK N   1      34.841  14.303   8.228  0.00  0.00     0.083 C 
HETATM    9  C   UNK N   1      34.153  13.157   8.956  0.00  0.00     0.032 C 
ENDROOT
BRANCH   1  10
HETATM   10  C   UNK N   1      37.380  14.014   9.988  0.00  0.00     0.046 A 
HETATM   11  C   UNK N   1      37.393  12.978  11.008  0.00  0.00     0.024 A 
HETATM   12  C   UNK N   1      38.234  11.863  10.813  0.00  0.00     0.017 A 
HETATM   13  C   UNK N   1      39.056  11.739   9.703  0.00  0.00     0.007 A 
HETATM   14  C   UNK N   1      39.075  12.741   8.750  0.00  0.00    -0.061 A 
HETATM   15  C   UNK N   1      39.946  12.618   7.554  0.00  0.00     0.048 C 
HETATM   16  C   UNK N   1      38.248  13.848   8.897  0.00  0.00     0.024 A 
BRANCH  11  17
HETATM   17  C   UNK N   1      36.625  12.951  12.300  0.00  0.00     0.116 A 
HETATM   18  N   UNK N   1      36.892  13.901  13.245  0.00  0.00    -0.352 N 
HETATM   19  C   UNK N   1      36.207  13.951  14.416  0.00  0.00     0.091 A 
ATOM     20  HN  UNK N   1      37.623  14.589  13.065  1.00  0.00     0.166 HD
HETATM   21  C   UNK N   1      35.195  13.030  14.667  0.00  0.00     0.034 A 
HETATM   22  C   UNK N   1      34.910  12.081  13.691  0.00  0.00     0.091 A 
HETATM   23  N   UNK N   1      35.619  12.066  12.532  0.00  0.00    -0.352 N 
ATOM     24  HN  UNK N   1      35.391  11.374  11.818  1.00  0.00     0.166 HD
ENDBRANCH  11  17
ENDBRANCH   1  10
BRANCH   5  25
HETATM   25  C   UNK N   1      33.410  18.318   7.973  0.00  0.00     0.183 C 
BRANCH  25  26
HETATM   26  O   UNK N   1      32.386  17.930   8.806  0.00  0.00    -0.335 OA
BRANCH  26  27
HETATM   27  C   UNK N   1      31.116  17.823   8.361  0.00  0.00     0.141 A 
HETATM   28  C   UNK N   1      30.090  18.497   9.030  0.00  0.00     0.059 A 
HETATM   29  C   UNK N   1      28.781  18.394   8.558  0.00  0.00     0.048 A 
HETATM   30  C   UNK N   1      28.510  17.616   7.431  0.00  0.00     0.131 A 
HETATM   31  C   UNK N   1      29.557  16.953   6.789  0.00  0.00     0.132 A 
HETATM   32  F   UNK N   1      27.246  17.507   6.961  0.00  0.00    -0.205 F 
HETATM   33  N   UNK N   1      30.826  17.069   7.259  0.00  0.00    -0.344 N 
ATOM     34  HN  UNK N   1      31.581  16.581   6.778  1.00  0.00     0.167 HD
ENDBRANCH  26  27
ENDBRANCH  25  26
ENDBRANCH   5  25
TORSDOF 5
ENDMDL
MODEL 2
REMARK VINA RESULT:      -7.9      3.431      8.245
REMARK  5 active torsions:
REMARK  status: ('A' for Active; 'I' for Inactive)
REMARK    1  A    between atoms: C_5  and  C_27 
REMARK    2  A    between atoms: C_6  and  C_8 
REMARK       I    between atoms: C_8  and  N_10 
REMARK    3  A    between atoms: C_12  and  C_17 
REMARK    4  A    between atoms: C_17  and  O_18 
REMARK    5  A    between atoms: O_18  and  C_19 
ROOT
HETATM    1  C   UNK N   1      33.469  17.295   7.569  0.00  0.00     0.255 C 
HETATM    2  O   UNK N   1      33.580  18.407   8.053  0.00  0.00    -0.267 OA
HETATM    3  N   UNK N   1      34.206  16.276   8.151  0.00  0.00    -0.343 N 
HETATM    4  C   UNK N   1      34.991  16.598   9.329  0.00  0.00     0.133 C 
HETATM    5  C   UNK N   1      34.528  15.758  10.516  0.00  0.00     0.028 C 
HETATM    6  C   UNK N   1      34.304  14.284  10.151  0.00  0.00     0.010 C 
HETATM    7  C   UNK N   1      34.820  13.941   8.755  0.00  0.00     0.025 C 
HETATM    8  C   UNK N   1      34.220  14.881   7.697  0.00  0.00     0.083 C 
HETATM    9  C   UNK N   1      35.106  14.732   6.469  0.00  0.00     0.032 C 
ENDROOT
BRANCH   1  10
HETATM   10  C   UNK N   1      32.576  17.138   6.344  0.00  0.00     0.046 A 
HETATM   11  C   UNK N   1      31.137  17.353   6.328  0.00  0.00     0.024 A 
HETATM   12  C   UNK N   1      30.470  17.300   5.088  0.00  0.00     0.017 A 
HETATM   13  C   UNK N   1      31.133  17.028   3.900  0.00  0.00     0.007 A 
HETATM   14  C   UNK N   1      32.494  16.784   3.916  0.00  0.00    -0.061 A 
HETATM   15  C   UNK N   1      33.216  16.497   2.651  0.00  0.00     0.048 C 
HETATM   16  C   UNK N   1      33.191  16.844   5.116  0.00  0.00     0.024 A 
BRANCH  11  17
HETATM   17  C   UNK N   1      30.234  17.605   7.503  0.00  0.00     0.116 A 
HETATM   18  N   UNK N   1      28.965  17.100   7.478  0.00  0.00    -0.352 N 
HETATM   19  C   UNK N   1      28.114  17.263   8.523  0.00  0.00     0.091 A 
ATOM     20  HN  UNK N   1      28.649  16.588   6.654  1.00  0.00     0.166 HD
HETATM   21  C   UNK N   1      28.535  17.943   9.660  0.00  0.00     0.034 A 
HETATM   22  C   UNK N   1      29.837  18.433   9.692  0.00  0.00     0.091 A 
HETATM   23  N   UNK N   1      30.657  18.248   8.624  0.00  0.00    -0.352 N 
ATOM     24  HN  UNK N   1      31.614  18.599   8.665  1.00  0.00     0.166 HD
ENDBRANCH  11  17
ENDBRANCH   1  10
BRANCH   5  25
HETATM   25  C   UNK N   1      35.544  15.882  11.630  0.00  0.00     0.183 C 
BRANCH  25  26
HETATM   26  O   UNK N   1      36.050  14.639  11.934  0.00  0.00    -0.335 OA
BRANCH  26  27
HETATM   27  C   UNK N   1      36.020  14.153  13.194  0.00  0.00     0.141 A 
HETATM   28  C   UNK N   1      35.162  13.095  13.506  0.00  0.00     0.059 A 
HETATM   29  C   UNK N   1      35.145  12.588  14.806  0.00  0.00     0.048 A 
HETATM   30  C   UNK N   1      35.978  13.146  15.778  0.00  0.00     0.131 A 
HETATM   31  C   UNK N   1      36.819  14.205  15.434  0.00  0.00     0.132 A 
HETATM   32  F   UNK N   1      35.973  12.665  17.044  0.00  0.00    -0.205 F 
HETATM   33  N   UNK N   1      36.826  14.681  14.162  0.00  0.00    -0.344 N 
ATOM     34  HN  UNK N   1      37.448  15.454  13.924  1.00  0.00     0.167 HD
ENDBRANCH  26  27
ENDBRANCH  25  26
ENDBRANCH   5  25
TORSDOF 5
ENDMDL
MODEL 3
REMARK VINA RESULT:      -7.9      3.730      9.412
REMARK  5 active torsions:
REMARK  status: ('A' for Active; 'I' for Inactive)
REMARK    1  A    between atoms: C_5  and  C_27 
REMARK    2  A    between atoms: C_6  and  C_8 
REMARK       I    between atoms: C_8  and  N_10 
REMARK    3  A    between atoms: C_12  and  C_17 
REMARK    4  A    between atoms: C_17  and  O_18 
REMARK    5  A    between atoms: O_18  and  C_19 
ROOT
HETATM    1  C   UNK N   1      31.198  16.817   4.295  0.00  0.00     0.255 C 
HETATM    2  O   UNK N   1      31.851  17.613   3.644  0.00  0.00    -0.267 OA
HETATM    3  N   UNK N   1      31.737  16.391   5.498  0.00  0.00    -0.343 N 
HETATM    4  C   UNK N   1      32.996  16.979   5.920  0.00  0.00     0.133 C 
HETATM    5  C   UNK N   1      32.820  17.698   7.255  0.00  0.00     0.028 C 
HETATM    6  C   UNK N   1      32.003  16.883   8.267  0.00  0.00     0.010 C 
HETATM    7  C   UNK N   1      31.756  15.450   7.801  0.00  0.00     0.025 C 
HETATM    8  C   UNK N   1      31.111  15.424   6.406  0.00  0.00     0.083 C 
HETATM    9  C   UNK N   1      31.312  14.007   5.890  0.00  0.00     0.032 C 
ENDROOT
BRANCH   1  10
HETATM   10  C   UNK N   1      29.881  16.326   3.704  0.00  0.00     0.046 A 
HETATM   11  C   UNK N   1      28.601  17.001   3.849  0.00  0.00     0.024 A 
HETATM   12  C   UNK N   1      27.498  16.496   3.131  0.00  0.00     0.017 A 
HETATM   13  C   UNK N   1      27.591  15.373   2.322  0.00  0.00     0.007 A 
HETATM   14  C   UNK N   1      28.797  14.706   2.214  0.00  0.00    -0.061 A 
HETATM   15  C   UNK N   1      28.911  13.506   1.347  0.00  0.00     0.048 C 
HETATM   16  C   UNK N   1      29.912  15.182   2.891  0.00  0.00     0.024 A 
BRANCH  11  17
HETATM   17  C   UNK N   1      28.281  18.190   4.712  0.00  0.00     0.116 A 
HETATM   18  N   UNK N   1      27.880  19.350   4.112  0.00  0.00    -0.352 N 
HETATM   19  C   UNK N   1      27.543  20.446   4.839  0.00  0.00     0.091 A 
ATOM     20  HN  UNK N   1      27.831  19.393   3.094  1.00  0.00     0.166 HD
HETATM   21  C   UNK N   1      27.587  20.398   6.228  0.00  0.00     0.034 A 
HETATM   22  C   UNK N   1      27.971  19.206   6.834  0.00  0.00     0.091 A 
HETATM   23  N   UNK N   1      28.300  18.132   6.070  0.00  0.00    -0.352 N 
ATOM     24  HN  UNK N   1      28.567  17.259   6.526  1.00  0.00     0.166 HD
ENDBRANCH  11  17
ENDBRANCH   1  10
BRANCH   5  25
HETATM   25  C   UNK N   1      34.185  18.030   7.817  0.00  0.00     0.183 C 
BRANCH  25  26
HETATM   26  O   UNK N   1      34.189  17.818   9.176  0.00  0.00    -0.335 OA
BRANCH  26  27
HETATM   27  C   UNK N   1      34.887  16.804   9.731  0.00  0.00     0.141 A 
HETATM   28  C   UNK N   1      35.335  15.752   8.928  0.00  0.00     0.059 A 
HETATM   29  C   UNK N   1      36.068  14.714   9.505  0.00  0.00     0.048 A 
HETATM   30  C   UNK N   1      36.338  14.735  10.874  0.00  0.00     0.131 A 
HETATM   31  C   UNK N   1      35.872  15.798  11.648  0.00  0.00     0.132 A 
HETATM   32  F   UNK N   1      37.048  13.735  11.448  0.00  0.00    -0.205 F 
HETATM   33  N   UNK N   1      35.165  16.803  11.068  0.00  0.00    -0.344 N 
ATOM     34  HN  UNK N   1      34.833  17.575  11.646  1.00  0.00     0.167 HD
ENDBRANCH  26  27
ENDBRANCH  25  26
ENDBRANCH   5  25
TORSDOF 5
ENDMDL
MODEL 4
REMARK VINA RESULT:      -7.9     14.734     19.366
REMARK  5 active torsions:
REMARK  status: ('A' for Active; 'I' for Inactive)
REMARK    1  A    between atoms: C_5  and  C_27 
REMARK    2  A    between atoms: C_6  and  C_8 
REMARK       I    between atoms: C_8  and  N_10 
REMARK    3  A    between atoms: C_12  and  C_17 
REMARK    4  A    between atoms: C_17  and  O_18 
REMARK    5  A    between atoms: O_18  and  C_19 
ROOT
HETATM    1  C   UNK N   1      27.742  24.423  -3.526  0.00  0.00     0.255 C 
HETATM    2  O   UNK N   1      27.164  23.709  -2.727  0.00  0.00    -0.267 OA
HETATM    3  N   UNK N   1      29.114  24.265  -3.639  0.00  0.00    -0.343 N 
HETATM    4  C   UNK N   1      29.740  23.218  -2.851  0.00  0.00     0.133 C 
HETATM    5  C   UNK N   1      30.428  22.210  -3.768  0.00  0.00     0.028 C 
HETATM    6  C   UNK N   1      31.233  22.880  -4.892  0.00  0.00     0.010 C 
HETATM    7  C   UNK N   1      31.361  24.389  -4.700  0.00  0.00     0.025 C 
HETATM    8  C   UNK N   1      29.981  25.045  -4.529  0.00  0.00     0.083 C 
HETATM    9  C   UNK N   1      30.254  26.418  -3.932  0.00  0.00     0.032 C 
ENDROOT
BRANCH   1  10
HETATM   10  C   UNK N   1      26.915  25.453  -4.288  0.00  0.00     0.046 A 
HETATM   11  C   UNK N   1      26.162  25.183  -5.503  0.00  0.00     0.024 A 
HETATM   12  C   UNK N   1      25.337  26.205  -6.015  0.00  0.00     0.017 A 
HETATM   13  C   UNK N   1      25.243  27.453  -5.415  0.00  0.00     0.007 A 
HETATM   14  C   UNK N   1      25.988  27.725  -4.283  0.00  0.00    -0.061 A 
HETATM   15  C   UNK N   1      25.892  29.055  -3.628  0.00  0.00     0.048 C 
HETATM   16  C   UNK N   1      26.799  26.739  -3.737  0.00  0.00     0.024 A 
BRANCH  11  17
HETATM   17  C   UNK N   1      26.169  23.926  -6.328  0.00  0.00     0.116 A 
HETATM   18  N   UNK N   1      27.319  23.569  -6.974  0.00  0.00    -0.352 N 
HETATM   19  C   UNK N   1      27.398  22.428  -7.704  0.00  0.00     0.091 A 
ATOM     20  HN  UNK N   1      28.137  24.175  -6.905  1.00  0.00     0.166 HD
HETATM   21  C   UNK N   1      26.297  21.583  -7.793  0.00  0.00     0.034 A 
HETATM   22  C   UNK N   1      25.137  21.938  -7.111  0.00  0.00     0.091 A 
HETATM   23  N   UNK N   1      25.099  23.090  -6.391  0.00  0.00    -0.352 N 
ATOM     24  HN  UNK N   1      24.247  23.332  -5.885  1.00  0.00     0.166 HD
ENDBRANCH  11  17
ENDBRANCH   1  10
BRANCH   5  25
HETATM   25  C   UNK N   1      31.320  21.318  -2.933  0.00  0.00     0.183 C 
BRANCH  25  26
HETATM   26  O   UNK N   1      32.637  21.654  -3.144  0.00  0.00    -0.335 OA
BRANCH  26  27
HETATM   27  C   UNK N   1      33.515  20.776  -3.675  0.00  0.00     0.141 A 
HETATM   28  C   UNK N   1      34.712  21.242  -4.226  0.00  0.00     0.059 A 
HETATM   29  C   UNK N   1      35.621  20.329  -4.760  0.00  0.00     0.048 A 
HETATM   30  C   UNK N   1      35.323  18.965  -4.745  0.00  0.00     0.131 A 
HETATM   31  C   UNK N   1      34.117  18.534  -4.192  0.00  0.00     0.132 A 
HETATM   32  F   UNK N   1      36.195  18.067  -5.261  0.00  0.00    -0.205 F 
HETATM   33  N   UNK N   1      33.246  19.437  -3.671  0.00  0.00    -0.344 N 
ATOM     34  HN  UNK N   1      32.370  19.107  -3.267  1.00  0.00     0.167 HD
ENDBRANCH  26  27
ENDBRANCH  25  26
ENDBRANCH   5  25
TORSDOF 5
ENDMDL
MODEL 5
REMARK VINA RESULT:      -7.7      3.349      9.296
REMARK  5 active torsions:
REMARK  status: ('A' for Active; 'I' for Inactive)
REMARK    1  A    between atoms: C_5  and  C_27 
REMARK    2  A    between atoms: C_6  and  C_8 
REMARK       I    between atoms: C_8  and  N_10 
REMARK    3  A    between atoms: C_12  and  C_17 
REMARK    4  A    between atoms: C_17  and  O_18 
REMARK    5  A    between atoms: O_18  and  C_19 
ROOT
HETATM    1  C   UNK N   1      30.462  16.912   6.878  0.00  0.00     0.255 C 
HETATM    2  O   UNK N   1      30.045  17.324   7.945  0.00  0.00    -0.267 OA
HETATM    3  N   UNK N   1      31.808  17.105   6.609  0.00  0.00    -0.343 N 
HETATM    4  C   UNK N   1      32.623  17.715   7.644  0.00  0.00     0.133 C 
HETATM    5  C   UNK N   1      33.740  16.763   8.064  0.00  0.00     0.028 C 
HETATM    6  C   UNK N   1      34.433  16.094   6.868  0.00  0.00     0.010 C 
HETATM    7  C   UNK N   1      34.015  16.705   5.533  0.00  0.00     0.025 C 
HETATM    8  C   UNK N   1      32.487  16.698   5.374  0.00  0.00     0.083 C 
HETATM    9  C   UNK N   1      32.189  17.686   4.255  0.00  0.00     0.032 C 
ENDROOT
BRANCH   1  10
HETATM   10  C   UNK N   1      29.462  16.272   5.922  0.00  0.00     0.046 A 
HETATM   11  C   UNK N   1      28.408  16.985   5.219  0.00  0.00     0.024 A 
HETATM   12  C   UNK N   1      27.649  16.278   4.265  0.00  0.00     0.017 A 
HETATM   13  C   UNK N   1      27.859  14.933   3.998  0.00  0.00     0.007 A 
HETATM   14  C   UNK N   1      28.835  14.243   4.693  0.00  0.00    -0.061 A 
HETATM   15  C   UNK N   1      29.073  12.804   4.413  0.00  0.00     0.048 C 
HETATM   16  C   UNK N   1      29.616  14.907   5.629  0.00  0.00     0.024 A 
BRANCH  11  17
HETATM   17  C   UNK N   1      27.988  18.417   5.401  0.00  0.00     0.116 A 
HETATM   18  N   UNK N   1      27.905  19.224   4.301  0.00  0.00    -0.352 N 
HETATM   19  C   UNK N   1      27.498  20.515   4.397  0.00  0.00     0.091 A 
ATOM     20  HN  UNK N   1      28.155  18.847   3.387  1.00  0.00     0.166 HD
HETATM   21  C   UNK N   1      27.137  21.039   5.634  0.00  0.00     0.034 A 
HETATM   22  C   UNK N   1      27.198  20.206   6.746  0.00  0.00     0.091 A 
HETATM   23  N   UNK N   1      27.611  18.919   6.607  0.00  0.00    -0.352 N 
ATOM     24  HN  UNK N   1      27.639  18.314   7.428  1.00  0.00     0.166 HD
ENDBRANCH  11  17
ENDBRANCH   1  10
BRANCH   5  25
HETATM   25  C   UNK N   1      34.743  17.524   8.903  0.00  0.00     0.183 C 
BRANCH  25  26
HETATM   26  O   UNK N   1      34.707  17.061  10.198  0.00  0.00    -0.335 OA
BRANCH  26  27
HETATM   27  C   UNK N   1      35.190  15.843  10.525  0.00  0.00     0.141 A 
HETATM   28  C   UNK N   1      34.389  14.954  11.248  0.00  0.00     0.059 A 
HETATM   29  C   UNK N   1      34.888  13.691  11.572  0.00  0.00     0.048 A 
HETATM   30  C   UNK N   1      36.179  13.335  11.179  0.00  0.00     0.131 A 
HETATM   31  C   UNK N   1      36.954  14.249  10.463  0.00  0.00     0.132 A 
HETATM   32  F   UNK N   1      36.677  12.114  11.486  0.00  0.00    -0.205 F 
HETATM   33  N   UNK N   1      36.450  15.470  10.151  0.00  0.00    -0.344 N 
ATOM     34  HN  UNK N   1      37.026  16.127   9.625  1.00  0.00     0.167 HD
ENDBRANCH  26  27
ENDBRANCH  25  26
ENDBRANCH   5  25
TORSDOF 5
ENDMDL
MODEL 6
REMARK VINA RESULT:      -7.5      3.330      8.953
REMARK  5 active torsions:
REMARK  status: ('A' for Active; 'I' for Inactive)
REMARK    1  A    between atoms: C_5  and  C_27 
REMARK    2  A    between atoms: C_6  and  C_8 
REMARK       I    between atoms: C_8  and  N_10 
REMARK    3  A    between atoms: C_12  and  C_17 
REMARK    4  A    between atoms: C_17  and  O_18 
REMARK    5  A    between atoms: O_18  and  C_19 
ROOT
HETATM    1  C   UNK N   1      32.826  17.290   8.015  0.00  0.00     0.255 C 
HETATM    2  O   UNK N   1      33.540  18.259   7.825  0.00  0.00    -0.267 OA
HETATM    3  N   UNK N   1      33.408  16.184   8.614  0.00  0.00    -0.343 N 
HETATM    4  C   UNK N   1      34.795  16.292   9.030  0.00  0.00     0.133 C 
HETATM    5  C   UNK N   1      34.911  16.078  10.536  0.00  0.00     0.028 C 
HETATM    6  C   UNK N   1      34.074  14.892  11.035  0.00  0.00     0.010 C 
HETATM    7  C   UNK N   1      33.509  14.052   9.892  0.00  0.00     0.025 C 
HETATM    8  C   UNK N   1      32.717  14.923   8.904  0.00  0.00     0.083 C 
HETATM    9  C   UNK N   1      32.587  14.087   7.639  0.00  0.00     0.032 C 
ENDROOT
BRANCH   1  10
HETATM   10  C   UNK N   1      31.382  17.365   7.534  0.00  0.00     0.046 A 
HETATM   11  C   UNK N   1      30.934  17.048   6.187  0.00  0.00     0.024 A 
HETATM   12  C   UNK N   1      29.548  17.035   5.932  0.00  0.00     0.017 A 
HETATM   13  C   UNK N   1      28.611  17.337   6.910  0.00  0.00     0.007 A 
HETATM   14  C   UNK N   1      29.035  17.677   8.181  0.00  0.00    -0.061 A 
HETATM   15  C   UNK N   1      28.042  17.996   9.238  0.00  0.00     0.048 C 
HETATM   16  C   UNK N   1      30.392  17.685   8.477  0.00  0.00     0.024 A 
BRANCH  11  17
HETATM   17  C   UNK N   1      31.785  16.750   4.984  0.00  0.00     0.116 A 
HETATM   18  N   UNK N   1      32.600  15.653   5.010  0.00  0.00    -0.352 N 
HETATM   19  C   UNK N   1      33.365  15.311   3.941  0.00  0.00     0.091 A 
ATOM     20  HN  UNK N   1      32.635  15.079   5.852  1.00  0.00     0.166 HD
HETATM   21  C   UNK N   1      33.315  16.075   2.780  0.00  0.00     0.034 A 
HETATM   22  C   UNK N   1      32.463  17.174   2.749  0.00  0.00     0.091 A 
HETATM   23  N   UNK N   1      31.715  17.482   3.841  0.00  0.00    -0.352 N 
ATOM     24  HN  UNK N   1      31.084  18.283   3.801  1.00  0.00     0.166 HD
ENDBRANCH  11  17
ENDBRANCH   1  10
BRANCH   5  25
HETATM   25  C   UNK N   1      36.369  15.890  10.894  0.00  0.00     0.183 C 
BRANCH  25  26
HETATM   26  O   UNK N   1      36.643  14.548  11.019  0.00  0.00    -0.335 OA
BRANCH  26  27
HETATM   27  C   UNK N   1      36.659  13.939  12.224  0.00  0.00     0.141 A 
HETATM   28  C   UNK N   1      36.735  12.545  12.293  0.00  0.00     0.059 A 
HETATM   29  C   UNK N   1      36.765  11.922  13.542  0.00  0.00     0.048 A 
HETATM   30  C   UNK N   1      36.710  12.695  14.703  0.00  0.00     0.131 A 
HETATM   31  C   UNK N   1      36.628  14.084  14.598  0.00  0.00     0.132 A 
HETATM   32  F   UNK N   1      36.737  12.105  15.921  0.00  0.00    -0.205 F 
HETATM   33  N   UNK N   1      36.607  14.673  13.374  0.00  0.00    -0.344 N 
ATOM     34  HN  UNK N   1      36.551  15.690  13.313  1.00  0.00     0.167 HD
ENDBRANCH  26  27
ENDBRANCH  25  26
ENDBRANCH   5  25
TORSDOF 5
ENDMDL
MODEL 7
REMARK VINA RESULT:      -7.4      7.533     12.001
REMARK  5 active torsions:
REMARK  status: ('A' for Active; 'I' for Inactive)
REMARK    1  A    between atoms: C_5  and  C_27 
REMARK    2  A    between atoms: C_6  and  C_8 
REMARK       I    between atoms: C_8  and  N_10 
REMARK    3  A    between atoms: C_12  and  C_17 
REMARK    4  A    between atoms: C_17  and  O_18 
REMARK    5  A    between atoms: O_18  and  C_19 
ROOT
HETATM    1  C   UNK N   1      25.855  16.577   5.258  0.00  0.00     0.255 C 
HETATM    2  O   UNK N   1      26.197  16.371   6.409  0.00  0.00    -0.267 OA
HETATM    3  N   UNK N   1      25.306  15.513   4.561  0.00  0.00    -0.343 N 
HETATM    4  C   UNK N   1      25.118  14.263   5.276  0.00  0.00     0.133 C 
HETATM    5  C   UNK N   1      23.640  13.883   5.290  0.00  0.00     0.028 C 
HETATM    6  C   UNK N   1      22.964  14.069   3.924  0.00  0.00     0.010 C 
HETATM    7  C   UNK N   1      23.966  14.360   2.810  0.00  0.00     0.025 C 
HETATM    8  C   UNK N   1      24.857  15.562   3.166  0.00  0.00     0.083 C 
HETATM    9  C   UNK N   1      26.048  15.481   2.222  0.00  0.00     0.032 C 
ENDROOT
BRANCH   1  10
HETATM   10  C   UNK N   1      26.108  17.965   4.679  0.00  0.00     0.046 A 
HETATM   11  C   UNK N   1      27.417  18.579   4.527  0.00  0.00     0.024 A 
HETATM   12  C   UNK N   1      27.499  19.812   3.849  0.00  0.00     0.017 A 
HETATM   13  C   UNK N   1      26.378  20.461   3.351  0.00  0.00     0.007 A 
HETATM   14  C   UNK N   1      25.128  19.899   3.528  0.00  0.00    -0.061 A 
HETATM   15  C   UNK N   1      23.921  20.581   2.996  0.00  0.00     0.048 C 
HETATM   16  C   UNK N   1      25.007  18.676   4.176  0.00  0.00     0.024 A 
BRANCH  11  17
HETATM   17  C   UNK N   1      28.736  18.068   5.038  0.00  0.00     0.116 A 
HETATM   18  N   UNK N   1      28.872  17.823   6.376  0.00  0.00    -0.352 N 
HETATM   19  C   UNK N   1      30.026  17.328   6.893  0.00  0.00     0.091 A 
ATOM     20  HN  UNK N   1      28.089  18.016   7.000  1.00  0.00     0.166 HD
HETATM   21  C   UNK N   1      31.097  17.043   6.052  0.00  0.00     0.034 A 
HETATM   22  C   UNK N   1      30.943  17.270   4.688  0.00  0.00     0.091 A 
HETATM   23  N   UNK N   1      29.772  17.766   4.211  0.00  0.00    -0.352 N 
ATOM     24  HN  UNK N   1      29.667  17.915   3.208  1.00  0.00     0.166 HD
ENDBRANCH  11  17
ENDBRANCH   1  10
BRANCH   5  25
HETATM   25  C   UNK N   1      23.507  12.451   5.760  0.00  0.00     0.183 C 
BRANCH  25  26
HETATM   26  O   UNK N   1      22.317  12.295   6.433  0.00  0.00    -0.335 OA
BRANCH  26  27
HETATM   27  C   UNK N   1      22.267  12.272   7.782  0.00  0.00     0.141 A 
HETATM   28  C   UNK N   1      21.310  13.041   8.451  0.00  0.00     0.059 A 
HETATM   29  C   UNK N   1      21.253  13.003   9.845  0.00  0.00     0.048 A 
HETATM   30  C   UNK N   1      22.154  12.206  10.553  0.00  0.00     0.131 A 
HETATM   31  C   UNK N   1      23.100  11.455   9.854  0.00  0.00     0.132 A 
HETATM   32  F   UNK N   1      22.112  12.159  11.905  0.00  0.00    -0.205 F 
HETATM   33  N   UNK N   1      23.136  11.499   8.497  0.00  0.00    -0.344 N 
ATOM     34  HN  UNK N   1      23.831  10.942   8.000  1.00  0.00     0.167 HD
ENDBRANCH  26  27
ENDBRANCH  25  26
ENDBRANCH   5  25
TORSDOF 5
ENDMDL
MODEL 8
REMARK VINA RESULT:      -7.3      3.943      8.136
REMARK  5 active torsions:
REMARK  status: ('A' for Active; 'I' for Inactive)
REMARK    1  A    between atoms: C_5  and  C_27 
REMARK    2  A    between atoms: C_6  and  C_8 
REMARK       I    between atoms: C_8  and  N_10 
REMARK    3  A    between atoms: C_12  and  C_17 
REMARK    4  A    between atoms: C_17  and  O_18 
REMARK    5  A    between atoms: O_18  and  C_19 
ROOT
HETATM    1  C   UNK N   1      34.859  14.352  10.799  0.00  0.00     0.255 C 
HETATM    2  O   UNK N   1      34.152  14.782  11.693  0.00  0.00    -0.267 OA
HETATM    3  N   UNK N   1      36.066  13.780  11.168  0.00  0.00    -0.343 N 
HETATM    4  C   UNK N   1      36.359  13.677  12.587  0.00  0.00     0.133 C 
HETATM    5  C   UNK N   1      36.546  12.214  12.980  0.00  0.00     0.028 C 
HETATM    6  C   UNK N   1      37.414  11.435  11.981  0.00  0.00     0.010 C 
HETATM    7  C   UNK N   1      38.088  12.345  10.957  0.00  0.00     0.025 C 
HETATM    8  C   UNK N   1      37.056  13.228  10.237  0.00  0.00     0.083 C 
HETATM    9  C   UNK N   1      37.858  14.348   9.591  0.00  0.00     0.032 C 
ENDROOT
BRANCH   1  10
HETATM   10  C   UNK N   1      34.376  14.525   9.364  0.00  0.00     0.046 A 
HETATM   11  C   UNK N   1      33.788  13.474   8.550  0.00  0.00     0.024 A 
HETATM   12  C   UNK N   1      33.266  13.822   7.288  0.00  0.00     0.017 A 
HETATM   13  C   UNK N   1      33.320  15.118   6.795  0.00  0.00     0.007 A 
HETATM   14  C   UNK N   1      33.914  16.113   7.550  0.00  0.00    -0.061 A 
HETATM   15  C   UNK N   1      33.973  17.505   7.037  0.00  0.00     0.048 C 
HETATM   16  C   UNK N   1      34.424  15.813   8.806  0.00  0.00     0.024 A 
BRANCH  11  17
HETATM   17  C   UNK N   1      33.684  12.010   8.875  0.00  0.00     0.116 A 
HETATM   18  N   UNK N   1      34.767  11.207   8.652  0.00  0.00    -0.352 N 
HETATM   19  C   UNK N   1      34.747   9.885   8.959  0.00  0.00     0.091 A 
ATOM     20  HN  UNK N   1      35.610  11.611   8.245  1.00  0.00     0.166 HD
HETATM   21  C   UNK N   1      33.610   9.323   9.531  0.00  0.00     0.034 A 
HETATM   22  C   UNK N   1      32.520  10.150   9.781  0.00  0.00     0.091 A 
HETATM   23  N   UNK N   1      32.581  11.468   9.458  0.00  0.00    -0.352 N 
ATOM     24  HN  UNK N   1      31.780  12.067   9.659  1.00  0.00     0.166 HD
ENDBRANCH  11  17
ENDBRANCH   1  10
BRANCH   5  25
HETATM   25  C   UNK N   1      37.145  12.152  14.368  0.00  0.00     0.183 C 
BRANCH  25  26
HETATM   26  O   UNK N   1      36.340  11.392  15.184  0.00  0.00    -0.335 OA
BRANCH  26  27
HETATM   27  C   UNK N   1      35.922  11.846  16.385  0.00  0.00     0.141 A 
HETATM   28  C   UNK N   1      35.805  10.957  17.457  0.00  0.00     0.059 A 
HETATM   29  C   UNK N   1      35.385  11.434  18.700  0.00  0.00     0.048 A 
HETATM   30  C   UNK N   1      35.081  12.787  18.855  0.00  0.00     0.131 A 
HETATM   31  C   UNK N   1      35.204  13.646  17.763  0.00  0.00     0.132 A 
HETATM   32  F   UNK N   1      34.673  13.265  20.054  0.00  0.00    -0.205 F 
HETATM   33  N   UNK N   1      35.619  13.166  16.563  0.00  0.00    -0.344 N 
ATOM     34  HN  UNK N   1      35.707  13.806  15.773  1.00  0.00     0.167 HD
ENDBRANCH  26  27
ENDBRANCH  25  26
ENDBRANCH   5  25
TORSDOF 5
ENDMDL
MODEL 9
REMARK VINA RESULT:      -7.2      9.986     15.220
REMARK  5 active torsions:
REMARK  status: ('A' for Active; 'I' for Inactive)
REMARK    1  A    between atoms: C_5  and  C_27 
REMARK    2  A    between atoms: C_6  and  C_8 
REMARK       I    between atoms: C_8  and  N_10 
REMARK    3  A    between atoms: C_12  and  C_17 
REMARK    4  A    between atoms: C_17  and  O_18 
REMARK    5  A    between atoms: O_18  and  C_19 
ROOT
HETATM    1  C   UNK N   1      22.805  14.199   1.363  0.00  0.00     0.255 C 
HETATM    2  O   UNK N   1      23.502  14.335   0.373  0.00  0.00    -0.267 OA
HETATM    3  N   UNK N   1      23.396  14.447   2.591  0.00  0.00    -0.343 N 
HETATM    4  C   UNK N   1      24.771  14.915   2.596  0.00  0.00     0.133 C 
HETATM    5  C   UNK N   1      24.858  16.287   3.260  0.00  0.00     0.028 C 
HETATM    6  C   UNK N   1      24.035  16.375   4.554  0.00  0.00     0.010 C 
HETATM    7  C   UNK N   1      23.515  15.015   5.011  0.00  0.00     0.025 C 
HETATM    8  C   UNK N   1      22.727  14.318   3.890  0.00  0.00     0.083 C 
HETATM    9  C   UNK N   1      22.643  12.855   4.299  0.00  0.00     0.032 C 
ENDROOT
BRANCH   1  10
HETATM   10  C   UNK N   1      21.370  13.724   1.163  0.00  0.00     0.046 A 
HETATM   11  C   UNK N   1      20.191  14.569   1.262  0.00  0.00     0.024 A 
HETATM   12  C   UNK N   1      18.943  14.013   0.918  0.00  0.00     0.017 A 
HETATM   13  C   UNK N   1      18.804  12.691   0.517  0.00  0.00     0.007 A 
HETATM   14  C   UNK N   1      19.918  11.874   0.460  0.00  0.00    -0.061 A 
HETATM   15  C   UNK N   1      19.785  10.460   0.027  0.00  0.00     0.048 C 
HETATM   16  C   UNK N   1      21.169  12.390   0.775  0.00  0.00     0.024 A 
BRANCH  11  17
HETATM   17  C   UNK N   1      20.121  15.998   1.725  0.00  0.00     0.116 A 
HETATM   18  N   UNK N   1      20.303  16.996   0.809  0.00  0.00    -0.352 N 
HETATM   19  C   UNK N   1      20.217  18.305   1.158  0.00  0.00     0.091 A 
ATOM     20  HN  UNK N   1      20.508  16.751  -0.160  1.00  0.00     0.166 HD
HETATM   21  C   UNK N   1      19.920  18.654   2.471  0.00  0.00     0.034 A 
HETATM   22  C   UNK N   1      19.710  17.634   3.394  0.00  0.00     0.091 A 
HETATM   23  N   UNK N   1      19.806  16.337   3.003  0.00  0.00    -0.352 N 
ATOM     24  HN  UNK N   1      19.636  15.598   3.686  1.00  0.00     0.166 HD
ENDBRANCH  11  17
ENDBRANCH   1  10
BRANCH   5  25
HETATM   25  C   UNK N   1      26.311  16.610   3.529  0.00  0.00     0.183 C 
BRANCH  25  26
HETATM   26  O   UNK N   1      26.472  16.940   4.855  0.00  0.00    -0.335 OA
BRANCH  26  27
HETATM   27  C   UNK N   1      26.830  18.186   5.234  0.00  0.00     0.141 A 
HETATM   28  C   UNK N   1      26.805  19.227   4.301  0.00  0.00     0.059 A 
HETATM   29  C   UNK N   1      27.163  20.514   4.702  0.00  0.00     0.048 A 
HETATM   30  C   UNK N   1      27.548  20.746   6.024  0.00  0.00     0.131 A 
HETATM   31  C   UNK N   1      27.568  19.684   6.928  0.00  0.00     0.132 A 
HETATM   32  F   UNK N   1      27.898  21.990   6.428  0.00  0.00    -0.205 F 
HETATM   33  N   UNK N   1      27.210  18.438   6.522  0.00  0.00    -0.344 N 
ATOM     34  HN  UNK N   1      27.226  17.672   7.195  1.00  0.00     0.167 HD
ENDBRANCH  26  27
ENDBRANCH  25  26
ENDBRANCH   5  25
TORSDOF 5
ENDMDL
