MODEL 1
REMARK VINA RESULT:      -5.7      0.000      0.000
REMARK  15 active torsions:
REMARK  status: ('A' for Active; 'I' for Inactive)
REMARK    1  A    between atoms: C_4  and  C_7 
REMARK    2  A    between atoms: C_7  and  C_8 
REMARK    3  A    between atoms: C_8  and  O_9 
REMARK    4  A    between atoms: O_9  and  C_10 
REMARK    5  A    between atoms: C_10  and  C_11 
REMARK    6  A    between atoms: C_11  and  C_12 
REMARK    7  A    between atoms: C_12  and  C_13 
REMARK    8  A    between atoms: C_13  and  C_14 
REMARK    9  A    between atoms: C_14  and  C_15 
REMARK   10  A    between atoms: C_15  and  N_16 
REMARK   11  A    between atoms: N_16  and  C_17 
REMARK   12  A    between atoms: C_17  and  C_18 
REMARK   13  A    between atoms: C_18  and  C_19 
REMARK   14  A    between atoms: C_18  and  O_31 
REMARK   15  A    between atoms: C_22  and  O_30 
ROOT
HETATM    1  N   UNK N   1      26.213  24.273 -10.098  0.00  0.00    -0.418 N 
HETATM    2  H   UNK N   1      26.575  24.977 -10.741  0.00  0.00     0.153 HD
ENDROOT
BRANCH   1   3
HETATM    3  C   UNK N   1      26.397  22.832 -10.217  0.00  0.00     0.113 C 
BRANCH   3   4
HETATM    4  C   UNK N   1      27.716  22.418  -9.579  0.00  0.00     0.019 C 
BRANCH   4   5
HETATM    5  C   UNK N   1      27.501  21.328  -8.543  0.00  0.00     0.002 C 
BRANCH   5   6
HETATM    6  C   UNK N   1      28.486  21.481  -7.392  0.00  0.00     0.002 C 
BRANCH   6   7
HETATM    7  C   UNK N   1      29.374  20.254  -7.278  0.00  0.00     0.026 C 
BRANCH   7   8
HETATM    8  C   UNK N   1      30.571  20.529  -6.377  0.00  0.00     0.168 C 
BRANCH   8   9
HETATM    9  O   UNK N   1      30.133  21.055  -5.157  0.00  0.00    -0.385 OA
BRANCH   9  10
HETATM   10  C   UNK N   1      31.023  22.076  -4.793  0.00  0.00     0.252 C 
BRANCH  10  11
HETATM   11  C   UNK N   1      30.402  23.066  -3.801  0.00  0.00     0.291 C 
HETATM   12  F   UNK N   1      31.238  23.226  -2.708  0.00  0.00    -0.198 F 
HETATM   13  F   UNK N   1      29.186  22.573  -3.360  0.00  0.00    -0.198 F 
BRANCH  11  14
HETATM   14  C   UNK N   1      30.189  24.394  -4.467  0.00  0.00     0.015 A 
HETATM   15  C   UNK N   1      29.995  24.472  -5.854  0.00  0.00     0.013 A 
HETATM   16  C   UNK N   1      29.802  25.713  -6.468  0.00  0.00     0.001 A 
HETATM   17  C   UNK N   1      29.796  26.881  -5.700  0.00  0.00     0.000 A 
HETATM   18  C   UNK N   1      29.984  26.811  -4.318  0.00  0.00     0.001 A 
HETATM   19  C   UNK N   1      30.181  25.573  -3.704  0.00  0.00     0.013 A 
ENDBRANCH  11  14
ENDBRANCH  10  11
ENDBRANCH   9  10
ENDBRANCH   8   9
ENDBRANCH   7   8
ENDBRANCH   6   7
ENDBRANCH   5   6
ENDBRANCH   4   5
ENDBRANCH   3   4
ENDBRANCH   1   3
BRANCH   1  20
HETATM   20  C   UNK N   1      25.429  24.529  -8.909  0.00  0.00     0.150 C 
BRANCH  20  21
HETATM   21  C   UNK N   1      25.938  25.766  -8.180  0.00  0.00     0.169 C 
BRANCH  21  22
HETATM   22  C   UNK N   1      26.079  25.411  -6.719  0.00  0.00    -0.015 A 
HETATM   23  C   UNK N   1      26.104  24.041  -6.422  0.00  0.00     0.013 A 
HETATM   24  C   UNK N   1      26.275  23.587  -5.119  0.00  0.00     0.039 A 
HETATM   25  C   UNK N   1      26.427  24.495  -4.076  0.00  0.00     0.093 A 
HETATM   26  C   UNK N   1      26.396  25.873  -4.332  0.00  0.00     0.079 A 
HETATM   27  C   UNK N   1      26.218  26.346  -5.658  0.00  0.00     0.003 A 
HETATM   28  N   UNK N   1      26.549  26.755  -3.309  0.00  0.00    -0.321 N 
HETATM   29  C   UNK N   1      26.204  27.731  -5.872  0.00  0.00     0.020 A 
HETATM   30  C   UNK N   1      26.360  28.614  -4.806  0.00  0.00     0.075 A 
HETATM   31  C   UNK N   1      26.535  28.110  -3.518  0.00  0.00     0.245 A 
HETATM   32  O   UNK N   1      26.676  28.871  -2.581  0.00  0.00    -0.268 OA
HETATM   33  H   UNK N   1      26.673  26.412  -2.395  0.00  0.00     0.169 HD
BRANCH  25  34
HETATM   34  O   UNK N   1      26.607  24.039  -2.825  0.00  0.00    -0.358 OA
HETATM   35  H   UNK N   1      27.427  23.657  -2.579  0.00  0.00     0.217 HD
ENDBRANCH  25  34
ENDBRANCH  21  22
BRANCH  21  36
HETATM   36  O   UNK N   1      27.108  26.226  -8.789  0.00  0.00    -0.389 OA
HETATM   37  H   UNK N   1      27.970  26.039  -8.388  0.00  0.00     0.210 HD
ENDBRANCH  21  36
ENDBRANCH  20  21
ENDBRANCH   1  20
TORSDOF 15
ENDMDL
MODEL 2
REMARK VINA RESULT:      -5.7     12.421     15.197
REMARK  15 active torsions:
REMARK  status: ('A' for Active; 'I' for Inactive)
REMARK    1  A    between atoms: C_4  and  C_7 
REMARK    2  A    between atoms: C_7  and  C_8 
REMARK    3  A    between atoms: C_8  and  O_9 
REMARK    4  A    between atoms: O_9  and  C_10 
REMARK    5  A    between atoms: C_10  and  C_11 
REMARK    6  A    between atoms: C_11  and  C_12 
REMARK    7  A    between atoms: C_12  and  C_13 
REMARK    8  A    between atoms: C_13  and  C_14 
REMARK    9  A    between atoms: C_14  and  C_15 
REMARK   10  A    between atoms: C_15  and  N_16 
REMARK   11  A    between atoms: N_16  and  C_17 
REMARK   12  A    between atoms: C_17  and  C_18 
REMARK   13  A    between atoms: C_18  and  C_19 
REMARK   14  A    between atoms: C_18  and  O_31 
REMARK   15  A    between atoms: C_22  and  O_30 
ROOT
HETATM    1  N   UNK N   1      30.934  18.384   9.103  0.00  0.00    -0.418 N 
HETATM    2  H   UNK N   1      31.054  19.372   9.326  0.00  0.00     0.153 HD
ENDROOT
BRANCH   1   3
HETATM    3  C   UNK N   1      31.980  17.475   8.652  0.00  0.00     0.113 C 
BRANCH   3   4
HETATM    4  C   UNK N   1      33.116  18.261   8.012  0.00  0.00     0.019 C 
BRANCH   4   5
HETATM    5  C   UNK N   1      34.420  17.483   8.078  0.00  0.00     0.002 C 
BRANCH   5   6
HETATM    6  C   UNK N   1      34.648  16.940   9.482  0.00  0.00     0.002 C 
BRANCH   6   7
HETATM    7  C   UNK N   1      34.962  15.453   9.438  0.00  0.00     0.026 C 
BRANCH   7   8
HETATM    8  C   UNK N   1      35.040  14.955   8.001  0.00  0.00     0.168 C 
BRANCH   8   9
HETATM    9  O   UNK N   1      34.219  13.833   7.845  0.00  0.00    -0.385 OA
BRANCH   9  10
HETATM   10  C   UNK N   1      33.974  13.676   6.473  0.00  0.00     0.252 C 
BRANCH  10  11
HETATM   11  C   UNK N   1      32.542  14.065   6.086  0.00  0.00     0.291 C 
HETATM   12  F   UNK N   1      31.849  14.485   7.209  0.00  0.00    -0.198 F 
HETATM   13  F   UNK N   1      31.896  12.964   5.552  0.00  0.00    -0.198 F 
BRANCH  11  14
HETATM   14  C   UNK N   1      32.568  15.169   5.070  0.00  0.00     0.015 A 
HETATM   15  C   UNK N   1      33.283  15.018   3.873  0.00  0.00     0.013 A 
HETATM   16  C   UNK N   1      33.306  16.054   2.933  0.00  0.00     0.001 A 
HETATM   17  C   UNK N   1      32.611  17.241   3.182  0.00  0.00     0.000 A 
HETATM   18  C   UNK N   1      31.894  17.396   4.370  0.00  0.00     0.001 A 
HETATM   19  C   UNK N   1      31.872  16.365   5.310  0.00  0.00     0.013 A 
ENDBRANCH  11  14
ENDBRANCH  10  11
ENDBRANCH   9  10
ENDBRANCH   8   9
ENDBRANCH   7   8
ENDBRANCH   6   7
ENDBRANCH   5   6
ENDBRANCH   4   5
ENDBRANCH   3   4
ENDBRANCH   1   3
BRANCH   1  20
HETATM   20  C   UNK N   1      29.695  17.639   9.179  0.00  0.00     0.150 C 
BRANCH  20  21
HETATM   21  C   UNK N   1      28.547  18.433   8.571  0.00  0.00     0.169 C 
BRANCH  21  22
HETATM   22  C   UNK N   1      28.341  17.933   7.161  0.00  0.00    -0.015 A 
HETATM   23  C   UNK N   1      28.639  16.580   6.942  0.00  0.00     0.013 A 
HETATM   24  C   UNK N   1      28.448  15.990   5.697  0.00  0.00     0.039 A 
HETATM   25  C   UNK N   1      27.950  16.739   4.637  0.00  0.00     0.093 A 
HETATM   26  C   UNK N   1      27.651  18.097   4.814  0.00  0.00     0.079 A 
HETATM   27  C   UNK N   1      27.847  18.710   6.079  0.00  0.00     0.003 A 
HETATM   28  N   UNK N   1      27.161  18.824   3.774  0.00  0.00    -0.321 N 
HETATM   29  C   UNK N   1      27.525  20.067   6.216  0.00  0.00     0.020 A 
HETATM   30  C   UNK N   1      27.028  20.790   5.134  0.00  0.00     0.075 A 
HETATM   31  C   UNK N   1      26.847  20.152   3.907  0.00  0.00     0.245 A 
HETATM   32  O   UNK N   1      26.410  20.771   2.958  0.00  0.00    -0.268 OA
HETATM   33  H   UNK N   1      27.029  18.385   2.903  0.00  0.00     0.169 HD
BRANCH  25  34
HETATM   34  O   UNK N   1      27.756  16.149   3.446  0.00  0.00    -0.358 OA
HETATM   35  H   UNK N   1      28.464  16.083   2.835  0.00  0.00     0.217 HD
ENDBRANCH  25  34
ENDBRANCH  21  22
BRANCH  21  36
HETATM   36  O   UNK N   1      27.423  18.347   9.395  0.00  0.00    -0.389 OA
HETATM   37  H   UNK N   1      27.098  17.480   9.685  0.00  0.00     0.210 HD
ENDBRANCH  21  36
ENDBRANCH  20  21
ENDBRANCH   1  20
TORSDOF 15
ENDMDL
MODEL 3
REMARK VINA RESULT:      -5.5     15.889     19.091
REMARK  15 active torsions:
REMARK  status: ('A' for Active; 'I' for Inactive)
REMARK    1  A    between atoms: C_4  and  C_7 
REMARK    2  A    between atoms: C_7  and  C_8 
REMARK    3  A    between atoms: C_8  and  O_9 
REMARK    4  A    between atoms: O_9  and  C_10 
REMARK    5  A    between atoms: C_10  and  C_11 
REMARK    6  A    between atoms: C_11  and  C_12 
REMARK    7  A    between atoms: C_12  and  C_13 
REMARK    8  A    between atoms: C_13  and  C_14 
REMARK    9  A    between atoms: C_14  and  C_15 
REMARK   10  A    between atoms: C_15  and  N_16 
REMARK   11  A    between atoms: N_16  and  C_17 
REMARK   12  A    between atoms: C_17  and  C_18 
REMARK   13  A    between atoms: C_18  and  C_19 
REMARK   14  A    between atoms: C_18  and  O_31 
REMARK   15  A    between atoms: C_22  and  O_30 
ROOT
HETATM    1  N   UNK N   1      32.629  12.957   6.926  0.00  0.00    -0.418 N 
HETATM    2  H   UNK N   1      31.856  13.226   7.532  0.00  0.00     0.153 HD
ENDROOT
BRANCH   1   3
HETATM    3  C   UNK N   1      32.810  13.363   5.537  0.00  0.00     0.113 C 
BRANCH   3   4
HETATM    4  C   UNK N   1      33.819  14.499   5.451  0.00  0.00     0.019 C 
BRANCH   4   5
HETATM    5  C   UNK N   1      33.433  15.488   4.363  0.00  0.00     0.002 C 
BRANCH   5   6
HETATM    6  C   UNK N   1      33.327  16.896   4.933  0.00  0.00     0.002 C 
BRANCH   6   7
HETATM    7  C   UNK N   1      32.034  17.559   4.488  0.00  0.00     0.026 C 
BRANCH   7   8
HETATM    8  C   UNK N   1      30.823  16.774   4.974  0.00  0.00     0.168 C 
BRANCH   8   9
HETATM    9  O   UNK N   1      30.102  17.540   5.897  0.00  0.00    -0.385 OA
BRANCH   9  10
HETATM   10  C   UNK N   1      29.887  16.743   7.031  0.00  0.00     0.252 C 
BRANCH  10  11
HETATM   11  C   UNK N   1      30.389  17.409   8.318  0.00  0.00     0.291 C 
HETATM   12  F   UNK N   1      29.781  16.827   9.417  0.00  0.00    -0.198 F 
HETATM   13  F   UNK N   1      30.065  18.754   8.293  0.00  0.00    -0.198 F 
BRANCH  11  14
HETATM   14  C   UNK N   1      31.878  17.256   8.428  0.00  0.00     0.015 A 
HETATM   15  C   UNK N   1      32.441  16.029   8.807  0.00  0.00     0.013 A 
HETATM   16  C   UNK N   1      33.829  15.896   8.912  0.00  0.00     0.001 A 
HETATM   17  C   UNK N   1      34.660  16.985   8.634  0.00  0.00     0.000 A 
HETATM   18  C   UNK N   1      34.106  18.208   8.252  0.00  0.00     0.001 A 
HETATM   19  C   UNK N   1      32.721  18.344   8.150  0.00  0.00     0.013 A 
ENDBRANCH  11  14
ENDBRANCH  10  11
ENDBRANCH   9  10
ENDBRANCH   8   9
ENDBRANCH   7   8
ENDBRANCH   6   7
ENDBRANCH   5   6
ENDBRANCH   4   5
ENDBRANCH   3   4
ENDBRANCH   1   3
BRANCH   1  20
HETATM   20  C   UNK N   1      33.741  12.105   7.291  0.00  0.00     0.150 C 
BRANCH  20  21
HETATM   21  C   UNK N   1      33.861  11.991   8.806  0.00  0.00     0.169 C 
BRANCH  21  22
HETATM   22  C   UNK N   1      35.122  12.711   9.220  0.00  0.00    -0.015 A 
HETATM   23  C   UNK N   1      35.943  13.159   8.175  0.00  0.00     0.013 A 
HETATM   24  C   UNK N   1      37.108  13.874   8.427  0.00  0.00     0.039 A 
HETATM   25  C   UNK N   1      37.483  14.163   9.734  0.00  0.00     0.093 A 
HETATM   26  C   UNK N   1      36.694  13.723  10.807  0.00  0.00     0.079 A 
HETATM   27  C   UNK N   1      35.505  12.988  10.559  0.00  0.00     0.003 A 
HETATM   28  N   UNK N   1      37.064  14.011  12.083  0.00  0.00    -0.321 N 
HETATM   29  C   UNK N   1      34.739  12.577  11.659  0.00  0.00     0.020 A 
HETATM   30  C   UNK N   1      35.142  12.882  12.958  0.00  0.00     0.075 A 
HETATM   31  C   UNK N   1      36.316  13.608  13.158  0.00  0.00     0.245 A 
HETATM   32  O   UNK N   1      36.675  13.884  14.286  0.00  0.00    -0.268 OA
HETATM   33  H   UNK N   1      37.890  14.523  12.238  0.00  0.00     0.169 HD
BRANCH  25  34
HETATM   34  O   UNK N   1      38.604  14.869   9.959  0.00  0.00    -0.358 OA
HETATM   35  H   UNK N   1      38.649  15.457  10.687  0.00  0.00     0.217 HD
ENDBRANCH  25  34
ENDBRANCH  21  22
BRANCH  21  36
HETATM   36  O   UNK N   1      32.691  12.459   9.409  0.00  0.00    -0.389 OA
HETATM   37  H   UNK N   1      32.111  13.074   8.933  0.00  0.00     0.210 HD
ENDBRANCH  21  36
ENDBRANCH  20  21
ENDBRANCH   1  20
TORSDOF 15
ENDMDL
MODEL 4
REMARK VINA RESULT:      -5.5      3.033      5.722
REMARK  15 active torsions:
REMARK  status: ('A' for Active; 'I' for Inactive)
REMARK    1  A    between atoms: C_4  and  C_7 
REMARK    2  A    between atoms: C_7  and  C_8 
REMARK    3  A    between atoms: C_8  and  O_9 
REMARK    4  A    between atoms: O_9  and  C_10 
REMARK    5  A    between atoms: C_10  and  C_11 
REMARK    6  A    between atoms: C_11  and  C_12 
REMARK    7  A    between atoms: C_12  and  C_13 
REMARK    8  A    between atoms: C_13  and  C_14 
REMARK    9  A    between atoms: C_14  and  C_15 
REMARK   10  A    between atoms: C_15  and  N_16 
REMARK   11  A    between atoms: N_16  and  C_17 
REMARK   12  A    between atoms: C_17  and  C_18 
REMARK   13  A    between atoms: C_18  and  C_19 
REMARK   14  A    between atoms: C_18  and  O_31 
REMARK   15  A    between atoms: C_22  and  O_30 
ROOT
HETATM    1  N   UNK N   1      30.535  20.307  -8.312  0.00  0.00    -0.418 N 
HETATM    2  H   UNK N   1      30.801  19.709  -9.094  0.00  0.00     0.153 HD
ENDROOT
BRANCH   1   3
HETATM    3  C   UNK N   1      29.762  21.539  -8.401  0.00  0.00     0.113 C 
BRANCH   3   4
HETATM    4  C   UNK N   1      28.542  21.458  -7.493  0.00  0.00     0.019 C 
BRANCH   4   5
HETATM    5  C   UNK N   1      28.051  22.847  -7.119  0.00  0.00     0.002 C 
BRANCH   5   6
HETATM    6  C   UNK N   1      28.114  23.049  -5.612  0.00  0.00     0.002 C 
BRANCH   6   7
HETATM    7  C   UNK N   1      27.782  24.487  -5.248  0.00  0.00     0.026 C 
BRANCH   7   8
HETATM    8  C   UNK N   1      27.419  24.607  -3.774  0.00  0.00     0.168 C 
BRANCH   8   9
HETATM    9  O   UNK N   1      26.221  25.317  -3.638  0.00  0.00    -0.385 OA
BRANCH   9  10
HETATM   10  C   UNK N   1      25.852  25.772  -4.912  0.00  0.00     0.252 C 
BRANCH  10  11
HETATM   11  C   UNK N   1      25.447  27.251  -4.910  0.00  0.00     0.291 C 
HETATM   12  F   UNK N   1      25.211  27.673  -3.612  0.00  0.00    -0.198 F 
HETATM   13  F   UNK N   1      24.285  27.410  -5.645  0.00  0.00    -0.198 F 
BRANCH  11  14
HETATM   14  C   UNK N   1      26.539  28.083  -5.517  0.00  0.00     0.015 A 
HETATM   15  C   UNK N   1      26.981  29.252  -4.879  0.00  0.00     0.013 A 
HETATM   16  C   UNK N   1      27.996  30.023  -5.454  0.00  0.00     0.001 A 
HETATM   17  C   UNK N   1      28.576  29.630  -6.664  0.00  0.00     0.000 A 
HETATM   18  C   UNK N   1      28.143  28.466  -7.301  0.00  0.00     0.001 A 
HETATM   19  C   UNK N   1      27.128  27.696  -6.731  0.00  0.00     0.013 A 
ENDBRANCH  11  14
ENDBRANCH  10  11
ENDBRANCH   9  10
ENDBRANCH   8   9
ENDBRANCH   7   8
ENDBRANCH   6   7
ENDBRANCH   5   6
ENDBRANCH   4   5
ENDBRANCH   3   4
ENDBRANCH   1   3
BRANCH   1  20
HETATM   20  C   UNK N   1      30.859  20.081  -6.920  0.00  0.00     0.150 C 
BRANCH  20  21
HETATM   21  C   UNK N   1      31.971  21.016  -6.463  0.00  0.00     0.169 C 
BRANCH  21  22
HETATM   22  C   UNK N   1      31.516  21.678  -5.184  0.00  0.00    -0.015 A 
HETATM   23  C   UNK N   1      31.080  20.814  -4.169  0.00  0.00     0.013 A 
HETATM   24  C   UNK N   1      30.680  21.299  -2.929  0.00  0.00     0.039 A 
HETATM   25  C   UNK N   1      30.706  22.665  -2.671  0.00  0.00     0.093 A 
HETATM   26  C   UNK N   1      31.125  23.561  -3.664  0.00  0.00     0.079 A 
HETATM   27  C   UNK N   1      31.532  23.076  -4.934  0.00  0.00     0.003 A 
HETATM   28  N   UNK N   1      31.152  24.896  -3.404  0.00  0.00    -0.321 N 
HETATM   29  C   UNK N   1      31.954  24.005  -5.895  0.00  0.00     0.020 A 
HETATM   30  C   UNK N   1      31.969  25.368  -5.604  0.00  0.00     0.075 A 
HETATM   31  C   UNK N   1      31.564  25.805  -4.344  0.00  0.00     0.245 A 
HETATM   32  O   UNK N   1      31.577  26.990  -4.078  0.00  0.00    -0.268 OA
HETATM   33  H   UNK N   1      30.868  25.217  -2.518  0.00  0.00     0.169 HD
BRANCH  25  34
HETATM   34  O   UNK N   1      30.331  23.115  -1.462  0.00  0.00    -0.358 OA
HETATM   35  H   UNK N   1      30.908  23.026  -0.729  0.00  0.00     0.217 HD
ENDBRANCH  25  34
ENDBRANCH  21  22
BRANCH  21  36
HETATM   36  O   UNK N   1      33.172  20.310  -6.366  0.00  0.00    -0.389 OA
HETATM   37  H   UNK N   1      33.469  19.972  -5.507  0.00  0.00     0.210 HD
ENDBRANCH  21  36
ENDBRANCH  20  21
ENDBRANCH   1  20
TORSDOF 15
ENDMDL
MODEL 5
REMARK VINA RESULT:      -5.4     12.059     14.598
REMARK  15 active torsions:
REMARK  status: ('A' for Active; 'I' for Inactive)
REMARK    1  A    between atoms: C_4  and  C_7 
REMARK    2  A    between atoms: C_7  and  C_8 
REMARK    3  A    between atoms: C_8  and  O_9 
REMARK    4  A    between atoms: O_9  and  C_10 
REMARK    5  A    between atoms: C_10  and  C_11 
REMARK    6  A    between atoms: C_11  and  C_12 
REMARK    7  A    between atoms: C_12  and  C_13 
REMARK    8  A    between atoms: C_13  and  C_14 
REMARK    9  A    between atoms: C_14  and  C_15 
REMARK   10  A    between atoms: C_15  and  N_16 
REMARK   11  A    between atoms: N_16  and  C_17 
REMARK   12  A    between atoms: C_17  and  C_18 
REMARK   13  A    between atoms: C_18  and  C_19 
REMARK   14  A    between atoms: C_18  and  O_31 
REMARK   15  A    between atoms: C_22  and  O_30 
ROOT
HETATM    1  N   UNK N   1      26.852  16.207   3.381  0.00  0.00    -0.418 N 
HETATM    2  H   UNK N   1      26.432  16.728   2.611  0.00  0.00     0.153 HD
ENDROOT
BRANCH   1   3
HETATM    3  C   UNK N   1      26.132  15.585   4.486  0.00  0.00     0.113 C 
BRANCH   3   4
HETATM    4  C   UNK N   1      25.137  16.570   5.083  0.00  0.00     0.019 C 
BRANCH   4   5
HETATM    5  C   UNK N   1      24.458  17.384   3.994  0.00  0.00     0.002 C 
BRANCH   5   6
HETATM    6  C   UNK N   1      23.723  18.575   4.595  0.00  0.00     0.002 C 
BRANCH   6   7
HETATM    7  C   UNK N   1      23.091  19.422   3.503  0.00  0.00     0.026 C 
BRANCH   7   8
HETATM    8  C   UNK N   1      21.576  19.466   3.656  0.00  0.00     0.168 C 
BRANCH   8   9
HETATM    9  O   UNK N   1      20.983  18.590   2.739  0.00  0.00    -0.385 OA
BRANCH   9  10
HETATM   10  C   UNK N   1      20.179  17.700   3.465  0.00  0.00     0.252 C 
BRANCH  10  11
HETATM   11  C   UNK N   1      20.684  16.255   3.381  0.00  0.00     0.291 C 
HETATM   12  F   UNK N   1      21.688  16.161   2.432  0.00  0.00    -0.198 F 
HETATM   13  F   UNK N   1      19.642  15.425   3.007  0.00  0.00    -0.198 F 
BRANCH  11  14
HETATM   14  C   UNK N   1      21.214  15.818   4.716  0.00  0.00     0.015 A 
HETATM   15  C   UNK N   1      20.949  16.573   5.868  0.00  0.00     0.013 A 
HETATM   16  C   UNK N   1      21.450  16.162   7.107  0.00  0.00     0.001 A 
HETATM   17  C   UNK N   1      22.213  14.994   7.202  0.00  0.00     0.000 A 
HETATM   18  C   UNK N   1      22.478  14.237   6.060  0.00  0.00     0.001 A 
HETATM   19  C   UNK N   1      21.982  14.647   4.822  0.00  0.00     0.013 A 
ENDBRANCH  11  14
ENDBRANCH  10  11
ENDBRANCH   9  10
ENDBRANCH   8   9
ENDBRANCH   7   8
ENDBRANCH   6   7
ENDBRANCH   5   6
ENDBRANCH   4   5
ENDBRANCH   3   4
ENDBRANCH   1   3
BRANCH   1  20
HETATM   20  C   UNK N   1      28.265  15.956   3.568  0.00  0.00     0.150 C 
BRANCH  20  21
HETATM   21  C   UNK N   1      29.018  17.257   3.814  0.00  0.00     0.169 C 
BRANCH  21  22
HETATM   22  C   UNK N   1      28.737  17.687   5.234  0.00  0.00    -0.015 A 
HETATM   23  C   UNK N   1      29.305  16.891   6.239  0.00  0.00     0.013 A 
HETATM   24  C   UNK N   1      29.157  17.209   7.584  0.00  0.00     0.039 A 
HETATM   25  C   UNK N   1      28.435  18.337   7.960  0.00  0.00     0.093 A 
HETATM   26  C   UNK N   1      27.843  19.152   6.986  0.00  0.00     0.079 A 
HETATM   27  C   UNK N   1      27.986  18.833   5.610  0.00  0.00     0.003 A 
HETATM   28  N   UNK N   1      27.142  20.255   7.360  0.00  0.00    -0.321 N 
HETATM   29  C   UNK N   1      27.388  19.680   4.667  0.00  0.00     0.020 A 
HETATM   30  C   UNK N   1      26.672  20.803   5.077  0.00  0.00     0.075 A 
HETATM   31  C   UNK N   1      26.556  21.083   6.438  0.00  0.00     0.245 A 
HETATM   32  O   UNK N   1      25.938  22.062   6.807  0.00  0.00    -0.268 OA
HETATM   33  H   UNK N   1      27.054  20.464   8.318  0.00  0.00     0.169 HD
BRANCH  25  34
HETATM   34  O   UNK N   1      28.315  18.638   9.264  0.00  0.00    -0.358 OA
HETATM   35  H   UNK N   1      28.403  19.527   9.550  0.00  0.00     0.217 HD
ENDBRANCH  25  34
ENDBRANCH  21  22
BRANCH  21  36
HETATM   36  O   UNK N   1      30.370  17.085   3.508  0.00  0.00    -0.389 OA
HETATM   37  H   UNK N   1      30.958  16.641   4.137  0.00  0.00     0.210 HD
ENDBRANCH  21  36
ENDBRANCH  20  21
ENDBRANCH   1  20
TORSDOF 15
ENDMDL
MODEL 6
REMARK VINA RESULT:      -5.4     17.372     19.952
REMARK  15 active torsions:
REMARK  status: ('A' for Active; 'I' for Inactive)
REMARK    1  A    between atoms: C_4  and  C_7 
REMARK    2  A    between atoms: C_7  and  C_8 
REMARK    3  A    between atoms: C_8  and  O_9 
REMARK    4  A    between atoms: O_9  and  C_10 
REMARK    5  A    between atoms: C_10  and  C_11 
REMARK    6  A    between atoms: C_11  and  C_12 
REMARK    7  A    between atoms: C_12  and  C_13 
REMARK    8  A    between atoms: C_13  and  C_14 
REMARK    9  A    between atoms: C_14  and  C_15 
REMARK   10  A    between atoms: C_15  and  N_16 
REMARK   11  A    between atoms: N_16  and  C_17 
REMARK   12  A    between atoms: C_17  and  C_18 
REMARK   13  A    between atoms: C_18  and  C_19 
REMARK   14  A    between atoms: C_18  and  O_31 
REMARK   15  A    between atoms: C_22  and  O_30 
ROOT
HETATM    1  N   UNK N   1      34.276  15.890   6.426  0.00  0.00    -0.418 N 
HETATM    2  H   UNK N   1      34.491  16.048   5.442  0.00  0.00     0.153 HD
ENDROOT
BRANCH   1   3
HETATM    3  C   UNK N   1      35.092  15.136   7.370  0.00  0.00     0.113 C 
BRANCH   3   4
HETATM    4  C   UNK N   1      34.917  15.695   8.775  0.00  0.00     0.019 C 
BRANCH   4   5
HETATM    5  C   UNK N   1      35.818  14.972   9.763  0.00  0.00     0.002 C 
BRANCH   5   6
HETATM    6  C   UNK N   1      36.076  15.840  10.987  0.00  0.00     0.002 C 
BRANCH   6   7
HETATM    7  C   UNK N   1      35.627  15.130  12.253  0.00  0.00     0.026 C 
BRANCH   7   8
HETATM    8  C   UNK N   1      34.886  13.842  11.923  0.00  0.00     0.168 C 
BRANCH   8   9
HETATM    9  O   UNK N   1      34.742  13.068  13.080  0.00  0.00    -0.385 OA
BRANCH   9  10
HETATM   10  C   UNK N   1      36.027  12.825  13.588  0.00  0.00     0.252 C 
BRANCH  10  11
HETATM   11  C   UNK N   1      35.997  12.328  15.039  0.00  0.00     0.291 C 
HETATM   12  F   UNK N   1      37.019  11.417  15.246  0.00  0.00    -0.198 F 
HETATM   13  F   UNK N   1      34.788  11.700  15.284  0.00  0.00    -0.198 F 
BRANCH  11  14
HETATM   14  C   UNK N   1      36.158  13.486  15.980  0.00  0.00     0.015 A 
HETATM   15  C   UNK N   1      37.062  14.519  15.690  0.00  0.00     0.013 A 
HETATM   16  C   UNK N   1      37.209  15.591  16.575  0.00  0.00     0.001 A 
HETATM   17  C   UNK N   1      36.452  15.641  17.750  0.00  0.00     0.000 A 
HETATM   18  C   UNK N   1      35.548  14.617  18.042  0.00  0.00     0.001 A 
HETATM   19  C   UNK N   1      35.402  13.544  17.162  0.00  0.00     0.013 A 
ENDBRANCH  11  14
ENDBRANCH  10  11
ENDBRANCH   9  10
ENDBRANCH   8   9
ENDBRANCH   7   8
ENDBRANCH   6   7
ENDBRANCH   5   6
ENDBRANCH   4   5
ENDBRANCH   3   4
ENDBRANCH   1   3
BRANCH   1  20
HETATM   20  C   UNK N   1      33.108  16.375   7.131  0.00  0.00     0.150 C 
BRANCH  20  21
HETATM   21  C   UNK N   1      31.951  16.604   6.167  0.00  0.00     0.169 C 
BRANCH  21  22
HETATM   22  C   UNK N   1      30.734  16.955   6.989  0.00  0.00    -0.015 A 
HETATM   23  C   UNK N   1      30.981  17.634   8.191  0.00  0.00     0.013 A 
HETATM   24  C   UNK N   1      29.941  18.050   9.014  0.00  0.00     0.039 A 
HETATM   25  C   UNK N   1      28.621  17.800   8.654  0.00  0.00     0.093 A 
HETATM   26  C   UNK N   1      28.333  17.115   7.465  0.00  0.00     0.079 A 
HETATM   27  C   UNK N   1      29.389  16.681   6.621  0.00  0.00     0.003 A 
HETATM   28  N   UNK N   1      27.041  16.876   7.117  0.00  0.00    -0.321 N 
HETATM   29  C   UNK N   1      29.058  16.009   5.437  0.00  0.00     0.020 A 
HETATM   30  C   UNK N   1      27.725  15.774   5.104  0.00  0.00     0.075 A 
HETATM   31  C   UNK N   1      26.717  16.217   5.959  0.00  0.00     0.245 A 
HETATM   32  O   UNK N   1      25.551  16.022   5.677  0.00  0.00    -0.268 OA
HETATM   33  H   UNK N   1      26.320  17.184   7.712  0.00  0.00     0.169 HD
BRANCH  25  34
HETATM   34  O   UNK N   1      27.627  18.224   9.452  0.00  0.00    -0.358 OA
HETATM   35  H   UNK N   1      26.876  18.646   9.083  0.00  0.00     0.217 HD
ENDBRANCH  25  34
ENDBRANCH  21  22
BRANCH  21  36
HETATM   36  O   UNK N   1      32.312  17.559   5.214  0.00  0.00    -0.389 OA
HETATM   37  H   UNK N   1      32.196  17.372   4.270  0.00  0.00     0.210 HD
ENDBRANCH  21  36
ENDBRANCH  20  21
ENDBRANCH   1  20
TORSDOF 15
ENDMDL
MODEL 7
REMARK VINA RESULT:      -5.4      2.459      5.988
REMARK  15 active torsions:
REMARK  status: ('A' for Active; 'I' for Inactive)
REMARK    1  A    between atoms: C_4  and  C_7 
REMARK    2  A    between atoms: C_7  and  C_8 
REMARK    3  A    between atoms: C_8  and  O_9 
REMARK    4  A    between atoms: O_9  and  C_10 
REMARK    5  A    between atoms: C_10  and  C_11 
REMARK    6  A    between atoms: C_11  and  C_12 
REMARK    7  A    between atoms: C_12  and  C_13 
REMARK    8  A    between atoms: C_13  and  C_14 
REMARK    9  A    between atoms: C_14  and  C_15 
REMARK   10  A    between atoms: C_15  and  N_16 
REMARK   11  A    between atoms: N_16  and  C_17 
REMARK   12  A    between atoms: C_17  and  C_18 
REMARK   13  A    between atoms: C_18  and  C_19 
REMARK   14  A    between atoms: C_18  and  O_31 
REMARK   15  A    between atoms: C_22  and  O_30 
ROOT
HETATM    1  N   UNK N   1      26.451  24.403  -7.691  0.00  0.00    -0.418 N 
HETATM    2  H   UNK N   1      26.441  23.947  -8.602  0.00  0.00     0.153 HD
ENDROOT
BRANCH   1   3
HETATM    3  C   UNK N   1      26.019  25.767  -7.410  0.00  0.00     0.113 C 
BRANCH   3   4
HETATM    4  C   UNK N   1      25.570  25.886  -5.960  0.00  0.00     0.019 C 
BRANCH   4   5
HETATM    5  C   UNK N   1      25.021  27.274  -5.674  0.00  0.00     0.002 C 
BRANCH   5   6
HETATM    6  C   UNK N   1      26.033  28.099  -4.891  0.00  0.00     0.002 C 
BRANCH   6   7
HETATM    7  C   UNK N   1      27.074  28.696  -5.823  0.00  0.00     0.026 C 
BRANCH   7   8
HETATM    8  C   UNK N   1      27.765  29.888  -5.175  0.00  0.00     0.168 C 
BRANCH   8   9
HETATM    9  O   UNK N   1      28.477  29.467  -4.046  0.00  0.00    -0.385 OA
BRANCH   9  10
HETATM   10  C   UNK N   1      29.655  28.852  -4.494  0.00  0.00     0.252 C 
BRANCH  10  11
HETATM   11  C   UNK N   1      29.891  27.489  -3.831  0.00  0.00     0.291 C 
HETATM   12  F   UNK N   1      28.683  26.944  -3.431  0.00  0.00    -0.198 F 
HETATM   13  F   UNK N   1      30.693  27.655  -2.715  0.00  0.00    -0.198 F 
BRANCH  11  14
HETATM   14  C   UNK N   1      30.567  26.560  -4.797  0.00  0.00     0.015 A 
HETATM   15  C   UNK N   1      30.107  26.448  -6.117  0.00  0.00     0.013 A 
HETATM   16  C   UNK N   1      30.739  25.576  -7.009  0.00  0.00     0.001 A 
HETATM   17  C   UNK N   1      31.835  24.816  -6.589  0.00  0.00     0.000 A 
HETATM   18  C   UNK N   1      32.300  24.926  -5.277  0.00  0.00     0.001 A 
HETATM   19  C   UNK N   1      31.669  25.793  -4.384  0.00  0.00     0.013 A 
ENDBRANCH  11  14
ENDBRANCH  10  11
ENDBRANCH   9  10
ENDBRANCH   8   9
ENDBRANCH   7   8
ENDBRANCH   6   7
ENDBRANCH   5   6
ENDBRANCH   4   5
ENDBRANCH   3   4
ENDBRANCH   1   3
BRANCH   1  20
HETATM   20  C   UNK N   1      26.895  23.809  -6.447  0.00  0.00     0.150 C 
BRANCH  20  21
HETATM   21  C   UNK N   1      28.128  22.942  -6.671  0.00  0.00     0.169 C 
BRANCH  21  22
HETATM   22  C   UNK N   1      28.870  22.855  -5.359  0.00  0.00    -0.015 A 
HETATM   23  C   UNK N   1      28.403  23.690  -4.334  0.00  0.00     0.013 A 
HETATM   24  C   UNK N   1      28.974  23.669  -3.067  0.00  0.00     0.039 A 
HETATM   25  C   UNK N   1      30.030  22.807  -2.790  0.00  0.00     0.093 A 
HETATM   26  C   UNK N   1      30.532  21.964  -3.792  0.00  0.00     0.079 A 
HETATM   27  C   UNK N   1      29.958  21.982  -5.090  0.00  0.00     0.003 A 
HETATM   28  N   UNK N   1      31.562  21.121  -3.514  0.00  0.00    -0.321 N 
HETATM   29  C   UNK N   1      30.483  21.116  -6.059  0.00  0.00     0.020 A 
HETATM   30  C   UNK N   1      31.541  20.264  -5.750  0.00  0.00     0.075 A 
HETATM   31  C   UNK N   1      32.076  20.275  -4.462  0.00  0.00     0.245 A 
HETATM   32  O   UNK N   1      32.997  19.533  -4.180  0.00  0.00    -0.268 OA
HETATM   33  H   UNK N   1      31.949  21.119  -2.609  0.00  0.00     0.169 HD
BRANCH  25  34
HETATM   34  O   UNK N   1      30.559  22.787  -1.556  0.00  0.00    -0.358 OA
HETATM   35  H   UNK N   1      31.479  22.926  -1.438  0.00  0.00     0.217 HD
ENDBRANCH  25  34
ENDBRANCH  21  22
BRANCH  21  36
HETATM   36  O   UNK N   1      27.748  21.713  -7.216  0.00  0.00    -0.389 OA
HETATM   37  H   UNK N   1      26.966  21.252  -6.875  0.00  0.00     0.210 HD
ENDBRANCH  21  36
ENDBRANCH  20  21
ENDBRANCH   1  20
TORSDOF 15
ENDMDL
MODEL 8
REMARK VINA RESULT:      -5.4      3.079      6.620
REMARK  15 active torsions:
REMARK  status: ('A' for Active; 'I' for Inactive)
REMARK    1  A    between atoms: C_4  and  C_7 
REMARK    2  A    between atoms: C_7  and  C_8 
REMARK    3  A    between atoms: C_8  and  O_9 
REMARK    4  A    between atoms: O_9  and  C_10 
REMARK    5  A    between atoms: C_10  and  C_11 
REMARK    6  A    between atoms: C_11  and  C_12 
REMARK    7  A    between atoms: C_12  and  C_13 
REMARK    8  A    between atoms: C_13  and  C_14 
REMARK    9  A    between atoms: C_14  and  C_15 
REMARK   10  A    between atoms: C_15  and  N_16 
REMARK   11  A    between atoms: N_16  and  C_17 
REMARK   12  A    between atoms: C_17  and  C_18 
REMARK   13  A    between atoms: C_18  and  C_19 
REMARK   14  A    between atoms: C_18  and  O_31 
REMARK   15  A    between atoms: C_22  and  O_30 
ROOT
HETATM    1  N   UNK N   1      29.761  24.428  -8.032  0.00  0.00    -0.418 N 
HETATM    2  H   UNK N   1      30.150  23.776  -8.712  0.00  0.00     0.153 HD
ENDROOT
BRANCH   1   3
HETATM    3  C   UNK N   1      30.344  25.706  -7.641  0.00  0.00     0.113 C 
BRANCH   3   4
HETATM    4  C   UNK N   1      29.349  26.502  -6.807  0.00  0.00     0.019 C 
BRANCH   4   5
HETATM    5  C   UNK N   1      30.062  27.539  -5.955  0.00  0.00     0.002 C 
BRANCH   5   6
HETATM    6  C   UNK N   1      30.584  26.909  -4.671  0.00  0.00     0.002 C 
BRANCH   6   7
HETATM    7  C   UNK N   1      30.107  27.689  -3.457  0.00  0.00     0.026 C 
BRANCH   7   8
HETATM    8  C   UNK N   1      30.343  29.181  -3.641  0.00  0.00     0.168 C 
BRANCH   8   9
HETATM    9  O   UNK N   1      29.174  29.886  -3.333  0.00  0.00    -0.385 OA
BRANCH   9  10
HETATM   10  C   UNK N   1      28.153  28.946  -3.134  0.00  0.00     0.252 C 
BRANCH  10  11
HETATM   11  C   UNK N   1      26.989  29.130  -4.115  0.00  0.00     0.291 C 
HETATM   12  F   UNK N   1      27.412  29.850  -5.219  0.00  0.00    -0.198 F 
HETATM   13  F   UNK N   1      25.971  29.832  -3.492  0.00  0.00    -0.198 F 
BRANCH  11  14
HETATM   14  C   UNK N   1      26.473  27.791  -4.556  0.00  0.00     0.015 A 
HETATM   15  C   UNK N   1      26.519  26.690  -3.688  0.00  0.00     0.013 A 
HETATM   16  C   UNK N   1      26.041  25.445  -4.108  0.00  0.00     0.001 A 
HETATM   17  C   UNK N   1      25.511  25.295  -5.393  0.00  0.00     0.000 A 
HETATM   18  C   UNK N   1      25.459  26.388  -6.260  0.00  0.00     0.001 A 
HETATM   19  C   UNK N   1      25.938  27.631  -5.844  0.00  0.00     0.013 A 
ENDBRANCH  11  14
ENDBRANCH  10  11
ENDBRANCH   9  10
ENDBRANCH   8   9
ENDBRANCH   7   8
ENDBRANCH   6   7
ENDBRANCH   5   6
ENDBRANCH   4   5
ENDBRANCH   3   4
ENDBRANCH   1   3
BRANCH   1  20
HETATM   20  C   UNK N   1      28.533  24.249  -7.287  0.00  0.00     0.150 C 
BRANCH  20  21
HETATM   21  C   UNK N   1      28.418  22.822  -6.766  0.00  0.00     0.169 C 
BRANCH  21  22
HETATM   22  C   UNK N   1      29.169  22.752  -5.458  0.00  0.00    -0.015 A 
HETATM   23  C   UNK N   1      28.757  23.653  -4.465  0.00  0.00     0.013 A 
HETATM   24  C   UNK N   1      29.341  23.655  -3.203  0.00  0.00     0.039 A 
HETATM   25  C   UNK N   1      30.353  22.752  -2.899  0.00  0.00     0.093 A 
HETATM   26  C   UNK N   1      30.800  21.842  -3.868  0.00  0.00     0.079 A 
HETATM   27  C   UNK N   1      30.214  21.836  -5.161  0.00  0.00     0.003 A 
HETATM   28  N   UNK N   1      31.789  20.959  -3.564  0.00  0.00    -0.321 N 
HETATM   29  C   UNK N   1      30.683  20.903  -6.097  0.00  0.00     0.020 A 
HETATM   30  C   UNK N   1      31.699  20.011  -5.761  0.00  0.00     0.075 A 
HETATM   31  C   UNK N   1      32.248  20.048  -4.480  0.00  0.00     0.245 A 
HETATM   32  O   UNK N   1      33.132  19.272  -4.174  0.00  0.00    -0.268 OA
HETATM   33  H   UNK N   1      32.184  20.975  -2.663  0.00  0.00     0.169 HD
BRANCH  25  34
HETATM   34  O   UNK N   1      30.895  22.756  -1.670  0.00  0.00    -0.358 OA
HETATM   35  H   UNK N   1      31.617  23.322  -1.478  0.00  0.00     0.217 HD
ENDBRANCH  25  34
ENDBRANCH  21  22
BRANCH  21  36
HETATM   36  O   UNK N   1      27.074  22.452  -6.693  0.00  0.00    -0.389 OA
HETATM   37  H   UNK N   1      26.379  23.124  -6.778  0.00  0.00     0.210 HD
ENDBRANCH  21  36
ENDBRANCH  20  21
ENDBRANCH   1  20
TORSDOF 15
ENDMDL
MODEL 9
REMARK VINA RESULT:      -5.3     14.061     16.536
REMARK  15 active torsions:
REMARK  status: ('A' for Active; 'I' for Inactive)
REMARK    1  A    between atoms: C_4  and  C_7 
REMARK    2  A    between atoms: C_7  and  C_8 
REMARK    3  A    between atoms: C_8  and  O_9 
REMARK    4  A    between atoms: O_9  and  C_10 
REMARK    5  A    between atoms: C_10  and  C_11 
REMARK    6  A    between atoms: C_11  and  C_12 
REMARK    7  A    between atoms: C_12  and  C_13 
REMARK    8  A    between atoms: C_13  and  C_14 
REMARK    9  A    between atoms: C_14  and  C_15 
REMARK   10  A    between atoms: C_15  and  N_16 
REMARK   11  A    between atoms: N_16  and  C_17 
REMARK   12  A    between atoms: C_17  and  C_18 
REMARK   13  A    between atoms: C_18  and  C_19 
REMARK   14  A    between atoms: C_18  and  O_31 
REMARK   15  A    between atoms: C_22  and  O_30 
ROOT
HETATM    1  N   UNK N   1      30.697  14.488   5.139  0.00  0.00    -0.418 N 
HETATM    2  H   UNK N   1      30.202  13.708   5.571  0.00  0.00     0.153 HD
ENDROOT
BRANCH   1   3
HETATM    3  C   UNK N   1      30.542  14.944   3.763  0.00  0.00     0.113 C 
BRANCH   3   4
HETATM    4  C   UNK N   1      29.078  14.875   3.350  0.00  0.00     0.019 C 
BRANCH   4   5
HETATM    5  C   UNK N   1      28.248  14.168   4.409  0.00  0.00     0.002 C 
BRANCH   5   6
HETATM    6  C   UNK N   1      26.978  14.953   4.706  0.00  0.00     0.002 C 
BRANCH   6   7
HETATM    7  C   UNK N   1      26.662  14.921   6.192  0.00  0.00     0.026 C 
BRANCH   7   8
HETATM    8  C   UNK N   1      25.292  15.524   6.471  0.00  0.00     0.168 C 
BRANCH   8   9
HETATM    9  O   UNK N   1      24.297  14.721   5.903  0.00  0.00    -0.385 OA
BRANCH   9  10
HETATM   10  C   UNK N   1      24.142  13.594   6.724  0.00  0.00     0.252 C 
BRANCH  10  11
HETATM   11  C   UNK N   1      22.854  13.647   7.552  0.00  0.00     0.291 C 
HETATM   12  F   UNK N   1      21.853  12.935   6.913  0.00  0.00    -0.198 F 
HETATM   13  F   UNK N   1      22.446  14.963   7.683  0.00  0.00    -0.198 F 
BRANCH  11  14
HETATM   14  C   UNK N   1      23.095  13.062   8.914  0.00  0.00     0.015 A 
HETATM   15  C   UNK N   1      22.016  12.728   9.746  0.00  0.00     0.013 A 
HETATM   16  C   UNK N   1      22.249  12.188  11.014  0.00  0.00     0.001 A 
HETATM   17  C   UNK N   1      23.559  11.974  11.455  0.00  0.00     0.000 A 
HETATM   18  C   UNK N   1      24.637  12.300  10.630  0.00  0.00     0.001 A 
HETATM   19  C   UNK N   1      24.406  12.842   9.365  0.00  0.00     0.013 A 
ENDBRANCH  11  14
ENDBRANCH  10  11
ENDBRANCH   9  10
ENDBRANCH   8   9
ENDBRANCH   7   8
ENDBRANCH   6   7
ENDBRANCH   5   6
ENDBRANCH   4   5
ENDBRANCH   3   4
ENDBRANCH   1   3
BRANCH   1  20
HETATM   20  C   UNK N   1      31.676  15.336   5.785  0.00  0.00     0.150 C 
BRANCH  20  21
HETATM   21  C   UNK N   1      31.382  16.806   5.516  0.00  0.00     0.169 C 
BRANCH  21  22
HETATM   22  C   UNK N   1      30.261  17.224   6.437  0.00  0.00    -0.015 A 
HETATM   23  C   UNK N   1      30.467  16.981   7.803  0.00  0.00     0.013 A 
HETATM   24  C   UNK N   1      29.529  17.361   8.755  0.00  0.00     0.039 A 
HETATM   25  C   UNK N   1      28.356  17.999   8.365  0.00  0.00     0.093 A 
HETATM   26  C   UNK N   1      28.108  18.250   7.008  0.00  0.00     0.079 A 
HETATM   27  C   UNK N   1      29.058  17.861   6.028  0.00  0.00     0.003 A 
HETATM   28  N   UNK N   1      26.961  18.876   6.634  0.00  0.00    -0.321 N 
HETATM   29  C   UNK N   1      28.777  18.140   4.684  0.00  0.00     0.020 A 
HETATM   30  C   UNK N   1      27.592  18.780   4.326  0.00  0.00     0.075 A 
HETATM   31  C   UNK N   1      26.685  19.148   5.319  0.00  0.00     0.245 A 
HETATM   32  O   UNK N   1      25.650  19.711   5.019  0.00  0.00    -0.268 OA
HETATM   33  H   UNK N   1      26.312  19.141   7.325  0.00  0.00     0.169 HD
BRANCH  25  34
HETATM   34  O   UNK N   1      27.467  18.374   9.300  0.00  0.00    -0.358 OA
HETATM   35  H   UNK N   1      27.355  19.283   9.502  0.00  0.00     0.217 HD
ENDBRANCH  25  34
ENDBRANCH  21  22
BRANCH  21  36
HETATM   36  O   UNK N   1      32.555  17.553   5.640  0.00  0.00    -0.389 OA
HETATM   37  H   UNK N   1      33.372  17.249   5.215  0.00  0.00     0.210 HD
ENDBRANCH  21  36
ENDBRANCH  20  21
ENDBRANCH   1  20
TORSDOF 15
ENDMDL
