MODEL 1
REMARK VINA RESULT:      -8.1      0.000      0.000
REMARK  4 active torsions:
REMARK  status: ('A' for Active; 'I' for Inactive)
REMARK    1  A    between atoms: C_6  and  C_7 
REMARK    2  A    between atoms: C_7  and  C_8 
REMARK       I    between atoms: N_11  and  C_14 
REMARK    3  A    between atoms: C_14  and  C_16 
REMARK       I    between atoms: C_16  and  N_18 
REMARK    4  A    between atoms: N_18  and  C_19 
ROOT
HETATM    1  C   UNK N   1      30.316  16.656   7.061  0.00  0.00    -0.007 C 
HETATM    2  C   UNK N   1      31.315  16.516   5.888  0.00  0.00     0.025 C 
HETATM    3  C   UNK N   1      32.507  17.469   6.030  0.00  0.00     0.126 C 
HETATM    4  N   UNK N   1      33.075  17.273   7.340  0.00  0.00    -0.344 N 
HETATM    5  C   UNK N   1      32.217  17.505   8.485  0.00  0.00     0.126 C 
HETATM    6  C   UNK N   1      31.036  16.531   8.407  0.00  0.00     0.025 C 
HETATM    7  C   UNK N   1      34.283  16.655   7.478  0.00  0.00     0.311 C 
HETATM    8  O   UNK N   1      34.913  16.306   6.490  0.00  0.00    -0.262 OA
ENDROOT
BRANCH   7   9
HETATM    9  C   UNK N   1      34.735  16.218   8.805  0.00  0.00     0.314 C 
HETATM   10  O   UNK N   1      35.336  17.016   9.510  0.00  0.00    -0.262 OA
HETATM   11  N   UNK N   1      34.583  14.928   9.198  0.00  0.00    -0.319 N 
HETATM   12  H   UNK N   1      33.943  14.345   8.731  0.00  0.00     0.169 HD
BRANCH  11  13
HETATM   13  C   UNK N   1      35.340  14.418  10.275  0.00  0.00     0.037 A 
HETATM   14  C   UNK N   1      36.655  13.916  10.090  0.00  0.00     0.032 A 
HETATM   15  C   UNK N   1      37.368  13.381  11.189  0.00  0.00     0.035 A 
HETATM   16  C   UNK N   1      36.733  13.388  12.431  0.00  0.00     0.071 A 
HETATM   17  C   UNK N   1      35.476  13.889  12.594  0.00  0.00     0.110 A 
HETATM   18  N   UNK N   1      37.194  12.950  13.615  0.00  0.00    -0.300 N 
HETATM   19  C   UNK N   1      34.745  14.403  11.547  0.00  0.00     0.069 A 
HETATM   20  O   UNK N   1      35.133  13.784  13.847  0.00  0.00    -0.259 OA
HETATM   21  C   UNK N   1      36.153  13.224  14.464  0.00  0.00     0.370 A 
HETATM   22  O   UNK N   1      36.168  12.979  15.654  0.00  0.00    -0.238 OA
HETATM   23  H   UNK N   1      38.062  12.535  13.822  0.00  0.00     0.171 HD
ENDBRANCH  11  13
ENDBRANCH   7   9
BRANCH   1  24
HETATM   24  C   UNK N   1      29.463  17.932   7.062  0.00  0.00     0.043 C 
BRANCH  24  25
HETATM   25  C   UNK N   1      28.402  17.947   6.015  0.00  0.00    -0.058 A 
HETATM   26  C   UNK N   1      28.424  18.950   5.041  0.00  0.00     0.010 A 
HETATM   27  C   UNK N   1      27.464  18.971   4.033  0.00  0.00     0.043 A 
HETATM   28  C   UNK N   1      26.470  17.993   4.000  0.00  0.00     0.116 A 
HETATM   29  C   UNK N   1      26.432  16.995   4.981  0.00  0.00     0.043 A 
HETATM   30  F   UNK N   1      25.541  18.014   3.015  0.00  0.00    -0.206 F 
HETATM   31  C   UNK N   1      27.400  16.970   5.992  0.00  0.00     0.010 A 
ENDBRANCH  24  25
ENDBRANCH   1  24
TORSDOF 4
ENDMDL
MODEL 2
REMARK VINA RESULT:      -8.0      5.429     11.109
REMARK  4 active torsions:
REMARK  status: ('A' for Active; 'I' for Inactive)
REMARK    1  A    between atoms: C_6  and  C_7 
REMARK    2  A    between atoms: C_7  and  C_8 
REMARK       I    between atoms: N_11  and  C_14 
REMARK    3  A    between atoms: C_14  and  C_16 
REMARK       I    between atoms: C_16  and  N_18 
REMARK    4  A    between atoms: N_18  and  C_19 
ROOT
HETATM    1  C   UNK N   1      36.057  13.100  15.092  0.00  0.00    -0.007 C 
HETATM    2  C   UNK N   1      37.336  12.363  14.628  0.00  0.00     0.025 C 
HETATM    3  C   UNK N   1      37.077  11.473  13.408  0.00  0.00     0.126 C 
HETATM    4  N   UNK N   1      36.441  12.281  12.399  0.00  0.00    -0.344 N 
HETATM    5  C   UNK N   1      35.176  12.903  12.737  0.00  0.00     0.126 C 
HETATM    6  C   UNK N   1      35.403  13.845  13.925  0.00  0.00     0.025 C 
HETATM    7  C   UNK N   1      37.126  12.644  11.277  0.00  0.00     0.311 C 
HETATM    8  O   UNK N   1      38.269  12.245  11.098  0.00  0.00    -0.262 OA
ENDROOT
BRANCH   7   9
HETATM    9  C   UNK N   1      36.581  13.674  10.386  0.00  0.00     0.314 C 
HETATM   10  O   UNK N   1      36.920  14.836  10.558  0.00  0.00    -0.262 OA
HETATM   11  N   UNK N   1      35.641  13.361   9.458  0.00  0.00    -0.319 N 
HETATM   12  H   UNK N   1      35.512  12.424   9.188  0.00  0.00     0.169 HD
BRANCH  11  13
HETATM   13  C   UNK N   1      34.846  14.374   8.880  0.00  0.00     0.037 A 
HETATM   14  C   UNK N   1      33.654  14.832   9.500  0.00  0.00     0.032 A 
HETATM   15  C   UNK N   1      32.866  15.825   8.870  0.00  0.00     0.035 A 
HETATM   16  C   UNK N   1      33.320  16.326   7.650  0.00  0.00     0.071 A 
HETATM   17  C   UNK N   1      34.476  15.886   7.077  0.00  0.00     0.110 A 
HETATM   18  N   UNK N   1      32.765  17.266   6.867  0.00  0.00    -0.300 N 
HETATM   19  C   UNK N   1      35.260  14.912   7.651  0.00  0.00     0.069 A 
HETATM   20  O   UNK N   1      34.667  16.526   5.957  0.00  0.00    -0.259 OA
HETATM   21  C   UNK N   1      33.650  17.351   5.824  0.00  0.00     0.370 A 
HETATM   22  O   UNK N   1      33.513  18.105   4.881  0.00  0.00    -0.238 OA
HETATM   23  H   UNK N   1      31.929  17.768   7.007  0.00  0.00     0.171 HD
ENDBRANCH  11  13
ENDBRANCH   7   9
BRANCH   1  24
HETATM   24  C   UNK N   1      35.001  12.229  15.788  0.00  0.00     0.043 C 
BRANCH  24  25
HETATM   25  C   UNK N   1      35.358  11.851  17.184  0.00  0.00    -0.058 A 
HETATM   26  C   UNK N   1      35.147  12.775  18.212  0.00  0.00     0.010 A 
HETATM   27  C   UNK N   1      35.442  12.439  19.531  0.00  0.00     0.043 A 
HETATM   28  C   UNK N   1      35.960  11.178  19.827  0.00  0.00     0.116 A 
HETATM   29  C   UNK N   1      36.190  10.254  18.801  0.00  0.00     0.043 A 
HETATM   30  F   UNK N   1      36.242  10.854  21.111  0.00  0.00    -0.206 F 
HETATM   31  C   UNK N   1      35.888  10.589  17.476  0.00  0.00     0.010 A 
ENDBRANCH  24  25
ENDBRANCH   1  24
TORSDOF 4
ENDMDL
MODEL 3
REMARK VINA RESULT:      -7.9      5.710     11.620
REMARK  4 active torsions:
REMARK  status: ('A' for Active; 'I' for Inactive)
REMARK    1  A    between atoms: C_6  and  C_7 
REMARK    2  A    between atoms: C_7  and  C_8 
REMARK       I    between atoms: N_11  and  C_14 
REMARK    3  A    between atoms: C_14  and  C_16 
REMARK       I    between atoms: C_16  and  N_18 
REMARK    4  A    between atoms: N_18  and  C_19 
ROOT
HETATM    1  C   UNK N   1      34.322  10.976  15.686  0.00  0.00    -0.007 C 
HETATM    2  C   UNK N   1      34.916  12.287  16.251  0.00  0.00     0.025 C 
HETATM    3  C   UNK N   1      36.296  12.595  15.660  0.00  0.00     0.126 C 
HETATM    4  N   UNK N   1      36.182  12.548  14.224  0.00  0.00    -0.344 N 
HETATM    5  C   UNK N   1      35.741  11.303  13.627  0.00  0.00     0.126 C 
HETATM    6  C   UNK N   1      34.337  10.985  14.155  0.00  0.00     0.025 C 
HETATM    7  C   UNK N   1      36.242  13.697  13.492  0.00  0.00     0.311 C 
HETATM    8  O   UNK N   1      36.441  14.770  14.045  0.00  0.00    -0.262 OA
ENDROOT
BRANCH   7   9
HETATM    9  C   UNK N   1      35.862  13.684  12.074  0.00  0.00     0.314 C 
HETATM   10  O   UNK N   1      36.730  13.477  11.238  0.00  0.00    -0.262 OA
HETATM   11  N   UNK N   1      34.598  13.999  11.693  0.00  0.00    -0.319 N 
HETATM   12  H   UNK N   1      33.867  13.973  12.350  0.00  0.00     0.169 HD
BRANCH  11  13
HETATM   13  C   UNK N   1      34.328  14.363  10.356  0.00  0.00     0.037 A 
HETATM   14  C   UNK N   1      33.821  13.428   9.416  0.00  0.00     0.032 A 
HETATM   15  C   UNK N   1      33.598  13.823   8.076  0.00  0.00     0.035 A 
HETATM   16  C   UNK N   1      33.879  15.148   7.742  0.00  0.00     0.071 A 
HETATM   17  C   UNK N   1      34.351  16.037   8.661  0.00  0.00     0.110 A 
HETATM   18  N   UNK N   1      33.746  15.763   6.555  0.00  0.00    -0.300 N 
HETATM   19  C   UNK N   1      34.595  15.686   9.969  0.00  0.00     0.069 A 
HETATM   20  O   UNK N   1      34.514  17.197   8.089  0.00  0.00    -0.259 OA
HETATM   21  C   UNK N   1      34.156  17.042   6.831  0.00  0.00     0.370 A 
HETATM   22  O   UNK N   1      34.185  17.935   6.008  0.00  0.00    -0.238 OA
HETATM   23  H   UNK N   1      33.434  15.389   5.699  0.00  0.00     0.171 HD
ENDBRANCH  11  13
ENDBRANCH   7   9
BRANCH   1  24
HETATM   24  C   UNK N   1      34.971   9.678  16.189  0.00  0.00     0.043 C 
BRANCH  24  25
HETATM   25  C   UNK N   1      35.199   9.651  17.661  0.00  0.00    -0.058 A 
HETATM   26  C   UNK N   1      34.124   9.364  18.509  0.00  0.00     0.010 A 
HETATM   27  C   UNK N   1      34.313   9.301  19.887  0.00  0.00     0.043 A 
HETATM   28  C   UNK N   1      35.578   9.535  20.426  0.00  0.00     0.116 A 
HETATM   29  C   UNK N   1      36.655   9.840  19.584  0.00  0.00     0.043 A 
HETATM   30  F   UNK N   1      35.759   9.468  21.766  0.00  0.00    -0.206 F 
HETATM   31  C   UNK N   1      36.467   9.898  18.198  0.00  0.00     0.010 A 
ENDBRANCH  24  25
ENDBRANCH   1  24
TORSDOF 4
ENDMDL
MODEL 4
REMARK VINA RESULT:      -7.8      5.057     10.667
REMARK  4 active torsions:
REMARK  status: ('A' for Active; 'I' for Inactive)
REMARK    1  A    between atoms: C_6  and  C_7 
REMARK    2  A    between atoms: C_7  and  C_8 
REMARK       I    between atoms: N_11  and  C_14 
REMARK    3  A    between atoms: C_14  and  C_16 
REMARK       I    between atoms: C_16  and  N_18 
REMARK    4  A    between atoms: N_18  and  C_19 
ROOT
HETATM    1  C   UNK N   1      35.987  13.264  14.628  0.00  0.00    -0.007 C 
HETATM    2  C   UNK N   1      37.377  12.699  14.251  0.00  0.00     0.025 C 
HETATM    3  C   UNK N   1      37.319  11.810  13.005  0.00  0.00     0.126 C 
HETATM    4  N   UNK N   1      36.662  12.556  11.961  0.00  0.00    -0.344 N 
HETATM    5  C   UNK N   1      35.309  13.011  12.211  0.00  0.00     0.126 C 
HETATM    6  C   UNK N   1      35.333  13.949  13.424  0.00  0.00     0.025 C 
HETATM    7  C   UNK N   1      37.377  13.022  10.897  0.00  0.00     0.311 C 
HETATM    8  O   UNK N   1      38.570  12.770  10.798  0.00  0.00    -0.262 OA
ENDROOT
BRANCH   7   9
HETATM    9  C   UNK N   1      36.774  13.998   9.980  0.00  0.00     0.314 C 
HETATM   10  O   UNK N   1      36.992  15.186  10.165  0.00  0.00    -0.262 OA
HETATM   11  N   UNK N   1      35.911  13.596   9.013  0.00  0.00    -0.319 N 
HETATM   12  H   UNK N   1      35.885  12.652   8.739  0.00  0.00     0.169 HD
BRANCH  11  13
HETATM   13  C   UNK N   1      35.048  14.530   8.398  0.00  0.00     0.037 A 
HETATM   14  C   UNK N   1      35.369  15.135   7.155  0.00  0.00     0.032 A 
HETATM   15  C   UNK N   1      34.495  16.092   6.589  0.00  0.00     0.035 A 
HETATM   16  C   UNK N   1      33.326  16.389   7.290  0.00  0.00     0.071 A 
HETATM   17  C   UNK N   1      33.026  15.786   8.475  0.00  0.00     0.110 A 
HETATM   18  N   UNK N   1      32.343  17.245   6.965  0.00  0.00    -0.300 N 
HETATM   19  C   UNK N   1      33.858  14.862   9.065  0.00  0.00     0.069 A 
HETATM   20  O   UNK N   1      31.879  16.235   8.904  0.00  0.00    -0.259 OA
HETATM   21  C   UNK N   1      31.465  17.107   8.008  0.00  0.00     0.370 A 
HETATM   22  O   UNK N   1      30.419  17.719   8.098  0.00  0.00    -0.238 OA
HETATM   23  H   UNK N   1      32.271  17.829   6.175  0.00  0.00     0.171 HD
ENDBRANCH  11  13
ENDBRANCH   7   9
BRANCH   1  24
HETATM   24  C   UNK N   1      34.999  12.257  15.233  0.00  0.00     0.043 C 
BRANCH  24  25
HETATM   25  C   UNK N   1      35.215  12.001  16.685  0.00  0.00    -0.058 A 
HETATM   26  C   UNK N   1      35.619  10.726  17.096  0.00  0.00     0.010 A 
HETATM   27  C   UNK N   1      35.859  10.466  18.443  0.00  0.00     0.043 A 
HETATM   28  C   UNK N   1      35.686  11.478  19.387  0.00  0.00     0.116 A 
HETATM   29  C   UNK N   1      35.265  12.751  18.985  0.00  0.00     0.043 A 
HETATM   30  F   UNK N   1      35.925  11.222  20.695  0.00  0.00    -0.206 F 
HETATM   31  C   UNK N   1      35.030  13.015  17.630  0.00  0.00     0.010 A 
ENDBRANCH  24  25
ENDBRANCH   1  24
TORSDOF 4
ENDMDL
MODEL 5
REMARK VINA RESULT:      -7.7      2.819      4.097
REMARK  4 active torsions:
REMARK  status: ('A' for Active; 'I' for Inactive)
REMARK    1  A    between atoms: C_6  and  C_7 
REMARK    2  A    between atoms: C_7  and  C_8 
REMARK       I    between atoms: N_11  and  C_14 
REMARK    3  A    between atoms: C_14  and  C_16 
REMARK       I    between atoms: C_16  and  N_18 
REMARK    4  A    between atoms: N_18  and  C_19 
ROOT
HETATM    1  C   UNK N   1      28.503  18.797   5.265  0.00  0.00    -0.007 C 
HETATM    2  C   UNK N   1      28.175  19.589   6.553  0.00  0.00     0.025 C 
HETATM    3  C   UNK N   1      28.100  18.680   7.784  0.00  0.00     0.126 C 
HETATM    4  N   UNK N   1      29.317  17.909   7.838  0.00  0.00    -0.344 N 
HETATM    5  C   UNK N   1      29.620  17.055   6.707  0.00  0.00     0.126 C 
HETATM    6  C   UNK N   1      29.755  17.935   5.459  0.00  0.00     0.025 C 
HETATM    7  C   UNK N   1      30.254  18.171   8.793  0.00  0.00     0.311 C 
HETATM    8  O   UNK N   1      30.047  19.029   9.640  0.00  0.00    -0.262 OA
ENDROOT
BRANCH   7   9
HETATM    9  C   UNK N   1      31.593  17.579   8.689  0.00  0.00     0.314 C 
HETATM   10  O   UNK N   1      32.408  18.102   7.942  0.00  0.00    -0.262 OA
HETATM   11  N   UNK N   1      31.888  16.417   9.326  0.00  0.00    -0.319 N 
HETATM   12  H   UNK N   1      31.318  16.104  10.064  0.00  0.00     0.169 HD
BRANCH  11  13
HETATM   13  C   UNK N   1      33.008  15.654   8.932  0.00  0.00     0.037 A 
HETATM   14  C   UNK N   1      32.944  14.736   7.851  0.00  0.00     0.032 A 
HETATM   15  C   UNK N   1      34.079  13.964   7.511  0.00  0.00     0.035 A 
HETATM   16  C   UNK N   1      35.238  14.160   8.263  0.00  0.00     0.071 A 
HETATM   17  C   UNK N   1      35.287  15.058   9.287  0.00  0.00     0.110 A 
HETATM   18  N   UNK N   1      36.435  13.564   8.135  0.00  0.00    -0.300 N 
HETATM   19  C   UNK N   1      34.200  15.815   9.658  0.00  0.00     0.069 A 
HETATM   20  O   UNK N   1      36.483  15.048   9.806  0.00  0.00    -0.259 OA
HETATM   21  C   UNK N   1      37.175  14.158   9.124  0.00  0.00     0.370 A 
HETATM   22  O   UNK N   1      38.340  13.896   9.348  0.00  0.00    -0.238 OA
HETATM   23  H   UNK N   1      36.712  12.871   7.492  0.00  0.00     0.171 HD
ENDBRANCH  11  13
ENDBRANCH   7   9
BRANCH   1  24
HETATM   24  C   UNK N   1      27.370  17.922   4.713  0.00  0.00     0.043 C 
BRANCH  24  25
HETATM   25  C   UNK N   1      26.201  18.698   4.209  0.00  0.00    -0.058 A 
HETATM   26  C   UNK N   1      26.429  19.836   3.429  0.00  0.00     0.010 A 
HETATM   27  C   UNK N   1      25.357  20.564   2.918  0.00  0.00     0.043 A 
HETATM   28  C   UNK N   1      24.050  20.161   3.194  0.00  0.00     0.116 A 
HETATM   29  C   UNK N   1      23.815  19.032   3.988  0.00  0.00     0.043 A 
HETATM   30  F   UNK N   1      23.011  20.868   2.692  0.00  0.00    -0.206 F 
HETATM   31  C   UNK N   1      24.892  18.297   4.497  0.00  0.00     0.010 A 
ENDBRANCH  24  25
ENDBRANCH   1  24
TORSDOF 4
ENDMDL
MODEL 6
REMARK VINA RESULT:      -7.3     15.895     19.071
REMARK  4 active torsions:
REMARK  status: ('A' for Active; 'I' for Inactive)
REMARK    1  A    between atoms: C_6  and  C_7 
REMARK    2  A    between atoms: C_7  and  C_8 
REMARK       I    between atoms: N_11  and  C_14 
REMARK    3  A    between atoms: C_14  and  C_16 
REMARK       I    between atoms: C_16  and  N_18 
REMARK    4  A    between atoms: N_18  and  C_19 
ROOT
HETATM    1  C   UNK N   1      29.348  21.415  -7.998  0.00  0.00    -0.007 C 
HETATM    2  C   UNK N   1      28.301  21.147  -9.105  0.00  0.00     0.025 C 
HETATM    3  C   UNK N   1      26.873  21.110  -8.550  0.00  0.00     0.126 C 
HETATM    4  N   UNK N   1      26.662  22.319  -7.793  0.00  0.00    -0.344 N 
HETATM    5  C   UNK N   1      27.540  22.566  -6.667  0.00  0.00     0.126 C 
HETATM    6  C   UNK N   1      28.979  22.662  -7.189  0.00  0.00     0.025 C 
HETATM    7  C   UNK N   1      25.842  23.296  -8.274  0.00  0.00     0.311 C 
HETATM    8  O   UNK N   1      25.242  23.133  -9.328  0.00  0.00    -0.262 OA
ENDROOT
BRANCH   7   9
HETATM    9  C   UNK N   1      25.834  24.622  -7.646  0.00  0.00     0.314 C 
HETATM   10  O   UNK N   1      26.349  25.556  -8.244  0.00  0.00    -0.262 OA
HETATM   11  N   UNK N   1      25.361  24.788  -6.385  0.00  0.00    -0.319 N 
HETATM   12  H   UNK N   1      24.781  24.101  -5.984  0.00  0.00     0.169 HD
BRANCH  11  13
HETATM   13  C   UNK N   1      25.697  25.942  -5.644  0.00  0.00     0.037 A 
HETATM   14  C   UNK N   1      24.800  27.034  -5.517  0.00  0.00     0.032 A 
HETATM   15  C   UNK N   1      25.188  28.188  -4.797  0.00  0.00     0.035 A 
HETATM   16  C   UNK N   1      26.459  28.187  -4.220  0.00  0.00     0.071 A 
HETATM   17  C   UNK N   1      27.301  27.122  -4.338  0.00  0.00     0.110 A 
HETATM   18  N   UNK N   1      27.052  29.145  -3.489  0.00  0.00    -0.300 N 
HETATM   19  C   UNK N   1      26.966  25.990  -5.044  0.00  0.00     0.069 A 
HETATM   20  O   UNK N   1      28.408  27.381  -3.699  0.00  0.00    -0.259 OA
HETATM   21  C   UNK N   1      28.268  28.587  -3.190  0.00  0.00     0.370 A 
HETATM   22  O   UNK N   1      29.122  29.141  -2.526  0.00  0.00    -0.238 OA
HETATM   23  H   UNK N   1      26.702  30.030  -3.234  0.00  0.00     0.171 HD
ENDBRANCH  11  13
ENDBRANCH   7   9
BRANCH   1  24
HETATM   24  C   UNK N   1      29.612  20.249  -7.034  0.00  0.00     0.043 C 
BRANCH  24  25
HETATM   25  C   UNK N   1      30.759  20.481  -6.111  0.00  0.00    -0.058 A 
HETATM   26  C   UNK N   1      30.500  20.793  -4.773  0.00  0.00     0.010 A 
HETATM   27  C   UNK N   1      31.551  20.984  -3.880  0.00  0.00     0.043 A 
HETATM   28  C   UNK N   1      32.869  20.874  -4.324  0.00  0.00     0.116 A 
HETATM   29  C   UNK N   1      33.136  20.578  -5.667  0.00  0.00     0.043 A 
HETATM   30  F   UNK N   1      33.888  21.056  -3.452  0.00  0.00    -0.206 F 
HETATM   31  C   UNK N   1      32.079  20.380  -6.563  0.00  0.00     0.010 A 
ENDBRANCH  24  25
ENDBRANCH   1  24
TORSDOF 4
ENDMDL
MODEL 7
REMARK VINA RESULT:      -7.3      4.553     10.318
REMARK  4 active torsions:
REMARK  status: ('A' for Active; 'I' for Inactive)
REMARK    1  A    between atoms: C_6  and  C_7 
REMARK    2  A    between atoms: C_7  and  C_8 
REMARK       I    between atoms: N_11  and  C_14 
REMARK    3  A    between atoms: C_14  and  C_16 
REMARK       I    between atoms: C_16  and  N_18 
REMARK    4  A    between atoms: N_18  and  C_19 
ROOT
HETATM    1  C   UNK N   1      35.108  13.877  12.085  0.00  0.00    -0.007 C 
HETATM    2  C   UNK N   1      35.772  15.262  12.271  0.00  0.00     0.025 C 
HETATM    3  C   UNK N   1      36.455  15.749  10.989  0.00  0.00     0.126 C 
HETATM    4  N   UNK N   1      35.492  15.675   9.919  0.00  0.00    -0.344 N 
HETATM    5  C   UNK N   1      34.922  14.377   9.619  0.00  0.00     0.126 C 
HETATM    6  C   UNK N   1      34.182  13.875  10.865  0.00  0.00     0.025 C 
HETATM    7  C   UNK N   1      34.961  16.815   9.393  0.00  0.00     0.311 C 
HETATM    8  O   UNK N   1      35.335  17.910   9.791  0.00  0.00    -0.262 OA
ENDROOT
BRANCH   7   9
HETATM    9  C   UNK N   1      33.798  16.739   8.501  0.00  0.00     0.314 C 
HETATM   10  O   UNK N   1      33.962  16.939   7.306  0.00  0.00    -0.262 OA
HETATM   11  N   UNK N   1      32.551  16.556   9.004  0.00  0.00    -0.319 N 
HETATM   12  H   UNK N   1      32.437  16.206   9.917  0.00  0.00     0.169 HD
BRANCH  11  13
HETATM   13  C   UNK N   1      31.416  16.864   8.223  0.00  0.00     0.037 A 
HETATM   14  C   UNK N   1      31.046  16.076   7.102  0.00  0.00     0.032 A 
HETATM   15  C   UNK N   1      29.922  16.439   6.323  0.00  0.00     0.035 A 
HETATM   16  C   UNK N   1      29.207  17.571   6.716  0.00  0.00     0.071 A 
HETATM   17  C   UNK N   1      29.567  18.307   7.805  0.00  0.00     0.110 A 
HETATM   18  N   UNK N   1      28.113  18.112   6.155  0.00  0.00    -0.300 N 
HETATM   19  C   UNK N   1      30.662  17.995   8.577  0.00  0.00     0.069 A 
HETATM   20  O   UNK N   1      28.728  19.293   7.950  0.00  0.00    -0.259 OA
HETATM   21  C   UNK N   1      27.857  19.185   6.968  0.00  0.00     0.370 A 
HETATM   22  O   UNK N   1      26.928  19.951   6.805  0.00  0.00    -0.238 OA
HETATM   23  H   UNK N   1      27.618  17.813   5.357  0.00  0.00     0.171 HD
ENDBRANCH  11  13
ENDBRANCH   7   9
BRANCH   1  24
HETATM   24  C   UNK N   1      36.071  12.684  11.988  0.00  0.00     0.043 C 
BRANCH  24  25
HETATM   25  C   UNK N   1      36.287  11.979  13.283  0.00  0.00    -0.058 A 
HETATM   26  C   UNK N   1      37.529  11.386  13.533  0.00  0.00     0.010 A 
HETATM   27  C   UNK N   1      37.771  10.748  14.747  0.00  0.00     0.043 A 
HETATM   28  C   UNK N   1      36.767  10.691  15.714  0.00  0.00     0.116 A 
HETATM   29  C   UNK N   1      35.516  11.269  15.464  0.00  0.00     0.043 A 
HETATM   30  F   UNK N   1      37.007  10.074  16.895  0.00  0.00    -0.206 F 
HETATM   31  C   UNK N   1      35.274  11.915  14.246  0.00  0.00     0.010 A 
ENDBRANCH  24  25
ENDBRANCH   1  24
TORSDOF 4
ENDMDL
MODEL 8
REMARK VINA RESULT:      -7.2      4.475      9.472
REMARK  4 active torsions:
REMARK  status: ('A' for Active; 'I' for Inactive)
REMARK    1  A    between atoms: C_6  and  C_7 
REMARK    2  A    between atoms: C_7  and  C_8 
REMARK       I    between atoms: N_11  and  C_14 
REMARK    3  A    between atoms: C_14  and  C_16 
REMARK       I    between atoms: C_16  and  N_18 
REMARK    4  A    between atoms: N_18  and  C_19 
ROOT
HETATM    1  C   UNK N   1      36.676  13.617  11.589  0.00  0.00    -0.007 C 
HETATM    2  C   UNK N   1      37.706  13.405  10.454  0.00  0.00     0.025 C 
HETATM    3  C   UNK N   1      37.080  12.735   9.226  0.00  0.00     0.126 C 
HETATM    4  N   UNK N   1      35.913  13.496   8.855  0.00  0.00    -0.344 N 
HETATM    5  C   UNK N   1      34.859  13.629   9.840  0.00  0.00     0.126 C 
HETATM    6  C   UNK N   1      35.433  14.344  11.068  0.00  0.00     0.025 C 
HETATM    7  C   UNK N   1      35.923  14.260   7.726  0.00  0.00     0.311 C 
HETATM    8  O   UNK N   1      36.904  14.268   6.995  0.00  0.00    -0.262 OA
ENDROOT
BRANCH   7   9
HETATM    9  C   UNK N   1      34.849  15.233   7.489  0.00  0.00     0.314 C 
HETATM   10  O   UNK N   1      34.955  16.351   7.973  0.00  0.00    -0.262 OA
HETATM   11  N   UNK N   1      33.715  14.867   6.838  0.00  0.00    -0.319 N 
HETATM   12  H   UNK N   1      33.706  14.051   6.290  0.00  0.00     0.169 HD
BRANCH  11  13
HETATM   13  C   UNK N   1      32.548  15.655   6.945  0.00  0.00     0.037 A 
HETATM   14  C   UNK N   1      32.006  16.341   5.827  0.00  0.00     0.032 A 
HETATM   15  C   UNK N   1      30.856  17.149   5.983  0.00  0.00     0.035 A 
HETATM   16  C   UNK N   1      30.289  17.220   7.256  0.00  0.00     0.071 A 
HETATM   17  C   UNK N   1      30.813  16.541   8.315  0.00  0.00     0.110 A 
HETATM   18  N   UNK N   1      29.204  17.903   7.658  0.00  0.00    -0.300 N 
HETATM   19  C   UNK N   1      31.939  15.759   8.207  0.00  0.00     0.069 A 
HETATM   20  O   UNK N   1      30.087  16.774   9.373  0.00  0.00    -0.259 OA
HETATM   21  C   UNK N   1      29.124  17.586   8.989  0.00  0.00     0.370 A 
HETATM   22  O   UNK N   1      28.260  18.006   9.733  0.00  0.00    -0.238 OA
HETATM   23  H   UNK N   1      28.614  18.487   7.128  0.00  0.00     0.171 HD
ENDBRANCH  11  13
ENDBRANCH   7   9
BRANCH   1  24
HETATM   24  C   UNK N   1      36.241  12.350  12.339  0.00  0.00     0.043 C 
BRANCH  24  25
HETATM   25  C   UNK N   1      35.837  12.596  13.752  0.00  0.00    -0.058 A 
HETATM   26  C   UNK N   1      36.647  13.403  14.558  0.00  0.00     0.010 A 
HETATM   27  C   UNK N   1      36.279  13.677  15.873  0.00  0.00     0.043 A 
HETATM   28  C   UNK N   1      35.102  13.136  16.391  0.00  0.00     0.116 A 
HETATM   29  C   UNK N   1      34.295  12.315  15.595  0.00  0.00     0.043 A 
HETATM   30  F   UNK N   1      34.746  13.409  17.669  0.00  0.00    -0.206 F 
HETATM   31  C   UNK N   1      34.662  12.044  14.272  0.00  0.00     0.010 A 
ENDBRANCH  24  25
ENDBRANCH   1  24
TORSDOF 4
ENDMDL
MODEL 9
REMARK VINA RESULT:      -7.1      5.777      9.024
REMARK  4 active torsions:
REMARK  status: ('A' for Active; 'I' for Inactive)
REMARK    1  A    between atoms: C_6  and  C_7 
REMARK    2  A    between atoms: C_7  and  C_8 
REMARK       I    between atoms: N_11  and  C_14 
REMARK    3  A    between atoms: C_14  and  C_16 
REMARK       I    between atoms: C_16  and  N_18 
REMARK    4  A    between atoms: N_18  and  C_19 
ROOT
HETATM    1  C   UNK N   1      24.217  13.062   6.983  0.00  0.00    -0.007 C 
HETATM    2  C   UNK N   1      23.672  12.920   5.542  0.00  0.00     0.025 C 
HETATM    3  C   UNK N   1      23.712  14.248   4.778  0.00  0.00     0.126 C 
HETATM    4  N   UNK N   1      25.051  14.772   4.873  0.00  0.00    -0.344 N 
HETATM    5  C   UNK N   1      25.574  15.038   6.198  0.00  0.00     0.126 C 
HETATM    6  C   UNK N   1      25.600  13.720   6.981  0.00  0.00     0.025 C 
HETATM    7  C   UNK N   1      25.867  14.773   3.781  0.00  0.00     0.311 C 
HETATM    8  O   UNK N   1      25.452  14.374   2.701  0.00  0.00    -0.262 OA
ENDROOT
BRANCH   7   9
HETATM    9  C   UNK N   1      27.299  15.054   3.935  0.00  0.00     0.314 C 
HETATM   10  O   UNK N   1      28.061  14.117   4.130  0.00  0.00    -0.262 OA
HETATM   11  N   UNK N   1      27.755  16.332   3.967  0.00  0.00    -0.319 N 
HETATM   12  H   UNK N   1      27.192  17.062   3.624  0.00  0.00     0.169 HD
BRANCH  11  13
HETATM   13  C   UNK N   1      29.034  16.618   4.492  0.00  0.00     0.037 A 
HETATM   14  C   UNK N   1      30.180  16.703   3.660  0.00  0.00     0.032 A 
HETATM   15  C   UNK N   1      31.450  16.956   4.229  0.00  0.00     0.035 A 
HETATM   16  C   UNK N   1      31.510  17.131   5.612  0.00  0.00     0.071 A 
HETATM   17  C   UNK N   1      30.397  17.062   6.395  0.00  0.00     0.110 A 
HETATM   18  N   UNK N   1      32.581  17.387   6.382  0.00  0.00    -0.300 N 
HETATM   19  C   UNK N   1      29.148  16.802   5.880  0.00  0.00     0.069 A 
HETATM   20  O   UNK N   1      30.735  17.273   7.636  0.00  0.00    -0.259 OA
HETATM   21  C   UNK N   1      32.037  17.467   7.638  0.00  0.00     0.370 A 
HETATM   22  O   UNK N   1      32.683  17.693   8.642  0.00  0.00    -0.238 OA
HETATM   23  H   UNK N   1      33.523  17.490   6.113  0.00  0.00     0.171 HD
ENDBRANCH  11  13
ENDBRANCH   7   9
BRANCH   1  24
HETATM   24  C   UNK N   1      23.306  13.808   7.969  0.00  0.00     0.043 C 
BRANCH  24  25
HETATM   25  C   UNK N   1      23.240  13.179   9.319  0.00  0.00    -0.058 A 
HETATM   26  C   UNK N   1      21.995  13.038   9.941  0.00  0.00     0.010 A 
HETATM   27  C   UNK N   1      21.898  12.426  11.188  0.00  0.00     0.043 A 
HETATM   28  C   UNK N   1      23.049  11.962  11.825  0.00  0.00     0.116 A 
HETATM   29  C   UNK N   1      24.300  12.115  11.215  0.00  0.00     0.043 A 
HETATM   30  F   UNK N   1      22.950  11.363  13.035  0.00  0.00    -0.206 F 
HETATM   31  C   UNK N   1      24.397  12.725   9.959  0.00  0.00     0.010 A 
ENDBRANCH  24  25
ENDBRANCH   1  24
TORSDOF 4
ENDMDL
