REMARK  10 active torsions:
REMARK  status: ('A' for Active; 'I' for Inactive)
REMARK    1  A    between atoms: C_28  and  C_6 
REMARK    2  A    between atoms: C_23  and  C_21 
REMARK    3  A    between atoms: N_43  and  C_21 
REMARK    4  A    between atoms: N_45  and  C_22 
REMARK    5  A    between atoms: C_32  and  C_24 
REMARK    6  A    between atoms: C_25  and  N_37 
REMARK    7  A    between atoms: C_26  and  N_44 
REMARK    8  A    between atoms: N_39  and  C_27 
REMARK    9  A    between atoms: O_48  and  C_30 
REMARK   10  A    between atoms: C_32  and  O_46 
REMARK       I    between atoms: N_39  and  C_34 
ROOT
HETATM    1  C   UNK N   1      -3.422  -0.488  -0.266  0.00  0.00     0.018 A 
HETATM    2  C   UNK N   1      -2.111  -0.881  -0.560  0.00  0.00     0.034 A 
HETATM    3  C   UNK N   1      -2.607   1.609   0.585  0.00  0.00     0.054 A 
HETATM    4  C   UNK N   1      -3.680   0.784   0.260  0.00  0.00     0.017 A 
HETATM    5  C   UNK N   1      -1.030  -0.034  -0.287  0.00  0.00     0.082 A 
HETATM    6  C   UNK N   1      -1.285   1.217   0.348  0.00  0.00     0.096 A 
ENDROOT
BRANCH   4   7
HETATM    7  C   UNK N   1      -5.074   1.187   0.583  0.00  0.00     0.146 C 
HETATM    8  N   UNK N   1      -5.496   2.415   0.575  0.00  0.00    -0.366 N 
ATOM      9  HN  UNK N   1      -6.422   2.570   0.973  1.00  0.00     0.162 HD
BRANCH   8  10
HETATM   10  C   UNK N   1      -4.815   3.595   0.069  0.00  0.00     0.083 C 
HETATM   11  C   UNK N   1      -4.404   4.500   1.231  0.00  0.00     0.027 C 
HETATM   12  C   UNK N   1      -3.837   5.825   0.715  0.00  0.00     0.027 C 
HETATM   13  C   UNK N   1      -4.846   6.580  -0.163  0.00  0.00     0.079 C 
HETATM   14  C   UNK N   1      -5.310   5.680  -1.320  0.00  0.00     0.027 C 
HETATM   15  C   UNK N   1      -5.816   4.322  -0.836  0.00  0.00     0.027 C 
BRANCH  13  16
HETATM   16  N   UNK N   1      -5.942   7.167   0.646  0.00  0.00    -0.405 N 
HETATM   17  C   UNK N   1      -6.846   6.236   1.348  0.00  0.00     0.147 C 
HETATM   18  C   UNK N   1      -8.081   5.887   0.516  0.00  0.00     0.291 C 
HETATM   19  N   UNK N   1      -8.764   7.111   0.113  0.00  0.00     0.091 N 
HETATM   20  C   UNK N   1      -7.869   7.828  -0.785  0.00  0.00     0.291 C 
HETATM   21  C   UNK N   1      -6.634   8.288  -0.011  0.00  0.00     0.147 C 
BRANCH  19  22
HETATM   22  C   UNK N   1      -9.947   6.744  -0.652  0.00  0.00     0.277 C 
BRANCH  22  23
HETATM   23  C   UNK N   1     -11.087   6.370   0.281  0.00  0.00     0.014 A 
HETATM   24  C   UNK N   1     -12.249   5.851  -0.538  0.00  0.00     0.007 A 
HETATM   25  C   UNK N   1     -11.339   4.879   0.183  0.00  0.00     0.007 A 
ENDBRANCH  22  23
ENDBRANCH  19  22
ENDBRANCH  13  16
ENDBRANCH   8  10
BRANCH   7  26
HETATM   26  O   UNK N   1      -5.951   0.217   0.904  0.00  0.00    -0.346 OA
HETATM   27  H   UNK N   1      -6.841   0.409   1.127  0.00  0.00     0.219 HD
ENDBRANCH   7  26
ENDBRANCH   4   7
BRANCH   6  28
HETATM   28  O   UNK N   1      -0.267   2.013   0.757  0.00  0.00    -0.354 OA
HETATM   29  C   UNK N   1      -0.444   3.235   1.367  0.00  0.00     0.210 C 
ENDBRANCH   6  28
BRANCH   5  30
HETATM   30  N   UNK N   1       0.289  -0.489  -0.606  0.00  0.00    -0.189 N 
HETATM   31  C   UNK N   1       1.399   0.379  -0.787  0.00  0.00     0.684 A 
HETATM   32  N   UNK N   1       1.204   1.646  -1.244  0.00  0.00    -0.199 N 
HETATM   33  N   UNK N   1       2.639  -0.017  -0.392  0.00  0.00    -0.174 N 
HETATM   34  C   UNK N   1       2.196   2.565  -1.210  0.00  0.00     0.139 A 
ATOM     35  HN  UNK N   1       0.292   1.908  -1.618  1.00  0.00     0.183 HD
HETATM   36  C   UNK N   1       3.457   2.206  -0.745  0.00  0.00     0.098 A 
HETATM   37  C   UNK N   1       3.680   0.864  -0.375  0.00  0.00     0.148 A 
HETATM   38  N   UNK N   1       4.467   3.191  -0.510  0.00  0.00    -0.316 N 
HETATM   39  N   UNK N   1       4.977   0.482   0.108  0.00  0.00    -0.347 N 
HETATM   40  C   UNK N   1       6.094   1.338  -0.286  0.00  0.00     0.178 C 
HETATM   41  C   UNK N   1       5.720   2.796  -0.146  0.00  0.00     0.247 C 
HETATM   42  O   UNK N   1       6.543   3.616   0.242  0.00  0.00    -0.271 OA
HETATM   43  C   UNK N   1       4.118   4.595  -0.505  0.00  0.00     0.159 C 
ATOM     44  HN  UNK N   1       2.791  -0.984  -0.104  1.00  0.00     0.186 HD
HETATM   45  H   UNK N   1       0.435  -1.457  -0.705  0.00  0.00     0.184 HD
BRANCH  39  46
HETATM   46  C   UNK N   1       5.250  -0.867   0.590  0.00  0.00     0.079 C 
HETATM   47  C   UNK N   1       4.238  -1.353   1.617  0.00  0.00     0.032 C 
HETATM   48  C   UNK N   1       5.420  -1.850  -0.553  0.00  0.00     0.032 C 
ENDBRANCH  39  46
BRANCH  40  49
HETATM   49  C   UNK N   1       7.451   0.962   0.330  0.00  0.00     0.030 C 
HETATM   50  C   UNK N   1       7.459   1.104   1.842  0.00  0.00     0.007 C 
ENDBRANCH  40  49
ENDBRANCH   5  30
TORSDOF 10
