MODEL 1
REMARK VINA RESULT:      -8.0      0.000      0.000
REMARK  2 active torsions:
REMARK  status: ('A' for Active; 'I' for Inactive)
REMARK    1  A    between atoms: C_10  and  C_7 
REMARK    2  A    between atoms: C_11  and  C_17 
ROOT
HETATM    1  C   UNK N   1      34.489  15.648   8.436  0.00  0.00     0.131 A 
HETATM    2  C   UNK N   1      34.410  16.888   7.520  0.00  0.00     0.131 A 
HETATM    3  C   UNK N   1      34.708  17.961   8.550  0.00  0.00     0.234 A 
HETATM    4  O   UNK N   1      34.776  19.151   8.285  0.00  0.00    -0.272 OA
HETATM    5  N   UNK N   1      34.923  17.492   9.791  0.00  0.00    -0.296 N 
HETATM    6  C   UNK N   1      34.800  16.164   9.788  0.00  0.00     0.234 A 
HETATM    7  O   UNK N   1      34.915  15.483  10.794  0.00  0.00    -0.272 OA
HETATM    8  H   UNK N   1      35.137  18.043  10.579  0.00  0.00     0.171 HD
ENDROOT
BRANCH   2   9
HETATM    9  C   UNK N   1      33.054  16.952   6.873  0.00  0.00    -0.016 A 
HETATM   10  C   UNK N   1      31.871  17.219   7.576  0.00  0.00     0.100 A 
HETATM   11  N   UNK N   1      30.856  17.301   6.693  0.00  0.00    -0.355 N 
HETATM   12  C   UNK N   1      31.361  17.083   5.478  0.00  0.00     0.051 A 
HETATM   13  C   UNK N   1      29.450  17.600   6.946  0.00  0.00     0.129 C 
HETATM   14  C   UNK N   1      32.701  16.853   5.535  0.00  0.00    -0.000 A 
HETATM   15  C   UNK N   1      30.637  17.103   4.309  0.00  0.00    -0.030 A 
HETATM   16  C   UNK N   1      33.429  16.620   4.367  0.00  0.00     0.014 A 
HETATM   17  C   UNK N   1      32.724  16.613   3.140  0.00  0.00     0.002 A 
HETATM   18  C   UNK N   1      31.326  16.856   3.110  0.00  0.00     0.009 A 
HETATM   19  C   UNK N   1      29.161  17.384   4.374  0.00  0.00     0.042 C 
HETATM   20  C   UNK N   1      28.779  18.149   5.666  0.00  0.00     0.025 C 
ENDBRANCH   2   9
BRANCH   1  21
HETATM   21  C   UNK N   1      34.032  14.258   8.115  0.00  0.00    -0.016 A 
HETATM   22  C   UNK N   1      34.412  13.492   7.048  0.00  0.00    -0.001 A 
HETATM   23  C   UNK N   1      33.719  12.318   7.138  0.00  0.00     0.042 A 
HETATM   24  C   UNK N   1      35.300  13.748   6.008  0.00  0.00     0.014 A 
HETATM   25  C   UNK N   1      33.857  11.310   6.191  0.00  0.00     0.030 A 
HETATM   26  N   UNK N   1      32.924  12.305   8.223  0.00  0.00    -0.365 N 
HETATM   27  C   UNK N   1      34.748  11.532   5.126  0.00  0.00     0.002 A 
HETATM   28  C   UNK N   1      35.469  12.746   5.036  0.00  0.00     0.001 A 
HETATM   29  C   UNK N   1      33.115  13.499   8.838  0.00  0.00     0.097 A 
HETATM   30  H   UNK N   1      32.328  11.578   8.512  0.00  0.00     0.165 HD
ENDBRANCH   1  21
TORSDOF 2
ENDMDL
MODEL 2
REMARK VINA RESULT:      -7.9     14.553     17.927
REMARK  2 active torsions:
REMARK  status: ('A' for Active; 'I' for Inactive)
REMARK    1  A    between atoms: C_10  and  C_7 
REMARK    2  A    between atoms: C_11  and  C_17 
ROOT
HETATM    1  C   UNK N   1      26.410  24.260  -6.544  0.00  0.00     0.131 A 
HETATM    2  C   UNK N   1      25.799  25.522  -7.189  0.00  0.00     0.131 A 
HETATM    3  C   UNK N   1      25.716  25.037  -8.624  0.00  0.00     0.234 A 
HETATM    4  O   UNK N   1      25.262  25.707  -9.538  0.00  0.00    -0.272 OA
HETATM    5  N   UNK N   1      26.161  23.783  -8.810  0.00  0.00    -0.296 N 
HETATM    6  C   UNK N   1      26.583  23.287  -7.646  0.00  0.00     0.234 A 
HETATM    7  O   UNK N   1      27.068  22.173  -7.535  0.00  0.00    -0.272 OA
HETATM    8  H   UNK N   1      26.175  23.305  -9.672  0.00  0.00     0.171 HD
ENDROOT
BRANCH   2   9
HETATM    9  C   UNK N   1      26.698  26.701  -6.941  0.00  0.00    -0.016 A 
HETATM   10  C   UNK N   1      27.762  27.055  -7.782  0.00  0.00     0.100 A 
HETATM   11  N   UNK N   1      28.300  28.206  -7.333  0.00  0.00    -0.355 N 
HETATM   12  C   UNK N   1      27.622  28.569  -6.243  0.00  0.00     0.051 A 
HETATM   13  C   UNK N   1      29.400  28.981  -7.900  0.00  0.00     0.129 C 
HETATM   14  C   UNK N   1      26.637  27.675  -5.955  0.00  0.00    -0.000 A 
HETATM   15  C   UNK N   1      27.863  29.706  -5.508  0.00  0.00    -0.030 A 
HETATM   16  C   UNK N   1      25.796  27.879  -4.860  0.00  0.00     0.014 A 
HETATM   17  C   UNK N   1      26.017  29.026  -4.062  0.00  0.00     0.002 A 
HETATM   18  C   UNK N   1      27.051  29.942  -4.386  0.00  0.00     0.009 A 
HETATM   19  C   UNK N   1      28.972  30.626  -5.937  0.00  0.00     0.042 C 
HETATM   20  C   UNK N   1      29.312  30.453  -7.438  0.00  0.00     0.025 C 
ENDBRANCH   2   9
BRANCH   1  21
HETATM   21  C   UNK N   1      27.005  24.144  -5.175  0.00  0.00    -0.016 A 
HETATM   22  C   UNK N   1      28.324  23.975  -4.861  0.00  0.00    -0.001 A 
HETATM   23  C   UNK N   1      28.398  23.883  -3.500  0.00  0.00     0.042 A 
HETATM   24  C   UNK N   1      29.453  23.883  -5.669  0.00  0.00     0.014 A 
HETATM   25  C   UNK N   1      29.607  23.687  -2.841  0.00  0.00     0.030 A 
HETATM   26  N   UNK N   1      27.181  23.997  -2.938  0.00  0.00    -0.365 N 
HETATM   27  C   UNK N   1      30.770  23.592  -3.627  0.00  0.00     0.002 A 
HETATM   28  C   UNK N   1      30.693  23.692  -5.035  0.00  0.00     0.001 A 
HETATM   29  C   UNK N   1      26.312  24.165  -3.966  0.00  0.00     0.097 A 
HETATM   30  H   UNK N   1      26.966  23.967  -1.978  0.00  0.00     0.165 HD
ENDBRANCH   1  21
TORSDOF 2
ENDMDL
MODEL 3
REMARK VINA RESULT:      -7.8      0.725      2.084
REMARK  2 active torsions:
REMARK  status: ('A' for Active; 'I' for Inactive)
REMARK    1  A    between atoms: C_10  and  C_7 
REMARK    2  A    between atoms: C_11  and  C_17 
ROOT
HETATM    1  C   UNK N   1      34.467  15.697   8.411  0.00  0.00     0.131 A 
HETATM    2  C   UNK N   1      34.605  16.946   7.516  0.00  0.00     0.131 A 
HETATM    3  C   UNK N   1      34.758  17.997   8.599  0.00  0.00     0.234 A 
HETATM    4  O   UNK N   1      34.922  19.185   8.369  0.00  0.00    -0.272 OA
HETATM    5  N   UNK N   1      34.727  17.509   9.851  0.00  0.00    -0.296 N 
HETATM    6  C   UNK N   1      34.551  16.188   9.805  0.00  0.00     0.234 A 
HETATM    7  O   UNK N   1      34.454  15.495  10.804  0.00  0.00    -0.272 OA
HETATM    8  H   UNK N   1      34.818  18.044  10.673  0.00  0.00     0.171 HD
ENDROOT
BRANCH   2   9
HETATM    9  C   UNK N   1      33.392  17.075   6.637  0.00  0.00    -0.016 A 
HETATM   10  C   UNK N   1      33.428  16.944   5.242  0.00  0.00     0.100 A 
HETATM   11  N   UNK N   1      32.167  17.018   4.771  0.00  0.00    -0.355 N 
HETATM   12  C   UNK N   1      31.358  17.200   5.815  0.00  0.00     0.051 A 
HETATM   13  C   UNK N   1      31.700  16.897   3.393  0.00  0.00     0.129 C 
HETATM   14  C   UNK N   1      32.060  17.253   6.980  0.00  0.00    -0.000 A 
HETATM   15  C   UNK N   1      29.989  17.304   5.741  0.00  0.00    -0.030 A 
HETATM   16  C   UNK N   1      31.397  17.420   8.197  0.00  0.00     0.014 A 
HETATM   17  C   UNK N   1      29.989  17.550   8.170  0.00  0.00     0.002 A 
HETATM   18  C   UNK N   1      29.282  17.491   6.941  0.00  0.00     0.009 A 
HETATM   19  C   UNK N   1      29.326  17.215   4.395  0.00  0.00     0.042 C 
HETATM   20  C   UNK N   1      30.215  16.472   3.366  0.00  0.00     0.025 C 
ENDBRANCH   2   9
BRANCH   1  21
HETATM   21  C   UNK N   1      34.019  14.331   7.991  0.00  0.00    -0.016 A 
HETATM   22  C   UNK N   1      34.592  13.531   7.042  0.00  0.00    -0.001 A 
HETATM   23  C   UNK N   1      33.830  12.399   6.967  0.00  0.00     0.042 A 
HETATM   24  C   UNK N   1      35.711  13.723   6.238  0.00  0.00     0.014 A 
HETATM   25  C   UNK N   1      34.126  11.372   6.078  0.00  0.00     0.030 A 
HETATM   26  N   UNK N   1      32.805  12.445   7.836  0.00  0.00    -0.365 N 
HETATM   27  C   UNK N   1      35.253  11.531   5.250  0.00  0.00     0.002 A 
HETATM   28  C   UNK N   1      36.044  12.700   5.332  0.00  0.00     0.001 A 
HETATM   29  C   UNK N   1      32.916  13.634   8.480  0.00  0.00     0.097 A 
HETATM   30  H   UNK N   1      32.117  11.756   7.978  0.00  0.00     0.165 HD
ENDBRANCH   1  21
TORSDOF 2
ENDMDL
MODEL 4
REMARK VINA RESULT:      -7.7      3.195      4.985
REMARK  2 active torsions:
REMARK  status: ('A' for Active; 'I' for Inactive)
REMARK    1  A    between atoms: C_10  and  C_7 
REMARK    2  A    between atoms: C_11  and  C_17 
ROOT
HETATM    1  C   UNK N   1      29.746  17.320   8.063  0.00  0.00     0.131 A 
HETATM    2  C   UNK N   1      29.580  17.696   6.576  0.00  0.00     0.131 A 
HETATM    3  C   UNK N   1      28.085  17.948   6.562  0.00  0.00     0.234 A 
HETATM    4  O   UNK N   1      27.468  18.303   5.569  0.00  0.00    -0.272 OA
HETATM    5  N   UNK N   1      27.483  17.774   7.751  0.00  0.00    -0.296 N 
HETATM    6  C   UNK N   1      28.392  17.402   8.654  0.00  0.00     0.234 A 
HETATM    7  O   UNK N   1      28.111  17.145   9.813  0.00  0.00    -0.272 OA
HETATM    8  H   UNK N   1      26.522  17.900   7.928  0.00  0.00     0.171 HD
ENDROOT
BRANCH   2   9
HETATM    9  C   UNK N   1      30.069  16.567   5.712  0.00  0.00    -0.016 A 
HETATM   10  C   UNK N   1      29.404  15.340   5.591  0.00  0.00     0.100 A 
HETATM   11  N   UNK N   1      30.047  14.591   4.673  0.00  0.00    -0.355 N 
HETATM   12  C   UNK N   1      31.086  15.301   4.233  0.00  0.00     0.051 A 
HETATM   13  C   UNK N   1      29.706  13.259   4.182  0.00  0.00     0.129 C 
HETATM   14  C   UNK N   1      31.151  16.514   4.845  0.00  0.00    -0.000 A 
HETATM   15  C   UNK N   1      31.975  14.880   3.271  0.00  0.00    -0.030 A 
HETATM   16  C   UNK N   1      32.159  17.421   4.513  0.00  0.00     0.014 A 
HETATM   17  C   UNK N   1      33.108  17.026   3.541  0.00  0.00     0.002 A 
HETATM   18  C   UNK N   1      33.017  15.755   2.917  0.00  0.00     0.009 A 
HETATM   19  C   UNK N   1      31.790  13.522   2.655  0.00  0.00     0.042 C 
HETATM   20  C   UNK N   1      30.327  13.027   2.786  0.00  0.00     0.025 C 
ENDBRANCH   2   9
BRANCH   1  21
HETATM   21  C   UNK N   1      30.944  16.693   8.707  0.00  0.00    -0.016 A 
HETATM   22  C   UNK N   1      32.240  17.123   8.632  0.00  0.00    -0.001 A 
HETATM   23  C   UNK N   1      32.994  16.228   9.337  0.00  0.00     0.042 A 
HETATM   24  C   UNK N   1      32.805  18.219   7.988  0.00  0.00     0.014 A 
HETATM   25  C   UNK N   1      34.374  16.358   9.450  0.00  0.00     0.030 A 
HETATM   26  N   UNK N   1      32.229  15.256   9.865  0.00  0.00    -0.365 N 
HETATM   27  C   UNK N   1      34.980  17.457   8.813  0.00  0.00     0.002 A 
HETATM   28  C   UNK N   1      34.197  18.385   8.088  0.00  0.00     0.001 A 
HETATM   29  C   UNK N   1      30.957  15.538   9.486  0.00  0.00     0.097 A 
HETATM   30  H   UNK N   1      32.530  14.497  10.414  0.00  0.00     0.165 HD
ENDBRANCH   1  21
TORSDOF 2
ENDMDL
MODEL 5
REMARK VINA RESULT:      -7.7     13.769     17.347
REMARK  2 active torsions:
REMARK  status: ('A' for Active; 'I' for Inactive)
REMARK    1  A    between atoms: C_10  and  C_7 
REMARK    2  A    between atoms: C_11  and  C_17 
ROOT
HETATM    1  C   UNK N   1      25.735  26.056  -4.846  0.00  0.00     0.131 A 
HETATM    2  C   UNK N   1      26.696  26.259  -3.656  0.00  0.00     0.131 A 
HETATM    3  C   UNK N   1      26.335  27.690  -3.304  0.00  0.00     0.234 A 
HETATM    4  O   UNK N   1      26.840  28.306  -2.378  0.00  0.00    -0.272 OA
HETATM    5  N   UNK N   1      25.382  28.228  -4.084  0.00  0.00    -0.296 N 
HETATM    6  C   UNK N   1      25.004  27.333  -4.998  0.00  0.00     0.234 A 
HETATM    7  O   UNK N   1      24.171  27.572  -5.857  0.00  0.00    -0.272 OA
HETATM    8  H   UNK N   1      25.021  29.140  -3.995  0.00  0.00     0.171 HD
ENDROOT
BRANCH   2   9
HETATM    9  C   UNK N   1      28.111  26.026  -4.105  0.00  0.00    -0.016 A 
HETATM   10  C   UNK N   1      28.847  26.948  -4.862  0.00  0.00     0.100 A 
HETATM   11  N   UNK N   1      30.101  26.479  -5.012  0.00  0.00    -0.355 N 
HETATM   12  C   UNK N   1      30.166  25.301  -4.390  0.00  0.00     0.051 A 
HETATM   13  C   UNK N   1      31.234  27.104  -5.688  0.00  0.00     0.129 C 
HETATM   14  C   UNK N   1      28.971  24.973  -3.828  0.00  0.00    -0.000 A 
HETATM   15  C   UNK N   1      31.293  24.518  -4.304  0.00  0.00    -0.030 A 
HETATM   16  C   UNK N   1      28.830  23.783  -3.111  0.00  0.00     0.014 A 
HETATM   17  C   UNK N   1      29.957  22.935  -3.011  0.00  0.00     0.002 A 
HETATM   18  C   UNK N   1      31.192  23.302  -3.606  0.00  0.00     0.009 A 
HETATM   19  C   UNK N   1      32.561  24.996  -4.955  0.00  0.00     0.042 C 
HETATM   20  C   UNK N   1      32.564  26.534  -5.145  0.00  0.00     0.025 C 
ENDBRANCH   2   9
BRANCH   1  21
HETATM   21  C   UNK N   1      25.755  24.937  -5.842  0.00  0.00    -0.016 A 
HETATM   22  C   UNK N   1      25.941  25.039  -7.192  0.00  0.00    -0.001 A 
HETATM   23  C   UNK N   1      25.845  23.774  -7.700  0.00  0.00     0.042 A 
HETATM   24  C   UNK N   1      26.173  26.145  -8.003  0.00  0.00     0.014 A 
HETATM   25  C   UNK N   1      25.969  23.518  -9.061  0.00  0.00     0.030 A 
HETATM   26  N   UNK N   1      25.617  22.875  -6.727  0.00  0.00    -0.365 N 
HETATM   27  C   UNK N   1      26.205  24.614  -9.912  0.00  0.00     0.002 A 
HETATM   28  C   UNK N   1      26.310  25.922  -9.384  0.00  0.00     0.001 A 
HETATM   29  C   UNK N   1      25.566  23.583  -5.572  0.00  0.00     0.097 A 
HETATM   30  H   UNK N   1      25.511  21.902  -6.832  0.00  0.00     0.165 HD
ENDBRANCH   1  21
TORSDOF 2
ENDMDL
MODEL 6
REMARK VINA RESULT:      -7.6      9.513     12.223
REMARK  2 active torsions:
REMARK  status: ('A' for Active; 'I' for Inactive)
REMARK    1  A    between atoms: C_10  and  C_7 
REMARK    2  A    between atoms: C_11  and  C_17 
ROOT
HETATM    1  C   UNK N   1      20.818  17.624   5.207  0.00  0.00     0.131 A 
HETATM    2  C   UNK N   1      20.376  16.180   4.887  0.00  0.00     0.131 A 
HETATM    3  C   UNK N   1      20.189  15.671   6.304  0.00  0.00     0.234 A 
HETATM    4  O   UNK N   1      19.811  14.541   6.572  0.00  0.00    -0.272 OA
HETATM    5  N   UNK N   1      20.447  16.583   7.257  0.00  0.00    -0.296 N 
HETATM    6  C   UNK N   1      20.824  17.726   6.684  0.00  0.00     0.234 A 
HETATM    7  O   UNK N   1      21.149  18.714   7.321  0.00  0.00    -0.272 OA
HETATM    8  H   UNK N   1      20.371  16.429   8.228  0.00  0.00     0.171 HD
ENDROOT
BRANCH   2   9
HETATM    9  C   UNK N   1      21.439  15.495   4.074  0.00  0.00    -0.016 A 
HETATM   10  C   UNK N   1      21.313  15.223   2.705  0.00  0.00     0.100 A 
HETATM   11  N   UNK N   1      22.471  14.693   2.264  0.00  0.00    -0.355 N 
HETATM   12  C   UNK N   1      23.300  14.616   3.306  0.00  0.00     0.051 A 
HETATM   13  C   UNK N   1      22.830  14.287   0.908  0.00  0.00     0.129 C 
HETATM   14  C   UNK N   1      22.713  15.084   4.440  0.00  0.00    -0.000 A 
HETATM   15  C   UNK N   1      24.591  14.144   3.251  0.00  0.00    -0.030 A 
HETATM   16  C   UNK N   1      23.419  15.109   5.644  0.00  0.00     0.014 A 
HETATM   17  C   UNK N   1      24.745  14.616   5.642  0.00  0.00     0.002 A 
HETATM   18  C   UNK N   1      25.334  14.134   4.444  0.00  0.00     0.009 A 
HETATM   19  C   UNK N   1      25.135  13.668   1.933  0.00  0.00     0.042 C 
HETATM   20  C   UNK N   1      24.366  14.286   0.738  0.00  0.00     0.025 C 
ENDBRANCH   2   9
BRANCH   1  21
HETATM   21  C   UNK N   1      21.425  18.612   4.260  0.00  0.00    -0.016 A 
HETATM   22  C   UNK N   1      22.748  18.937   4.143  0.00  0.00    -0.001 A 
HETATM   23  C   UNK N   1      22.833  19.906   3.184  0.00  0.00     0.042 A 
HETATM   24  C   UNK N   1      23.870  18.462   4.815  0.00  0.00     0.014 A 
HETATM   25  C   UNK N   1      24.048  20.479   2.825  0.00  0.00     0.030 A 
HETATM   26  N   UNK N   1      21.622  20.201   2.681  0.00  0.00    -0.365 N 
HETATM   27  C   UNK N   1      25.205  20.022   3.483  0.00  0.00     0.002 A 
HETATM   28  C   UNK N   1      25.116  19.015   4.472  0.00  0.00     0.001 A 
HETATM   29  C   UNK N   1      20.743  19.401   3.336  0.00  0.00     0.097 A 
HETATM   30  H   UNK N   1      21.415  20.860   1.980  0.00  0.00     0.165 HD
ENDBRANCH   1  21
TORSDOF 2
ENDMDL
MODEL 7
REMARK VINA RESULT:      -7.6      3.385      5.064
REMARK  2 active torsions:
REMARK  status: ('A' for Active; 'I' for Inactive)
REMARK    1  A    between atoms: C_10  and  C_7 
REMARK    2  A    between atoms: C_11  and  C_17 
ROOT
HETATM    1  C   UNK N   1      30.792  17.170   7.041  0.00  0.00     0.131 A 
HETATM    2  C   UNK N   1      29.625  18.111   7.407  0.00  0.00     0.131 A 
HETATM    3  C   UNK N   1      29.563  17.842   8.898  0.00  0.00     0.234 A 
HETATM    4  O   UNK N   1      28.777  18.393   9.653  0.00  0.00    -0.272 OA
HETATM    5  N   UNK N   1      30.474  16.957   9.339  0.00  0.00    -0.296 N 
HETATM    6  C   UNK N   1      31.206  16.528   8.309  0.00  0.00     0.234 A 
HETATM    7  O   UNK N   1      32.087  15.693   8.422  0.00  0.00    -0.272 OA
HETATM    8  H   UNK N   1      30.583  16.670  10.275  0.00  0.00     0.171 HD
ENDROOT
BRANCH   2   9
HETATM    9  C   UNK N   1      28.404  17.732   6.616  0.00  0.00    -0.016 A 
HETATM   10  C   UNK N   1      27.613  16.611   6.902  0.00  0.00     0.100 A 
HETATM   11  N   UNK N   1      26.550  16.613   6.072  0.00  0.00    -0.355 N 
HETATM   12  C   UNK N   1      26.660  17.680   5.280  0.00  0.00     0.051 A 
HETATM   13  C   UNK N   1      25.435  15.672   6.017  0.00  0.00     0.129 C 
HETATM   14  C   UNK N   1      27.784  18.393   5.565  0.00  0.00    -0.000 A 
HETATM   15  C   UNK N   1      25.753  18.036   4.310  0.00  0.00    -0.030 A 
HETATM   16  C   UNK N   1      28.078  19.561   4.861  0.00  0.00     0.014 A 
HETATM   17  C   UNK N   1      27.183  19.959   3.840  0.00  0.00     0.002 A 
HETATM   18  C   UNK N   1      26.018  19.197   3.563  0.00  0.00     0.009 A 
HETATM   19  C   UNK N   1      24.539  17.175   4.098  0.00  0.00     0.042 C 
HETATM   20  C   UNK N   1      24.205  16.336   5.357  0.00  0.00     0.025 C 
ENDBRANCH   2   9
BRANCH   1  21
HETATM   21  C   UNK N   1      31.210  16.743   5.668  0.00  0.00    -0.016 A 
HETATM   22  C   UNK N   1      30.932  15.553   5.055  0.00  0.00    -0.001 A 
HETATM   23  C   UNK N   1      31.543  15.586   3.833  0.00  0.00     0.042 A 
HETATM   24  C   UNK N   1      30.204  14.449   5.487  0.00  0.00     0.014 A 
HETATM   25  C   UNK N   1      31.476  14.515   2.949  0.00  0.00     0.030 A 
HETATM   26  N   UNK N   1      32.186  16.751   3.643  0.00  0.00    -0.365 N 
HETATM   27  C   UNK N   1      30.745  13.382   3.352  0.00  0.00     0.002 A 
HETATM   28  C   UNK N   1      30.109  13.350   4.615  0.00  0.00     0.001 A 
HETATM   29  C   UNK N   1      31.982  17.477   4.770  0.00  0.00     0.097 A 
HETATM   30  H   UNK N   1      32.700  17.022   2.848  0.00  0.00     0.165 HD
ENDBRANCH   1  21
TORSDOF 2
ENDMDL
MODEL 8
REMARK VINA RESULT:      -7.5     14.173     17.987
REMARK  2 active torsions:
REMARK  status: ('A' for Active; 'I' for Inactive)
REMARK    1  A    between atoms: C_10  and  C_7 
REMARK    2  A    between atoms: C_11  and  C_17 
ROOT
HETATM    1  C   UNK N   1      26.921  28.009  -5.446  0.00  0.00     0.131 A 
HETATM    2  C   UNK N   1      26.569  26.762  -4.607  0.00  0.00     0.131 A 
HETATM    3  C   UNK N   1      26.268  27.444  -3.286  0.00  0.00     0.234 A 
HETATM    4  O   UNK N   1      25.913  26.846  -2.283  0.00  0.00    -0.272 OA
HETATM    5  N   UNK N   1      26.397  28.782  -3.312  0.00  0.00    -0.296 N 
HETATM    6  C   UNK N   1      26.781  29.164  -4.531  0.00  0.00     0.234 A 
HETATM    7  O   UNK N   1      27.004  30.327  -4.824  0.00  0.00    -0.272 OA
HETATM    8  H   UNK N   1      26.236  29.385  -2.550  0.00  0.00     0.171 HD
ENDROOT
BRANCH   2   9
HETATM    9  C   UNK N   1      27.731  25.809  -4.608  0.00  0.00    -0.016 A 
HETATM   10  C   UNK N   1      28.866  25.968  -3.801  0.00  0.00     0.100 A 
HETATM   11  N   UNK N   1      29.668  24.898  -3.971  0.00  0.00    -0.355 N 
HETATM   12  C   UNK N   1      29.082  24.094  -4.859  0.00  0.00     0.051 A 
HETATM   13  C   UNK N   1      30.938  24.597  -3.317  0.00  0.00     0.129 C 
HETATM   14  C   UNK N   1      27.899  24.610  -5.288  0.00  0.00    -0.000 A 
HETATM   15  C   UNK N   1      29.588  22.886  -5.281  0.00  0.00    -0.030 A 
HETATM   16  C   UNK N   1      27.115  23.913  -6.209  0.00  0.00     0.014 A 
HETATM   17  C   UNK N   1      27.603  22.674  -6.686  0.00  0.00     0.002 A 
HETATM   18  C   UNK N   1      28.840  22.158  -6.222  0.00  0.00     0.009 A 
HETATM   19  C   UNK N   1      30.901  22.414  -4.721  0.00  0.00     0.042 C 
HETATM   20  C   UNK N   1      31.215  23.078  -3.357  0.00  0.00     0.025 C 
ENDBRANCH   2   9
BRANCH   1  21
HETATM   21  C   UNK N   1      27.575  28.035  -6.793  0.00  0.00    -0.016 A 
HETATM   22  C   UNK N   1      27.208  27.324  -7.902  0.00  0.00    -0.001 A 
HETATM   23  C   UNK N   1      28.106  27.632  -8.884  0.00  0.00     0.042 A 
HETATM   24  C   UNK N   1      26.165  26.426  -8.109  0.00  0.00     0.014 A 
HETATM   25  C   UNK N   1      28.034  27.062 -10.150  0.00  0.00     0.030 A 
HETATM   26  N   UNK N   1      29.020  28.516  -8.447  0.00  0.00    -0.365 N 
HETATM   27  C   UNK N   1      26.991  26.151 -10.397  0.00  0.00     0.002 A 
HETATM   28  C   UNK N   1      26.058  25.837  -9.381  0.00  0.00     0.001 A 
HETATM   29  C   UNK N   1      28.697  28.777  -7.156  0.00  0.00     0.097 A 
HETATM   30  H   UNK N   1      29.769  28.897  -8.959  0.00  0.00     0.165 HD
ENDBRANCH   1  21
TORSDOF 2
ENDMDL
MODEL 9
REMARK VINA RESULT:      -7.5      8.877     12.134
REMARK  2 active torsions:
REMARK  status: ('A' for Active; 'I' for Inactive)
REMARK    1  A    between atoms: C_10  and  C_7 
REMARK    2  A    between atoms: C_11  and  C_17 
ROOT
HETATM    1  C   UNK N   1      21.390  16.392   4.108  0.00  0.00     0.131 A 
HETATM    2  C   UNK N   1      20.941  14.955   4.447  0.00  0.00     0.131 A 
HETATM    3  C   UNK N   1      19.459  15.097   4.158  0.00  0.00     0.234 A 
HETATM    4  O   UNK N   1      18.658  14.182   4.267  0.00  0.00    -0.272 OA
HETATM    5  N   UNK N   1      19.092  16.320   3.738  0.00  0.00    -0.296 N 
HETATM    6  C   UNK N   1      20.164  17.113   3.698  0.00  0.00     0.234 A 
HETATM    7  O   UNK N   1      20.110  18.289   3.381  0.00  0.00    -0.272 OA
HETATM    8  H   UNK N   1      18.175  16.589   3.498  0.00  0.00     0.171 HD
ENDROOT
BRANCH   2   9
HETATM    9  C   UNK N   1      21.308  14.634   5.869  0.00  0.00    -0.016 A 
HETATM   10  C   UNK N   1      20.459  14.864   6.960  0.00  0.00     0.100 A 
HETATM   11  N   UNK N   1      21.047  14.379   8.072  0.00  0.00    -0.355 N 
HETATM   12  C   UNK N   1      22.228  13.873   7.714  0.00  0.00     0.051 A 
HETATM   13  C   UNK N   1      20.532  14.352   9.438  0.00  0.00     0.129 C 
HETATM   14  C   UNK N   1      22.441  14.013   6.377  0.00  0.00    -0.000 A 
HETATM   15  C   UNK N   1      23.117  13.267   8.571  0.00  0.00    -0.030 A 
HETATM   16  C   UNK N   1      23.613  13.531   5.793  0.00  0.00     0.014 A 
HETATM   17  C   UNK N   1      24.566  12.916   6.638  0.00  0.00     0.002 A 
HETATM   18  C   UNK N   1      24.319  12.782   8.029  0.00  0.00     0.009 A 
HETATM   19  C   UNK N   1      22.761  13.157  10.028  0.00  0.00     0.042 C 
HETATM   20  C   UNK N   1      21.230  13.240  10.252  0.00  0.00     0.025 C 
ENDBRANCH   2   9
BRANCH   1  21
HETATM   21  C   UNK N   1      22.710  17.025   4.428  0.00  0.00    -0.016 A 
HETATM   22  C   UNK N   1      23.932  16.684   3.919  0.00  0.00    -0.001 A 
HETATM   23  C   UNK N   1      24.850  17.498   4.520  0.00  0.00     0.042 A 
HETATM   24  C   UNK N   1      24.299  15.716   2.989  0.00  0.00     0.014 A 
HETATM   25  C   UNK N   1      26.209  17.405   4.240  0.00  0.00     0.030 A 
HETATM   26  N   UNK N   1      24.259  18.347   5.379  0.00  0.00    -0.365 N 
HETATM   27  C   UNK N   1      26.617  16.438   3.302  0.00  0.00     0.002 A 
HETATM   28  C   UNK N   1      25.665  15.599   2.678  0.00  0.00     0.001 A 
HETATM   29  C   UNK N   1      22.933  18.066   5.325  0.00  0.00     0.097 A 
HETATM   30  H   UNK N   1      24.699  19.032   5.932  0.00  0.00     0.165 HD
ENDBRANCH   1  21
TORSDOF 2
ENDMDL
