REMARK  19 active torsions:
REMARK  status: ('A' for Active; 'I' for Inactive)
REMARK    1  A    between atoms: C_4  and  O_57 
REMARK    2  A    between atoms: C_8  and  O_55 
REMARK    3  A    between atoms: C_11  and  O_50 
REMARK    4  A    between atoms: C_13  and  O_39 
REMARK    5  A    between atoms: C_14  and  O_38 
REMARK    6  A    between atoms: C_19  and  O_20 
REMARK    7  A    between atoms: O_20  and  C_21 
REMARK    8  A    between atoms: C_21  and  C_23 
REMARK    9  A    between atoms: C_23  and  C_24 
REMARK   10  A    between atoms: C_23  and  O_37 
REMARK   11  A    between atoms: C_24  and  C_25 
REMARK   12  A    between atoms: C_24  and  N_29 
REMARK       I    between atoms: N_29  and  C_30 
REMARK   13  A    between atoms: C_30  and  O_32 
REMARK   14  A    between atoms: O_32  and  C_33 
REMARK   15  A    between atoms: O_39  and  C_40 
REMARK   16  A    between atoms: C_40  and  C_42 
REMARK   17  A    between atoms: O_50  and  C_51 
REMARK   18  A    between atoms: C_51  and  O_53 
REMARK   19  A    between atoms: O_57  and  C_58 
ROOT
HETATM    1  C   UNK N   1      -1.890  -1.431  -1.823  0.00  0.00     0.046 C 
HETATM    2  C   UNK N   1      -0.895  -0.610  -1.072  0.00  0.00    -0.048 C 
HETATM    3  C   UNK N   1       0.299  -1.126  -0.687  0.00  0.00    -0.028 C 
HETATM    4  C   UNK N   1       1.009  -2.515  -0.831  0.00  0.00     0.232 C 
HETATM    5  C   UNK N   1       2.647  -2.547  -0.570  0.00  0.00     0.171 C 
HETATM    6  O   UNK N   1       3.187  -3.454  -1.186  0.00  0.00    -0.294 OA
HETATM    7  C   UNK N   1       3.694  -1.533   0.319  0.00  0.00     0.055 C 
HETATM    8  C   UNK N   1       5.112  -2.110   0.127  0.00  0.00     0.137 C 
HETATM    9  C   UNK N   1       5.700  -1.699  -1.192  0.00  0.00     0.068 C 
HETATM   10  C   UNK N   1       6.210  -0.270  -1.040  0.00  0.00     0.162 A 
HETATM   11  C   UNK N   1       5.294   0.685  -0.286  0.00  0.00     0.127 A 
HETATM   12  C   UNK N   1       3.871   0.183   0.126  0.00  0.00     0.076 C 
HETATM   13  C   UNK N   1       2.744   1.460   0.277  0.00  0.00     0.176 C 
HETATM   14  C   UNK N   1       1.181   1.201   0.170  0.00  0.00     0.098 C 
HETATM   15  C   UNK N   1       1.216  -0.224  -0.166  0.00  0.00     0.013 C 
HETATM   16  C   UNK N   1       1.228  -0.866   1.256  0.00  0.00     0.023 C 
HETATM   17  C   UNK N   1       1.968  -0.183  -1.613  0.00  0.00     0.023 C 
HETATM   18  C   UNK N   1       0.156   1.734  -0.905  0.00  0.00     0.078 C 
HETATM   19  C   UNK N   1      -1.169   0.888  -0.744  0.00  0.00     0.164 C 
HETATM   20  C   UNK N   1       6.349   0.559   0.794  0.00  0.00     0.210 A 
HETATM   21  O   UNK N   1       7.184  -0.229  -0.022  0.00  0.00    -0.380 OA
HETATM   22  C   UNK N   1       3.589  -1.826   1.822  0.00  0.00     0.027 C 
ENDROOT
BRANCH  19  23
HETATM   23  O   UNK N   1      -1.444   0.968   0.609  0.00  0.00    -0.309 OA
BRANCH  23  24
HETATM   24  C   UNK N   1      -2.481   1.573   1.213  0.00  0.00     0.290 C 
HETATM   25  O   UNK N   1      -2.404   1.856   2.397  0.00  0.00    -0.262 OA
BRANCH  24  26
HETATM   26  C   UNK N   1      -3.749   1.768   0.491  0.00  0.00     0.241 C 
BRANCH  26  27
HETATM   27  C   UNK N   1      -4.117   0.387  -0.074  0.00  0.00     0.132 C 
BRANCH  27  28
HETATM   28  C   UNK N   1      -4.356  -0.777   0.945  0.00  0.00    -0.028 C 
HETATM   29  C   UNK N   1      -4.877  -0.281   2.285  0.00  0.00     0.016 C 
HETATM   30  C   UNK N   1      -3.044  -1.498   1.202  0.00  0.00     0.016 C 
HETATM   31  C   UNK N   1      -5.326  -1.813   0.413  0.00  0.00     0.016 C 
ENDBRANCH  27  28
BRANCH  27  32
HETATM   32  N   UNK N   1      -4.999   0.461  -1.211  0.00  0.00    -0.329 N 
HETATM   33  C   UNK N   1      -6.285   0.857  -1.135  0.00  0.00     0.361 C 
HETATM   34  O   UNK N   1      -6.947   0.925  -2.152  0.00  0.00    -0.238 OA
HETATM   35  H   UNK N   1      -4.642   0.209  -2.094  0.00  0.00     0.165 HD
BRANCH  33  36
HETATM   36  O   UNK N   1      -6.828   1.156   0.079  0.00  0.00    -0.294 OA
BRANCH  36  37
HETATM   37  C   UNK N   1      -8.157   1.472   0.288  0.00  0.00     0.061 C 
HETATM   38  C   UNK N   1      -8.367   1.699   1.769  0.00  0.00     0.046 C 
HETATM   39  C   UNK N   1      -9.053   0.325  -0.151  0.00  0.00     0.046 C 
HETATM   40  C   UNK N   1      -8.538   2.743  -0.453  0.00  0.00     0.046 C 
ENDBRANCH  36  37
ENDBRANCH  33  36
ENDBRANCH  27  32
ENDBRANCH  26  27
BRANCH  26  41
HETATM   41  O   UNK N   1      -3.549   2.694  -0.535  0.00  0.00    -0.383 OA
HETATM   42  H   UNK N   1      -2.922   2.895  -1.248  0.00  0.00     0.210 HD
ENDBRANCH  26  41
ENDBRANCH  24  26
ENDBRANCH  23  24
ENDBRANCH  19  23
BRANCH  14  43
HETATM   43  O   UNK N   1       0.693   1.530   1.456  0.00  0.00    -0.386 OA
HETATM   44  H   UNK N   1       0.721   1.933   2.338  0.00  0.00     0.210 HD
ENDBRANCH  14  43
BRANCH  13  45
HETATM   45  O   UNK N   1       3.138   2.817   0.380  0.00  0.00    -0.308 OA
BRANCH  45  46
HETATM   46  C   UNK N   1       2.292   3.923   0.425  0.00  0.00     0.293 C 
HETATM   47  O   UNK N   1       1.084   3.790   0.505  0.00  0.00    -0.259 OA
BRANCH  46  48
HETATM   48  C   UNK N   1       2.776   5.316   0.360  0.00  0.00     0.039 A 
HETATM   49  C   UNK N   1       1.825   6.351   0.247  0.00  0.00     0.017 A 
HETATM   50  C   UNK N   1       2.223   7.684   0.167  0.00  0.00     0.001 A 
HETATM   51  C   UNK N   1       3.580   8.000   0.209  0.00  0.00     0.000 A 
HETATM   52  C   UNK N   1       4.531   6.981   0.331  0.00  0.00     0.001 A 
HETATM   53  C   UNK N   1       4.129   5.640   0.402  0.00  0.00     0.017 A 
ENDBRANCH  46  48
ENDBRANCH  45  46
ENDBRANCH  13  45
BRANCH   4  54
HETATM   54  O   UNK N   1       0.246  -3.524  -0.261  0.00  0.00    -0.304 OA
BRANCH  54  55
HETATM   55  C   UNK N   1       0.548  -4.289   0.818  0.00  0.00     0.255 C 
HETATM   56  O   UNK N   1       1.630  -4.210   1.375  0.00  0.00    -0.266 OA
HETATM   57  C   UNK N   1      -0.481  -5.224   1.351  0.00  0.00     0.126 C 
ENDBRANCH  54  55
ENDBRANCH   4  54
BRANCH  11  58
HETATM   58  O   UNK N   1       5.307   1.889  -0.981  0.00  0.00    -0.281 OA
BRANCH  58  59
HETATM   59  C   UNK N   1       5.848   3.064  -0.558  0.00  0.00     0.407 C 
HETATM   60  O   UNK N   1       6.094   3.252   0.627  0.00  0.00    -0.229 OA
BRANCH  59  61
HETATM   61  O   UNK N   1       6.116   4.025  -1.473  0.00  0.00    -0.303 OA
HETATM   62  C   UNK N   1       6.788   5.181  -1.152  0.00  0.00     0.215 C 
ENDBRANCH  59  61
ENDBRANCH  58  59
ENDBRANCH  11  58
BRANCH   8  63
HETATM   63  O   UNK N   1       5.224  -3.490   0.345  0.00  0.00    -0.394 OA
HETATM   64  H   UNK N   1       4.435  -4.034   0.496  0.00  0.00     0.210 HD
ENDBRANCH   8  63
TORSDOF 19
