MODEL 1
REMARK VINA RESULT:      -6.8      0.000      0.000
REMARK  7 active torsions:
REMARK  status: ('A' for Active; 'I' for Inactive)
REMARK    1  A    between atoms: C_2  and  C_3 
REMARK    2  A    between atoms: C_3  and  N_4 
REMARK    3  A    between atoms: N_7  and  C_10 
REMARK    4  A    between atoms: C_13  and  C_16 
REMARK       I    between atoms: C_16  and  N_18 
REMARK    5  A    between atoms: N_18  and  C_19 
REMARK    6  A    between atoms: C_19  and  C_25 
REMARK       I    between atoms: C_25  and  N_27 
REMARK    7  A    between atoms: N_27  and  C_28 
ROOT
HETATM    1  C   UNK N   1      30.447  24.305  -4.077  0.00  0.00     0.247 C 
HETATM    2  C   UNK N   1      30.448  23.548  -2.816  0.00  0.00     0.078 C 
HETATM    3  N   UNK N   1      30.441  22.972  -1.812  0.00  0.00    -0.196 NA
ENDROOT
BRANCH   1   4
HETATM    4  N   UNK N   1      29.990  25.665  -3.860  0.00  0.00    -0.347 N 
HETATM    5  C   UNK N   1      29.317  26.362  -4.813  0.00  0.00     0.246 C 
HETATM    6  O   UNK N   1      29.149  25.867  -5.919  0.00  0.00    -0.271 OA
HETATM    7  H   UNK N   1      30.174  26.096  -2.994  0.00  0.00     0.163 HD
BRANCH   5   8
HETATM    8  C   UNK N   1      28.847  27.785  -4.584  0.00  0.00     0.114 C 
HETATM    9  C   UNK N   1      30.078  28.486  -3.975  0.00  0.00     0.041 C 
HETATM   10  C   UNK N   1      30.262  29.955  -4.368  0.00  0.00     0.003 C 
HETATM   11  C   UNK N   1      28.924  30.642  -4.597  0.00  0.00     0.000 C 
HETATM   12  C   UNK N   1      28.114  29.953  -5.706  0.00  0.00     0.003 C 
HETATM   13  C   UNK N   1      28.475  28.466  -5.911  0.00  0.00     0.041 C 
BRANCH   8  14
HETATM   14  N   UNK N   1      27.751  27.999  -3.654  0.00  0.00    -0.339 N 
HETATM   15  C   UNK N   1      26.464  27.540  -3.637  0.00  0.00     0.252 C 
HETATM   16  O   UNK N   1      25.672  28.155  -2.938  0.00  0.00    -0.268 OA
HETATM   17  H   UNK N   1      27.978  28.581  -2.893  0.00  0.00     0.164 HD
BRANCH  15  18
HETATM   18  C   UNK N   1      25.938  26.312  -4.306  0.00  0.00     0.032 C 
HETATM   19  C   UNK N   1      25.479  26.329  -5.626  0.00  0.00     0.019 C 
HETATM   20  C   UNK N   1      25.562  25.172  -6.419  0.00  0.00     0.030 C 
HETATM   21  C   UNK N   1      26.080  23.985  -5.871  0.00  0.00     0.030 C 
HETATM   22  C   UNK N   1      26.361  23.938  -4.503  0.00  0.00     0.030 C 
HETATM   23  C   UNK N   1      26.313  25.088  -3.739  0.00  0.00     0.019 C 
BRANCH  21  24
HETATM   24  N   UNK N   1      26.500  22.897  -6.692  0.00  0.00    -0.378 N 
HETATM   25  C   UNK N   1      25.679  22.390  -7.778  0.00  0.00     0.153 C 
HETATM   26  C   UNK N   1      26.414  22.573  -9.134  0.00  0.00     0.292 C 
HETATM   27  N   UNK N   1      27.828  22.147  -9.088  0.00  0.00     0.091 N 
HETATM   28  C   UNK N   1      28.512  22.864  -8.004  0.00  0.00     0.292 C 
HETATM   29  C   UNK N   1      27.887  22.502  -6.660  0.00  0.00     0.153 C 
BRANCH  27  30
HETATM   30  C   UNK N   1      27.898  20.683  -8.924  0.00  0.00     0.272 C 
BRANCH  30  31
HETATM   31  C   UNK N   1      29.331  20.137  -8.897  0.00  0.00     0.026 C 
HETATM   32  C   UNK N   1      29.506  19.097  -7.814  0.00  0.00     0.007 C 
ENDBRANCH  30  31
ENDBRANCH  27  30
ENDBRANCH  21  24
ENDBRANCH  15  18
ENDBRANCH   8  14
ENDBRANCH   5   8
ENDBRANCH   1   4
TORSDOF 7
ENDMDL
MODEL 2
REMARK VINA RESULT:      -6.8     12.550     16.245
REMARK  7 active torsions:
REMARK  status: ('A' for Active; 'I' for Inactive)
REMARK    1  A    between atoms: C_2  and  C_3 
REMARK    2  A    between atoms: C_3  and  N_4 
REMARK    3  A    between atoms: N_7  and  C_10 
REMARK    4  A    between atoms: C_13  and  C_16 
REMARK       I    between atoms: C_16  and  N_18 
REMARK    5  A    between atoms: N_18  and  C_19 
REMARK    6  A    between atoms: C_19  and  C_25 
REMARK       I    between atoms: C_25  and  N_27 
REMARK    7  A    between atoms: N_27  and  C_28 
ROOT
HETATM    1  C   UNK N   1      30.447  18.231   8.944  0.00  0.00     0.247 C 
HETATM    2  C   UNK N   1      29.169  17.666   9.404  0.00  0.00     0.078 C 
HETATM    3  N   UNK N   1      28.174  17.201   9.769  0.00  0.00    -0.196 NA
ENDROOT
BRANCH   1   4
HETATM    4  N   UNK N   1      31.507  17.245   9.034  0.00  0.00    -0.347 N 
HETATM    5  C   UNK N   1      32.774  17.505   8.617  0.00  0.00     0.246 C 
HETATM    6  O   UNK N   1      33.026  18.575   8.079  0.00  0.00    -0.271 OA
HETATM    7  H   UNK N   1      31.301  16.358   9.409  0.00  0.00     0.163 HD
BRANCH   5   8
HETATM    8  C   UNK N   1      33.878  16.471   8.708  0.00  0.00     0.114 C 
HETATM    9  C   UNK N   1      34.783  16.996   9.840  0.00  0.00     0.041 C 
HETATM   10  C   UNK N   1      35.438  15.921  10.714  0.00  0.00     0.003 C 
HETATM   11  C   UNK N   1      35.726  14.656   9.919  0.00  0.00     0.000 C 
HETATM   12  C   UNK N   1      34.444  14.061   9.316  0.00  0.00     0.003 C 
HETATM   13  C   UNK N   1      33.317  15.094   9.099  0.00  0.00     0.041 C 
BRANCH   8  14
HETATM   14  N   UNK N   1      34.736  16.287   7.548  0.00  0.00    -0.339 N 
HETATM   15  C   UNK N   1      34.483  15.820   6.290  0.00  0.00     0.252 C 
HETATM   16  O   UNK N   1      35.448  15.446   5.640  0.00  0.00    -0.268 OA
HETATM   17  H   UNK N   1      35.673  16.549   7.697  0.00  0.00     0.164 HD
BRANCH  15  18
HETATM   18  C   UNK N   1      33.166  15.803   5.585  0.00  0.00     0.032 C 
HETATM   19  C   UNK N   1      32.175  14.866   5.892  0.00  0.00     0.019 C 
HETATM   20  C   UNK N   1      30.819  15.187   5.712  0.00  0.00     0.030 C 
HETATM   21  C   UNK N   1      30.460  16.442   5.191  0.00  0.00     0.030 C 
HETATM   22  C   UNK N   1      31.466  17.291   4.719  0.00  0.00     0.030 C 
HETATM   23  C   UNK N   1      32.796  16.986   4.934  0.00  0.00     0.019 C 
BRANCH  21  24
HETATM   24  N   UNK N   1      29.132  16.952   5.299  0.00  0.00    -0.378 N 
HETATM   25  C   UNK N   1      28.860  18.298   5.772  0.00  0.00     0.153 C 
HETATM   26  C   UNK N   1      28.168  19.127   4.657  0.00  0.00     0.292 C 
HETATM   27  N   UNK N   1      27.067  18.400   3.994  0.00  0.00     0.091 N 
HETATM   28  C   UNK N   1      27.575  17.122   3.477  0.00  0.00     0.292 C 
HETATM   29  C   UNK N   1      28.066  16.249   4.628  0.00  0.00     0.153 C 
BRANCH  27  30
HETATM   30  C   UNK N   1      25.953  18.217   4.943  0.00  0.00     0.272 C 
BRANCH  30  31
HETATM   31  C   UNK N   1      24.691  19.004   4.567  0.00  0.00     0.026 C 
HETATM   32  C   UNK N   1      24.896  19.802   3.299  0.00  0.00     0.007 C 
ENDBRANCH  30  31
ENDBRANCH  27  30
ENDBRANCH  21  24
ENDBRANCH  15  18
ENDBRANCH   8  14
ENDBRANCH   5   8
ENDBRANCH   1   4
TORSDOF 7
ENDMDL
MODEL 3
REMARK VINA RESULT:      -6.8      2.636      4.088
REMARK  7 active torsions:
REMARK  status: ('A' for Active; 'I' for Inactive)
REMARK    1  A    between atoms: C_2  and  C_3 
REMARK    2  A    between atoms: C_3  and  N_4 
REMARK    3  A    between atoms: N_7  and  C_10 
REMARK    4  A    between atoms: C_13  and  C_16 
REMARK       I    between atoms: C_16  and  N_18 
REMARK    5  A    between atoms: N_18  and  C_19 
REMARK    6  A    between atoms: C_19  and  C_25 
REMARK       I    between atoms: C_25  and  N_27 
REMARK    7  A    between atoms: N_27  and  C_28 
ROOT
HETATM    1  C   UNK N   1      28.269  23.275  -2.816  0.00  0.00     0.247 C 
HETATM    2  C   UNK N   1      29.589  23.132  -2.182  0.00  0.00     0.078 C 
HETATM    3  N   UNK N   1      30.633  23.041  -1.692  0.00  0.00    -0.196 NA
ENDROOT
BRANCH   1   4
HETATM    4  N   UNK N   1      28.151  24.563  -3.473  0.00  0.00    -0.347 N 
HETATM    5  C   UNK N   1      26.946  25.093  -3.813  0.00  0.00     0.246 C 
HETATM    6  O   UNK N   1      25.926  24.441  -3.633  0.00  0.00    -0.271 OA
HETATM    7  H   UNK N   1      28.970  25.069  -3.679  0.00  0.00     0.163 HD
BRANCH   5   8
HETATM    8  C   UNK N   1      26.827  26.436  -4.505  0.00  0.00     0.114 C 
HETATM    9  C   UNK N   1      25.974  27.276  -3.533  0.00  0.00     0.041 C 
HETATM   10  C   UNK N   1      26.324  28.766  -3.466  0.00  0.00     0.003 C 
HETATM   11  C   UNK N   1      26.832  29.279  -4.806  0.00  0.00     0.000 C 
HETATM   12  C   UNK N   1      28.085  28.518  -5.267  0.00  0.00     0.003 C 
HETATM   13  C   UNK N   1      28.204  27.096  -4.677  0.00  0.00     0.041 C 
BRANCH   8  14
HETATM   14  N   UNK N   1      26.149  26.482  -5.790  0.00  0.00    -0.339 N 
HETATM   15  C   UNK N   1      26.487  25.991  -7.019  0.00  0.00     0.252 C 
HETATM   16  O   UNK N   1      25.909  26.475  -7.981  0.00  0.00    -0.268 OA
HETATM   17  H   UNK N   1      25.285  26.955  -5.772  0.00  0.00     0.164 HD
BRANCH  15  18
HETATM   18  C   UNK N   1      27.417  24.858  -7.310  0.00  0.00     0.032 C 
HETATM   19  C   UNK N   1      28.787  25.059  -7.504  0.00  0.00     0.019 C 
HETATM   20  C   UNK N   1      29.703  24.044  -7.181  0.00  0.00     0.030 C 
HETATM   21  C   UNK N   1      29.237  22.812  -6.691  0.00  0.00     0.030 C 
HETATM   22  C   UNK N   1      27.861  22.566  -6.679  0.00  0.00     0.030 C 
HETATM   23  C   UNK N   1      26.966  23.580  -6.961  0.00  0.00     0.019 C 
BRANCH  21  24
HETATM   24  N   UNK N   1      30.102  21.884  -6.038  0.00  0.00    -0.378 N 
HETATM   25  C   UNK N   1      30.078  20.464  -6.343  0.00  0.00     0.153 C 
HETATM   26  C   UNK N   1      31.449  20.019  -6.920  0.00  0.00     0.292 C 
HETATM   27  N   UNK N   1      32.597  20.533  -6.146  0.00  0.00     0.091 N 
HETATM   28  C   UNK N   1      32.501  21.996  -6.056  0.00  0.00     0.292 C 
HETATM   29  C   UNK N   1      31.234  22.393  -5.304  0.00  0.00     0.153 C 
BRANCH  27  30
HETATM   30  C   UNK N   1      32.627  19.891  -4.818  0.00  0.00     0.272 C 
BRANCH  30  31
HETATM   31  C   UNK N   1      33.873  20.242  -3.995  0.00  0.00     0.026 C 
HETATM   32  C   UNK N   1      33.504  20.951  -2.711  0.00  0.00     0.007 C 
ENDBRANCH  30  31
ENDBRANCH  27  30
ENDBRANCH  21  24
ENDBRANCH  15  18
ENDBRANCH   8  14
ENDBRANCH   5   8
ENDBRANCH   1   4
TORSDOF 7
ENDMDL
MODEL 4
REMARK VINA RESULT:      -6.7      3.355      5.707
REMARK  7 active torsions:
REMARK  status: ('A' for Active; 'I' for Inactive)
REMARK    1  A    between atoms: C_2  and  C_3 
REMARK    2  A    between atoms: C_3  and  N_4 
REMARK    3  A    between atoms: N_7  and  C_10 
REMARK    4  A    between atoms: C_13  and  C_16 
REMARK       I    between atoms: C_16  and  N_18 
REMARK    5  A    between atoms: N_18  and  C_19 
REMARK    6  A    between atoms: C_19  and  C_25 
REMARK       I    between atoms: C_25  and  N_27 
REMARK    7  A    between atoms: N_27  and  C_28 
ROOT
HETATM    1  C   UNK N   1      26.331  24.213  -9.033  0.00  0.00     0.247 C 
HETATM    2  C   UNK N   1      25.308  24.699  -9.974  0.00  0.00     0.078 C 
HETATM    3  N   UNK N   1      24.502  25.100 -10.700  0.00  0.00    -0.196 NA
ENDROOT
BRANCH   1   4
HETATM    4  N   UNK N   1      26.535  25.167  -7.960  0.00  0.00    -0.347 N 
HETATM    5  C   UNK N   1      25.991  24.993  -6.726  0.00  0.00     0.246 C 
HETATM    6  O   UNK N   1      25.243  24.046  -6.522  0.00  0.00    -0.271 OA
HETATM    7  H   UNK N   1      27.085  25.965  -8.130  0.00  0.00     0.163 HD
BRANCH   5   8
HETATM    8  C   UNK N   1      26.202  25.994  -5.608  0.00  0.00     0.114 C 
HETATM    9  C   UNK N   1      27.573  26.622  -5.930  0.00  0.00     0.041 C 
HETATM   10  C   UNK N   1      27.719  28.105  -5.573  0.00  0.00     0.003 C 
HETATM   11  C   UNK N   1      26.887  28.469  -4.352  0.00  0.00     0.000 C 
HETATM   12  C   UNK N   1      25.395  28.180  -4.575  0.00  0.00     0.003 C 
HETATM   13  C   UNK N   1      25.121  27.086  -5.630  0.00  0.00     0.041 C 
BRANCH   8  14
HETATM   14  N   UNK N   1      26.292  25.487  -4.248  0.00  0.00    -0.339 N 
HETATM   15  C   UNK N   1      27.106  24.551  -3.675  0.00  0.00     0.252 C 
HETATM   16  O   UNK N   1      26.731  24.076  -2.613  0.00  0.00    -0.268 OA
HETATM   17  H   UNK N   1      25.648  25.894  -3.624  0.00  0.00     0.164 HD
BRANCH  15  18
HETATM   18  C   UNK N   1      28.451  24.114  -4.154  0.00  0.00     0.032 C 
HETATM   19  C   UNK N   1      29.615  24.372  -3.425  0.00  0.00     0.019 C 
HETATM   20  C   UNK N   1      30.717  23.505  -3.520  0.00  0.00     0.030 C 
HETATM   21  C   UNK N   1      30.658  22.393  -4.377  0.00  0.00     0.030 C 
HETATM   22  C   UNK N   1      29.562  22.255  -5.234  0.00  0.00     0.030 C 
HETATM   23  C   UNK N   1      28.467  23.088  -5.107  0.00  0.00     0.019 C 
BRANCH  21  24
HETATM   24  N   UNK N   1      31.581  21.309  -4.271  0.00  0.00    -0.378 N 
HETATM   25  C   UNK N   1      31.522  20.159  -5.156  0.00  0.00     0.153 C 
HETATM   26  C   UNK N   1      32.827  20.060  -5.992  0.00  0.00     0.292 C 
HETATM   27  N   UNK N   1      34.049  20.238  -5.181  0.00  0.00     0.091 N 
HETATM   28  C   UNK N   1      33.967  21.515  -4.460  0.00  0.00     0.292 C 
HETATM   29  C   UNK N   1      32.783  21.499  -3.498  0.00  0.00     0.153 C 
BRANCH  27  30
HETATM   30  C   UNK N   1      34.209  19.089  -4.270  0.00  0.00     0.272 C 
BRANCH  30  31
HETATM   31  C   UNK N   1      35.161  18.011  -4.803  0.00  0.00     0.026 C 
HETATM   32  C   UNK N   1      34.934  16.684  -4.116  0.00  0.00     0.007 C 
ENDBRANCH  30  31
ENDBRANCH  27  30
ENDBRANCH  21  24
ENDBRANCH  15  18
ENDBRANCH   8  14
ENDBRANCH   5   8
ENDBRANCH   1   4
TORSDOF 7
ENDMDL
MODEL 5
REMARK VINA RESULT:      -6.5      3.344      5.521
REMARK  7 active torsions:
REMARK  status: ('A' for Active; 'I' for Inactive)
REMARK    1  A    between atoms: C_2  and  C_3 
REMARK    2  A    between atoms: C_3  and  N_4 
REMARK    3  A    between atoms: N_7  and  C_10 
REMARK    4  A    between atoms: C_13  and  C_16 
REMARK       I    between atoms: C_16  and  N_18 
REMARK    5  A    between atoms: N_18  and  C_19 
REMARK    6  A    between atoms: C_19  and  C_25 
REMARK       I    between atoms: C_25  and  N_27 
REMARK    7  A    between atoms: N_27  and  C_28 
ROOT
HETATM    1  C   UNK N   1      28.893  29.704  -1.981  0.00  0.00     0.247 C 
HETATM    2  C   UNK N   1      28.635  29.882  -0.543  0.00  0.00     0.078 C 
HETATM    3  N   UNK N   1      28.412  30.009   0.585  0.00  0.00    -0.196 NA
ENDROOT
BRANCH   1   4
HETATM    4  N   UNK N   1      27.856  28.896  -2.593  0.00  0.00    -0.347 N 
HETATM    5  C   UNK N   1      28.143  27.874  -3.442  0.00  0.00     0.246 C 
HETATM    6  O   UNK N   1      29.303  27.666  -3.768  0.00  0.00    -0.271 OA
HETATM    7  H   UNK N   1      26.914  29.094  -2.385  0.00  0.00     0.163 HD
BRANCH   5   8
HETATM    8  C   UNK N   1      27.056  27.036  -4.085  0.00  0.00     0.114 C 
HETATM    9  C   UNK N   1      25.828  27.968  -4.092  0.00  0.00     0.041 C 
HETATM   10  C   UNK N   1      24.893  27.819  -5.297  0.00  0.00     0.003 C 
HETATM   11  C   UNK N   1      24.872  26.388  -5.813  0.00  0.00     0.000 C 
HETATM   12  C   UNK N   1      26.272  25.916  -6.236  0.00  0.00     0.003 C 
HETATM   13  C   UNK N   1      27.423  26.664  -5.530  0.00  0.00     0.041 C 
BRANCH   8  14
HETATM   14  N   UNK N   1      26.643  25.819  -3.405  0.00  0.00    -0.339 N 
HETATM   15  C   UNK N   1      27.158  24.553  -3.405  0.00  0.00     0.252 C 
HETATM   16  O   UNK N   1      26.414  23.659  -3.029  0.00  0.00    -0.268 OA
HETATM   17  H   UNK N   1      25.845  25.926  -2.838  0.00  0.00     0.164 HD
BRANCH  15  18
HETATM   18  C   UNK N   1      28.562  24.153  -3.723  0.00  0.00     0.032 C 
HETATM   19  C   UNK N   1      29.572  24.172  -2.757  0.00  0.00     0.019 C 
HETATM   20  C   UNK N   1      30.656  23.283  -2.851  0.00  0.00     0.030 C 
HETATM   21  C   UNK N   1      30.740  22.395  -3.937  0.00  0.00     0.030 C 
HETATM   22  C   UNK N   1      29.822  22.518  -4.984  0.00  0.00     0.030 C 
HETATM   23  C   UNK N   1      28.738  23.367  -4.868  0.00  0.00     0.019 C 
BRANCH  21  24
HETATM   24  N   UNK N   1      31.607  21.261  -3.919  0.00  0.00    -0.378 N 
HETATM   25  C   UNK N   1      31.407  20.126  -4.803  0.00  0.00     0.153 C 
HETATM   26  C   UNK N   1      32.626  19.965  -5.751  0.00  0.00     0.292 C 
HETATM   27  N   UNK N   1      33.922  20.066  -5.050  0.00  0.00     0.091 N 
HETATM   28  C   UNK N   1      33.975  21.338  -4.316  0.00  0.00     0.292 C 
HETATM   29  C   UNK N   1      32.881  21.376  -3.253  0.00  0.00     0.153 C 
BRANCH  27  30
HETATM   30  C   UNK N   1      34.097  18.901  -4.163  0.00  0.00     0.272 C 
BRANCH  30  31
HETATM   31  C   UNK N   1      34.943  17.781  -4.782  0.00  0.00     0.026 C 
HETATM   32  C   UNK N   1      34.943  16.544  -3.913  0.00  0.00     0.007 C 
ENDBRANCH  30  31
ENDBRANCH  27  30
ENDBRANCH  21  24
ENDBRANCH  15  18
ENDBRANCH   8  14
ENDBRANCH   5   8
ENDBRANCH   1   4
TORSDOF 7
ENDMDL
MODEL 6
REMARK VINA RESULT:      -6.5      2.285      7.347
REMARK  7 active torsions:
REMARK  status: ('A' for Active; 'I' for Inactive)
REMARK    1  A    between atoms: C_2  and  C_3 
REMARK    2  A    between atoms: C_3  and  N_4 
REMARK    3  A    between atoms: N_7  and  C_10 
REMARK    4  A    between atoms: C_13  and  C_16 
REMARK       I    between atoms: C_16  and  N_18 
REMARK    5  A    between atoms: N_18  and  C_19 
REMARK    6  A    between atoms: C_19  and  C_25 
REMARK       I    between atoms: C_25  and  N_27 
REMARK    7  A    between atoms: N_27  and  C_28 
ROOT
HETATM    1  C   UNK N   1      28.988  24.728  -3.935  0.00  0.00     0.247 C 
HETATM    2  C   UNK N   1      29.537  23.768  -2.964  0.00  0.00     0.078 C 
HETATM    3  N   UNK N   1      29.957  22.995  -2.212  0.00  0.00    -0.196 NA
ENDROOT
BRANCH   1   4
HETATM    4  N   UNK N   1      28.094  24.064  -4.865  0.00  0.00    -0.347 N 
HETATM    5  C   UNK N   1      28.360  23.993  -6.195  0.00  0.00     0.246 C 
HETATM    6  O   UNK N   1      29.342  24.566  -6.648  0.00  0.00    -0.271 OA
HETATM    7  H   UNK N   1      27.269  23.652  -4.520  0.00  0.00     0.163 HD
BRANCH   5   8
HETATM    8  C   UNK N   1      27.422  23.303  -7.166  0.00  0.00     0.114 C 
HETATM    9  C   UNK N   1      28.190  22.032  -7.580  0.00  0.00     0.041 C 
HETATM   10  C   UNK N   1      27.327  20.793  -7.837  0.00  0.00     0.003 C 
HETATM   11  C   UNK N   1      25.958  21.172  -8.386  0.00  0.00     0.000 C 
HETATM   12  C   UNK N   1      25.195  22.090  -7.420  0.00  0.00     0.003 C 
HETATM   13  C   UNK N   1      26.107  22.903  -6.477  0.00  0.00     0.041 C 
BRANCH   8  14
HETATM   14  N   UNK N   1      27.084  23.998  -8.397  0.00  0.00    -0.339 N 
HETATM   15  C   UNK N   1      26.415  25.166  -8.632  0.00  0.00     0.252 C 
HETATM   16  O   UNK N   1      25.974  25.327  -9.761  0.00  0.00    -0.268 OA
HETATM   17  H   UNK N   1      27.396  23.544  -9.213  0.00  0.00     0.164 HD
BRANCH  15  18
HETATM   18  C   UNK N   1      26.245  26.311  -7.688  0.00  0.00     0.032 C 
HETATM   19  C   UNK N   1      25.314  26.277  -6.646  0.00  0.00     0.019 C 
HETATM   20  C   UNK N   1      25.546  27.005  -5.466  0.00  0.00     0.030 C 
HETATM   21  C   UNK N   1      26.703  27.794  -5.349  0.00  0.00     0.030 C 
HETATM   22  C   UNK N   1      27.525  27.961  -6.467  0.00  0.00     0.030 C 
HETATM   23  C   UNK N   1      27.312  27.214  -7.609  0.00  0.00     0.019 C 
BRANCH  21  24
HETATM   24  N   UNK N   1      27.162  28.276  -4.086  0.00  0.00    -0.378 N 
HETATM   25  C   UNK N   1      28.559  28.198  -3.695  0.00  0.00     0.153 C 
HETATM   26  C   UNK N   1      29.134  29.624  -3.480  0.00  0.00     0.292 C 
HETATM   27  N   UNK N   1      28.246  30.491  -2.679  0.00  0.00     0.091 N 
HETATM   28  C   UNK N   1      26.919  30.535  -3.308  0.00  0.00     0.292 C 
HETATM   29  C   UNK N   1      26.299  29.141  -3.321  0.00  0.00     0.153 C 
BRANCH  27  30
HETATM   30  C   UNK N   1      28.192  29.995  -1.290  0.00  0.00     0.272 C 
BRANCH  30  31
HETATM   31  C   UNK N   1      28.963  30.872  -0.295  0.00  0.00     0.026 C 
HETATM   32  C   UNK N   1      28.467  30.670   1.119  0.00  0.00     0.007 C 
ENDBRANCH  30  31
ENDBRANCH  27  30
ENDBRANCH  21  24
ENDBRANCH  15  18
ENDBRANCH   8  14
ENDBRANCH   5   8
ENDBRANCH   1   4
TORSDOF 7
ENDMDL
MODEL 7
REMARK VINA RESULT:      -6.0     18.324     22.154
REMARK  7 active torsions:
REMARK  status: ('A' for Active; 'I' for Inactive)
REMARK    1  A    between atoms: C_2  and  C_3 
REMARK    2  A    between atoms: C_3  and  N_4 
REMARK    3  A    between atoms: N_7  and  C_10 
REMARK    4  A    between atoms: C_13  and  C_16 
REMARK       I    between atoms: C_16  and  N_18 
REMARK    5  A    between atoms: N_18  and  C_19 
REMARK    6  A    between atoms: C_19  and  C_25 
REMARK       I    between atoms: C_25  and  N_27 
REMARK    7  A    between atoms: N_27  and  C_28 
ROOT
HETATM    1  C   UNK N   1      34.660  13.397  16.407  0.00  0.00     0.247 C 
HETATM    2  C   UNK N   1      35.070  13.515  17.815  0.00  0.00     0.078 C 
HETATM    3  N   UNK N   1      35.412  13.595  18.918  0.00  0.00    -0.196 NA
ENDROOT
BRANCH   1   4
HETATM    4  N   UNK N   1      35.617  12.604  15.658  0.00  0.00    -0.347 N 
HETATM    5  C   UNK N   1      35.534  12.455  14.310  0.00  0.00     0.246 C 
HETATM    6  O   UNK N   1      34.585  12.936  13.705  0.00  0.00    -0.271 OA
HETATM    7  H   UNK N   1      36.350  12.161  16.143  0.00  0.00     0.163 HD
BRANCH   5   8
HETATM    8  C   UNK N   1      36.532  11.621  13.531  0.00  0.00     0.114 C 
HETATM    9  C   UNK N   1      37.313  10.866  14.626  0.00  0.00     0.041 C 
HETATM   10  C   UNK N   1      37.758   9.446  14.258  0.00  0.00     0.003 C 
HETATM   11  C   UNK N   1      38.053   9.323  12.770  0.00  0.00     0.000 C 
HETATM   12  C   UNK N   1      36.823   9.670  11.917  0.00  0.00     0.003 C 
HETATM   13  C   UNK N   1      35.819  10.609  12.621  0.00  0.00     0.041 C 
BRANCH   8  14
HETATM   14  N   UNK N   1      37.523  12.319  12.728  0.00  0.00    -0.339 N 
HETATM   15  C   UNK N   1      37.433  12.970  11.531  0.00  0.00     0.252 C 
HETATM   16  O   UNK N   1      38.480  13.155  10.928  0.00  0.00    -0.268 OA
HETATM   17  H   UNK N   1      38.426  12.324  13.121  0.00  0.00     0.164 HD
BRANCH  15  18
HETATM   18  C   UNK N   1      36.207  13.566  10.921  0.00  0.00     0.032 C 
HETATM   19  C   UNK N   1      35.923  14.932  11.016  0.00  0.00     0.019 C 
HETATM   20  C   UNK N   1      35.180  15.572  10.010  0.00  0.00     0.030 C 
HETATM   21  C   UNK N   1      34.693  14.829   8.921  0.00  0.00     0.030 C 
HETATM   22  C   UNK N   1      34.828  13.438   8.937  0.00  0.00     0.030 C 
HETATM   23  C   UNK N   1      35.592  12.820   9.908  0.00  0.00     0.019 C 
BRANCH  21  24
HETATM   24  N   UNK N   1      34.237  15.457   7.724  0.00  0.00    -0.378 N 
HETATM   25  C   UNK N   1      33.250  14.836   6.858  0.00  0.00     0.153 C 
HETATM   26  C   UNK N   1      31.973  15.717   6.785  0.00  0.00     0.292 C 
HETATM   27  N   UNK N   1      32.269  17.148   6.570  0.00  0.00     0.091 N 
HETATM   28  C   UNK N   1      33.184  17.614   7.620  0.00  0.00     0.292 C 
HETATM   29  C   UNK N   1      34.508  16.860   7.533  0.00  0.00     0.153 C 
BRANCH  27  30
HETATM   30  C   UNK N   1      32.823  17.341   5.217  0.00  0.00     0.272 C 
BRANCH  30  31
HETATM   31  C   UNK N   1      31.769  17.728   4.172  0.00  0.00     0.026 C 
HETATM   32  C   UNK N   1      31.431  16.562   3.270  0.00  0.00     0.007 C 
ENDBRANCH  30  31
ENDBRANCH  27  30
ENDBRANCH  21  24
ENDBRANCH  15  18
ENDBRANCH   8  14
ENDBRANCH   5   8
ENDBRANCH   1   4
TORSDOF 7
ENDMDL
MODEL 8
REMARK VINA RESULT:      -5.9      2.781      4.681
REMARK  7 active torsions:
REMARK  status: ('A' for Active; 'I' for Inactive)
REMARK    1  A    between atoms: C_2  and  C_3 
REMARK    2  A    between atoms: C_3  and  N_4 
REMARK    3  A    between atoms: N_7  and  C_10 
REMARK    4  A    between atoms: C_13  and  C_16 
REMARK       I    between atoms: C_16  and  N_18 
REMARK    5  A    between atoms: N_18  and  C_19 
REMARK    6  A    between atoms: C_19  and  C_25 
REMARK       I    between atoms: C_25  and  N_27 
REMARK    7  A    between atoms: N_27  and  C_28 
ROOT
HETATM    1  C   UNK N   1      29.072  27.447  -8.621  0.00  0.00     0.247 C 
HETATM    2  C   UNK N   1      29.506  28.450  -9.607  0.00  0.00     0.078 C 
HETATM    3  N   UNK N   1      29.835  29.255 -10.370  0.00  0.00    -0.196 NA
ENDROOT
BRANCH   1   4
HETATM    4  N   UNK N   1      28.233  28.055  -7.606  0.00  0.00    -0.347 N 
HETATM    5  C   UNK N   1      28.518  27.959  -6.281  0.00  0.00     0.246 C 
HETATM    6  O   UNK N   1      29.467  27.279  -5.914  0.00  0.00    -0.271 OA
HETATM    7  H   UNK N   1      27.431  28.554  -7.887  0.00  0.00     0.163 HD
BRANCH   5   8
HETATM    8  C   UNK N   1      27.636  28.591  -5.222  0.00  0.00     0.114 C 
HETATM    9  C   UNK N   1      28.325  28.211  -3.896  0.00  0.00     0.041 C 
HETATM   10  C   UNK N   1      28.241  29.262  -2.784  0.00  0.00     0.003 C 
HETATM   11  C   UNK N   1      26.948  30.060  -2.868  0.00  0.00     0.000 C 
HETATM   12  C   UNK N   1      26.815  30.784  -4.217  0.00  0.00     0.003 C 
HETATM   13  C   UNK N   1      27.608  30.120  -5.363  0.00  0.00     0.041 C 
BRANCH   8  14
HETATM   14  N   UNK N   1      26.261  28.130  -5.117  0.00  0.00    -0.339 N 
HETATM   15  C   UNK N   1      25.700  26.893  -5.262  0.00  0.00     0.252 C 
HETATM   16  O   UNK N   1      24.495  26.859  -5.466  0.00  0.00    -0.268 OA
HETATM   17  H   UNK N   1      25.615  28.840  -4.901  0.00  0.00     0.164 HD
BRANCH  15  18
HETATM   18  C   UNK N   1      26.379  25.572  -5.103  0.00  0.00     0.032 C 
HETATM   19  C   UNK N   1      26.869  24.857  -6.200  0.00  0.00     0.019 C 
HETATM   20  C   UNK N   1      27.971  23.998  -6.049  0.00  0.00     0.030 C 
HETATM   21  C   UNK N   1      28.561  23.834  -4.784  0.00  0.00     0.030 C 
HETATM   22  C   UNK N   1      27.944  24.411  -3.670  0.00  0.00     0.030 C 
HETATM   23  C   UNK N   1      26.886  25.284  -3.830  0.00  0.00     0.019 C 
BRANCH  21  24
HETATM   24  N   UNK N   1      29.858  23.259  -4.625  0.00  0.00    -0.378 N 
HETATM   25  C   UNK N   1      30.824  23.792  -3.681  0.00  0.00     0.153 C 
HETATM   26  C   UNK N   1      31.163  22.726  -2.604  0.00  0.00     0.292 C 
HETATM   27  N   UNK N   1      31.429  21.390  -3.176  0.00  0.00     0.091 N 
HETATM   28  C   UNK N   1      30.282  20.980  -3.997  0.00  0.00     0.292 C 
HETATM   29  C   UNK N   1      30.102  21.945  -5.165  0.00  0.00     0.153 C 
BRANCH  27  30
HETATM   30  C   UNK N   1      32.686  21.423  -3.947  0.00  0.00     0.272 C 
BRANCH  30  31
HETATM   31  C   UNK N   1      33.829  20.637  -3.291  0.00  0.00     0.026 C 
HETATM   32  C   UNK N   1      34.109  19.349  -4.032  0.00  0.00     0.007 C 
ENDBRANCH  30  31
ENDBRANCH  27  30
ENDBRANCH  21  24
ENDBRANCH  15  18
ENDBRANCH   8  14
ENDBRANCH   5   8
ENDBRANCH   1   4
TORSDOF 7
ENDMDL
MODEL 9
REMARK VINA RESULT:      -5.9     17.656     21.469
REMARK  7 active torsions:
REMARK  status: ('A' for Active; 'I' for Inactive)
REMARK    1  A    between atoms: C_2  and  C_3 
REMARK    2  A    between atoms: C_3  and  N_4 
REMARK    3  A    between atoms: N_7  and  C_10 
REMARK    4  A    between atoms: C_13  and  C_16 
REMARK       I    between atoms: C_16  and  N_18 
REMARK    5  A    between atoms: N_18  and  C_19 
REMARK    6  A    between atoms: C_19  and  C_25 
REMARK       I    between atoms: C_25  and  N_27 
REMARK    7  A    between atoms: N_27  and  C_28 
ROOT
HETATM    1  C   UNK N   1      36.032  15.463  11.932  0.00  0.00     0.247 C 
HETATM    2  C   UNK N   1      35.655  14.511  12.990  0.00  0.00     0.078 C 
HETATM    3  N   UNK N   1      35.340  13.757  13.808  0.00  0.00    -0.196 NA
ENDROOT
BRANCH   1   4
HETATM    4  N   UNK N   1      35.076  15.424  10.842  0.00  0.00    -0.347 N 
HETATM    5  C   UNK N   1      35.010  16.404   9.903  0.00  0.00     0.246 C 
HETATM    6  O   UNK N   1      35.723  17.393  10.010  0.00  0.00    -0.271 OA
HETATM    7  H   UNK N   1      34.455  14.662  10.781  0.00  0.00     0.163 HD
BRANCH   5   8
HETATM    8  C   UNK N   1      34.006  16.363   8.769  0.00  0.00     0.114 C 
HETATM    9  C   UNK N   1      33.045  15.226   9.169  0.00  0.00     0.041 C 
HETATM   10  C   UNK N   1      31.579  15.430   8.772  0.00  0.00     0.003 C 
HETATM   11  C   UNK N   1      31.458  16.225   7.480  0.00  0.00     0.000 C 
HETATM   12  C   UNK N   1      32.113  17.609   7.602  0.00  0.00     0.003 C 
HETATM   13  C   UNK N   1      33.224  17.683   8.672  0.00  0.00     0.041 C 
BRANCH   8  14
HETATM   14  N   UNK N   1      34.494  16.039   7.438  0.00  0.00    -0.339 N 
HETATM   15  C   UNK N   1      35.440  15.155   7.004  0.00  0.00     0.252 C 
HETATM   16  O   UNK N   1      35.891  15.341   5.882  0.00  0.00    -0.268 OA
HETATM   17  H   UNK N   1      34.062  16.550   6.716  0.00  0.00     0.164 HD
BRANCH  15  18
HETATM   18  C   UNK N   1      35.917  13.928   7.710  0.00  0.00     0.032 C 
HETATM   19  C   UNK N   1      37.146  13.889   8.376  0.00  0.00     0.019 C 
HETATM   20  C   UNK N   1      37.324  13.041   9.482  0.00  0.00     0.030 C 
HETATM   21  C   UNK N   1      36.274  12.205   9.898  0.00  0.00     0.030 C 
HETATM   22  C   UNK N   1      35.122  12.123   9.111  0.00  0.00     0.030 C 
HETATM   23  C   UNK N   1      34.938  12.987   8.048  0.00  0.00     0.019 C 
BRANCH  21  24
HETATM   24  N   UNK N   1      36.267  11.586  11.184  0.00  0.00    -0.378 N 
HETATM   25  C   UNK N   1      35.099  10.892  11.698  0.00  0.00     0.153 C 
HETATM   26  C   UNK N   1      35.427   9.392  11.928  0.00  0.00     0.292 C 
HETATM   27  N   UNK N   1      36.711   9.181  12.627  0.00  0.00     0.091 N 
HETATM   28  C   UNK N   1      37.782   9.857  11.883  0.00  0.00     0.292 C 
HETATM   29  C   UNK N   1      37.527  11.361  11.850  0.00  0.00     0.153 C 
BRANCH  27  30
HETATM   30  C   UNK N   1      36.603   9.663  14.017  0.00  0.00     0.272 C 
BRANCH  30  31
HETATM   31  C   UNK N   1      35.446   9.027  14.798  0.00  0.00     0.026 C 
HETATM   32  C   UNK N   1      34.653  10.067  15.557  0.00  0.00     0.007 C 
ENDBRANCH  30  31
ENDBRANCH  27  30
ENDBRANCH  21  24
ENDBRANCH  15  18
ENDBRANCH   8  14
ENDBRANCH   5   8
ENDBRANCH   1   4
TORSDOF 7
ENDMDL
