REMARK  6 active torsions:
REMARK  status: ('A' for Active; 'I' for Inactive)
REMARK    1  A    between atoms: C_14  and  C_10 
REMARK    2  A    between atoms: C_12  and  N_22 
REMARK    3  A    between atoms: N_23  and  C_13 
REMARK    4  A    between atoms: C_16  and  C_15 
REMARK       I    between atoms: N_22  and  C_16 
REMARK    5  A    between atoms: N_23  and  C_17 
REMARK    6  A    between atoms: O_25  and  C_17 
ROOT
HETATM    1  C   UNK N   1       5.596  -0.451  -0.053  0.00  0.00     0.051 A 
HETATM    2  C   UNK N   1       4.622   0.579  -0.238  0.00  0.00     0.059 A 
HETATM    3  C   UNK N   1       5.044  -1.735  -0.128  0.00  0.00     0.018 A 
HETATM    4  C   UNK N   1       3.315   0.099  -0.443  0.00  0.00     0.100 A 
HETATM    5  S   UNK N   1       3.419  -1.558  -0.405  0.00  0.00    -0.082 SA
ENDROOT
BRANCH   4   6
HETATM    6  C   UNK N   1       2.114   0.952  -0.698  0.00  0.00     0.261 C 
HETATM    7  N   UNK N   1       0.826   0.559  -0.478  0.00  0.00    -0.350 N 
HETATM    8  H   UNK N   1       0.130   1.154  -0.838  0.00  0.00     0.163 HD
HETATM    9  O   UNK N   1       2.297   2.081  -1.121  0.00  0.00    -0.267 OA
BRANCH   7  10
HETATM   10  C   UNK N   1       0.349  -0.622   0.218  0.00  0.00     0.102 C 
HETATM   11  C   UNK N   1      -0.506  -1.482  -0.714  0.00  0.00     0.028 C 
HETATM   12  C   UNK N   1      -1.799  -0.761  -1.093  0.00  0.00     0.021 C 
HETATM   13  C   UNK N   1      -2.524  -0.306   0.173  0.00  0.00     0.114 C 
HETATM   14  N   UNK N   1      -1.666   0.584   0.953  0.00  0.00    -0.419 N 
HETATM   15  C   UNK N   1      -0.504  -0.178   1.408  0.00  0.00     0.139 C 
HETATM   16  H   UNK N   1      -1.847   1.568   1.147  0.00  0.00     0.153 HD
ENDBRANCH   7  10
ENDBRANCH   4   6
BRANCH   2  17
HETATM   17  N   UNK N   1       4.911   1.968  -0.161  0.00  0.00    -0.321 N 
HETATM   18  H   UNK N   1       4.161   2.594  -0.280  0.00  0.00     0.169 HD
BRANCH  17  19
HETATM   19  C   UNK N   1       6.198   2.526   0.075  0.00  0.00     0.215 C 
HETATM   20  N   UNK N   1       6.313   3.788   0.253  0.00  0.00    -0.365 N 
HETATM   21  H   UNK N   1       7.198   4.196   0.391  0.00  0.00     0.159 HD
ATOM     22  HN  UNK N   1       5.480   4.376   0.253  1.00  0.00     0.159 HD
BRANCH  19  23
HETATM   23  O   UNK N   1       7.297   1.748   0.111  0.00  0.00    -0.333 OA
HETATM   24  H   UNK N   1       7.211   0.815   0.136  0.00  0.00     0.220 HD
ENDBRANCH  19  23
ENDBRANCH  17  19
ENDBRANCH   2  17
BRANCH   3  25
HETATM   25  C   UNK N   1       5.760  -3.013   0.011  0.00  0.00    -0.016 A 
HETATM   26  C   UNK N   1       7.151  -3.035   0.192  0.00  0.00     0.013 A 
HETATM   27  C   UNK N   1       7.824  -4.254   0.319  0.00  0.00     0.004 A 
HETATM   28  C   UNK N   1       7.111  -5.456   0.272  0.00  0.00     0.042 A 
HETATM   29  C   UNK N   1       5.725  -5.440   0.096  0.00  0.00     0.117 A 
HETATM   30  C   UNK N   1       5.053  -4.223  -0.036  0.00  0.00     0.055 A 
HETATM   31  F   UNK N   1       5.032  -6.603   0.057  0.00  0.00    -0.206 F 
ENDBRANCH   3  25
TORSDOF 6
