MODEL 1
REMARK VINA RESULT:      -6.3      0.000      0.000
REMARK  15 active torsions:
REMARK  status: ('A' for Active; 'I' for Inactive)
REMARK    1  A    between atoms: C_2  and  O_4 
REMARK    2  A    between atoms: O_4  and  P_5 
REMARK    3  A    between atoms: P_5  and  C_7 
REMARK    4  A    between atoms: P_5  and  O_34 
REMARK    5  A    between atoms: C_7  and  C_8 
REMARK    6  A    between atoms: C_7  and  P_24 
REMARK    7  A    between atoms: C_8  and  C_9 
REMARK    8  A    between atoms: C_11  and  C_20 
REMARK    9  A    between atoms: C_12  and  O_19 
REMARK   10  A    between atoms: C_13  and  C_15 
REMARK   11  A    between atoms: P_24  and  O_26 
REMARK   12  A    between atoms: P_24  and  O_30 
REMARK   13  A    between atoms: O_26  and  C_27 
REMARK   14  A    between atoms: O_30  and  C_31 
REMARK   15  A    between atoms: O_34  and  C_35 
ROOT
HETATM    1  C   UNK N   1      28.882  24.495  -4.829  0.00  0.00     0.226 C 
ENDROOT
BRANCH   1   2
HETATM    2  P   UNK N   1      30.066  25.825  -4.238  0.00  0.00     0.345 P 
HETATM    3  O   UNK N   1      30.821  25.177  -3.046  0.00  0.00    -0.258 OA
BRANCH   2   4
HETATM    4  O   UNK N   1      31.402  26.187  -5.308  0.00  0.00    -0.309 OA
BRANCH   4   5
HETATM    5  C   UNK N   1      32.179  25.024  -5.396  0.00  0.00     0.123 C 
HETATM    6  C   UNK N   1      33.639  25.291  -5.080  0.00  0.00     0.040 C 
HETATM    7  C   UNK N   1      32.043  24.427  -6.781  0.00  0.00     0.040 C 
ENDBRANCH   4   5
ENDBRANCH   2   4
BRANCH   2   8
HETATM    8  O   UNK N   1      29.424  27.244  -3.431  0.00  0.00    -0.309 OA
BRANCH   8   9
HETATM    9  C   UNK N   1      30.247  28.336  -3.685  0.00  0.00     0.123 C 
HETATM   10  C   UNK N   1      29.398  29.582  -3.824  0.00  0.00     0.040 C 
HETATM   11  C   UNK N   1      31.221  28.513  -2.535  0.00  0.00     0.040 C 
ENDBRANCH   8   9
ENDBRANCH   2   8
ENDBRANCH   1   2
BRANCH   1  12
HETATM   12  C   UNK N   1      29.100  23.211  -4.031  0.00  0.00     0.067 C 
BRANCH  12  13
HETATM   13  C   UNK N   1      29.938  22.174  -4.716  0.00  0.00    -0.055 A 
HETATM   14  C   UNK N   1      31.175  21.853  -4.170  0.00  0.00     0.018 A 
HETATM   15  C   UNK N   1      32.034  20.935  -4.798  0.00  0.00    -0.016 A 
HETATM   16  C   UNK N   1      31.618  20.329  -6.008  0.00  0.00     0.079 A 
HETATM   17  C   UNK N   1      30.357  20.648  -6.583  0.00  0.00    -0.016 A 
HETATM   18  C   UNK N   1      29.539  21.586  -5.917  0.00  0.00     0.018 A 
BRANCH  15  19
HETATM   19  C   UNK N   1      33.395  20.622  -4.185  0.00  0.00    -0.021 C 
HETATM   20  C   UNK N   1      33.413  21.043  -2.725  0.00  0.00     0.019 C 
HETATM   21  C   UNK N   1      34.493  21.367  -4.925  0.00  0.00     0.019 C 
HETATM   22  C   UNK N   1      33.741  19.139  -4.231  0.00  0.00     0.019 C 
ENDBRANCH  15  19
BRANCH  16  23
HETATM   23  O   UNK N   1      32.446  19.449  -6.610  0.00  0.00    -0.360 OA
HETATM   24  H   UNK N   1      33.227  19.167  -6.176  0.00  0.00     0.217 HD
ENDBRANCH  16  23
BRANCH  17  25
HETATM   25  C   UNK N   1      29.833  20.053  -7.897  0.00  0.00    -0.021 C 
HETATM   26  C   UNK N   1      28.533  20.724  -8.293  0.00  0.00     0.019 C 
HETATM   27  C   UNK N   1      30.846  20.298  -9.001  0.00  0.00     0.019 C 
HETATM   28  C   UNK N   1      29.548  18.560  -7.881  0.00  0.00     0.019 C 
ENDBRANCH  17  25
ENDBRANCH  12  13
ENDBRANCH   1  12
BRANCH   1  29
HETATM   29  P   UNK N   1      27.114  25.058  -4.629  0.00  0.00     0.345 P 
HETATM   30  O   UNK N   1      26.791  25.134  -3.110  0.00  0.00    -0.258 OA
BRANCH  29  31
HETATM   31  O   UNK N   1      25.838  24.078  -5.333  0.00  0.00    -0.309 OA
BRANCH  31  32
HETATM   32  C   UNK N   1      26.335  23.507  -6.509  0.00  0.00     0.123 C 
HETATM   33  C   UNK N   1      25.530  22.276  -6.876  0.00  0.00     0.040 C 
HETATM   34  C   UNK N   1      26.264  24.518  -7.634  0.00  0.00     0.040 C 
ENDBRANCH  31  32
ENDBRANCH  29  31
BRANCH  29  35
HETATM   35  O   UNK N   1      26.838  26.709  -5.128  0.00  0.00    -0.309 OA
BRANCH  35  36
HETATM   36  C   UNK N   1      25.624  27.095  -4.553  0.00  0.00     0.123 C 
HETATM   37  C   UNK N   1      24.565  27.233  -5.626  0.00  0.00     0.040 C 
HETATM   38  C   UNK N   1      25.794  28.418  -3.831  0.00  0.00     0.040 C 
ENDBRANCH  35  36
ENDBRANCH  29  35
ENDBRANCH   1  29
TORSDOF 15
ENDMDL
MODEL 2
REMARK VINA RESULT:      -6.1      0.475      3.050
REMARK  15 active torsions:
REMARK  status: ('A' for Active; 'I' for Inactive)
REMARK    1  A    between atoms: C_2  and  O_4 
REMARK    2  A    between atoms: O_4  and  P_5 
REMARK    3  A    between atoms: P_5  and  C_7 
REMARK    4  A    between atoms: P_5  and  O_34 
REMARK    5  A    between atoms: C_7  and  C_8 
REMARK    6  A    between atoms: C_7  and  P_24 
REMARK    7  A    between atoms: C_8  and  C_9 
REMARK    8  A    between atoms: C_11  and  C_20 
REMARK    9  A    between atoms: C_12  and  O_19 
REMARK   10  A    between atoms: C_13  and  C_15 
REMARK   11  A    between atoms: P_24  and  O_26 
REMARK   12  A    between atoms: P_24  and  O_30 
REMARK   13  A    between atoms: O_26  and  C_27 
REMARK   14  A    between atoms: O_30  and  C_31 
REMARK   15  A    between atoms: O_34  and  C_35 
ROOT
HETATM    1  C   UNK N   1      28.867  24.464  -4.894  0.00  0.00     0.226 C 
ENDROOT
BRANCH   1   2
HETATM    2  P   UNK N   1      30.081  25.715  -4.201  0.00  0.00     0.345 P 
HETATM    3  O   UNK N   1      30.671  25.031  -2.938  0.00  0.00    -0.258 OA
BRANCH   2   4
HETATM    4  O   UNK N   1      31.536  25.967  -5.141  0.00  0.00    -0.309 OA
BRANCH   4   5
HETATM    5  C   UNK N   1      31.325  25.359  -6.386  0.00  0.00     0.123 C 
HETATM    6  C   UNK N   1      32.410  24.351  -6.717  0.00  0.00     0.040 C 
HETATM    7  C   UNK N   1      31.253  26.423  -7.462  0.00  0.00     0.040 C 
ENDBRANCH   4   5
ENDBRANCH   2   4
BRANCH   2   8
HETATM    8  O   UNK N   1      29.468  27.186  -3.469  0.00  0.00    -0.309 OA
BRANCH   8   9
HETATM    9  C   UNK N   1      30.335  28.239  -3.745  0.00  0.00     0.123 C 
HETATM   10  C   UNK N   1      29.535  29.437  -4.212  0.00  0.00     0.040 C 
HETATM   11  C   UNK N   1      31.104  28.602  -2.490  0.00  0.00     0.040 C 
ENDBRANCH   8   9
ENDBRANCH   2   8
ENDBRANCH   1   2
BRANCH   1  12
HETATM   12  C   UNK N   1      29.055  23.116  -4.201  0.00  0.00     0.067 C 
BRANCH  12  13
HETATM   13  C   UNK N   1      29.964  22.159  -4.912  0.00  0.00    -0.055 A 
HETATM   14  C   UNK N   1      29.521  21.575  -6.093  0.00  0.00     0.018 A 
HETATM   15  C   UNK N   1      30.300  20.624  -6.773  0.00  0.00    -0.016 A 
HETATM   16  C   UNK N   1      31.560  20.264  -6.238  0.00  0.00     0.079 A 
HETATM   17  C   UNK N   1      32.028  20.848  -5.029  0.00  0.00    -0.016 A 
HETATM   18  C   UNK N   1      31.200  21.790  -4.379  0.00  0.00     0.018 A 
BRANCH  15  19
HETATM   19  C   UNK N   1      29.774  19.985  -8.054  0.00  0.00    -0.021 C 
HETATM   20  C   UNK N   1      28.502  20.687  -8.497  0.00  0.00     0.019 C 
HETATM   21  C   UNK N   1      29.472  18.513  -7.827  0.00  0.00     0.019 C 
HETATM   22  C   UNK N   1      30.763  20.071  -9.211  0.00  0.00     0.019 C 
ENDBRANCH  15  19
BRANCH  16  23
HETATM   23  O   UNK N   1      32.306  19.349  -6.893  0.00  0.00    -0.360 OA
HETATM   24  H   UNK N   1      32.423  19.417  -7.820  0.00  0.00     0.217 HD
ENDBRANCH  16  23
BRANCH  17  25
HETATM   25  C   UNK N   1      33.371  20.507  -4.368  0.00  0.00    -0.021 C 
HETATM   26  C   UNK N   1      34.506  21.169  -5.122  0.00  0.00     0.019 C 
HETATM   27  C   UNK N   1      33.380  21.031  -2.944  0.00  0.00     0.019 C 
HETATM   28  C   UNK N   1      33.718  19.029  -4.298  0.00  0.00     0.019 C 
ENDBRANCH  17  25
ENDBRANCH  12  13
ENDBRANCH   1  12
BRANCH   1  29
HETATM   29  P   UNK N   1      27.112  25.049  -4.648  0.00  0.00     0.345 P 
HETATM   30  O   UNK N   1      26.821  25.100  -3.121  0.00  0.00    -0.258 OA
BRANCH  29  31
HETATM   31  O   UNK N   1      25.808  24.104  -5.345  0.00  0.00    -0.309 OA
BRANCH  31  32
HETATM   32  C   UNK N   1      26.267  23.564  -6.552  0.00  0.00     0.123 C 
HETATM   33  C   UNK N   1      25.532  22.275  -6.863  0.00  0.00     0.040 C 
HETATM   34  C   UNK N   1      26.048  24.560  -7.671  0.00  0.00     0.040 C 
ENDBRANCH  31  32
ENDBRANCH  29  31
BRANCH  29  35
HETATM   35  O   UNK N   1      26.853  26.714  -5.108  0.00  0.00    -0.309 OA
BRANCH  35  36
HETATM   36  C   UNK N   1      25.643  27.099  -4.523  0.00  0.00     0.123 C 
HETATM   37  C   UNK N   1      24.585  27.270  -5.592  0.00  0.00     0.040 C 
HETATM   38  C   UNK N   1      25.826  28.405  -3.773  0.00  0.00     0.040 C 
ENDBRANCH  35  36
ENDBRANCH  29  35
ENDBRANCH   1  29
TORSDOF 15
ENDMDL
MODEL 3
REMARK VINA RESULT:      -6.1     14.907     16.925
REMARK  15 active torsions:
REMARK  status: ('A' for Active; 'I' for Inactive)
REMARK    1  A    between atoms: C_2  and  O_4 
REMARK    2  A    between atoms: O_4  and  P_5 
REMARK    3  A    between atoms: P_5  and  C_7 
REMARK    4  A    between atoms: P_5  and  O_34 
REMARK    5  A    between atoms: C_7  and  C_8 
REMARK    6  A    between atoms: C_7  and  P_24 
REMARK    7  A    between atoms: C_8  and  C_9 
REMARK    8  A    between atoms: C_11  and  C_20 
REMARK    9  A    between atoms: C_12  and  O_19 
REMARK   10  A    between atoms: C_13  and  C_15 
REMARK   11  A    between atoms: P_24  and  O_26 
REMARK   12  A    between atoms: P_24  and  O_30 
REMARK   13  A    between atoms: O_26  and  C_27 
REMARK   14  A    between atoms: O_30  and  C_31 
REMARK   15  A    between atoms: O_34  and  C_35 
ROOT
HETATM    1  C   UNK N   1      21.820  14.805   7.084  0.00  0.00     0.226 C 
ENDROOT
BRANCH   1   2
HETATM    2  P   UNK N   1      20.843  16.398   7.256  0.00  0.00     0.345 P 
HETATM    3  O   UNK N   1      21.803  17.506   6.744  0.00  0.00    -0.258 OA
BRANCH   2   4
HETATM    4  O   UNK N   1      19.504  16.594   6.147  0.00  0.00    -0.309 OA
BRANCH   4   5
HETATM    5  C   UNK N   1      19.851  15.922   4.967  0.00  0.00     0.123 C 
HETATM    6  C   UNK N   1      19.823  16.842   3.761  0.00  0.00     0.040 C 
HETATM    7  C   UNK N   1      18.913  14.752   4.756  0.00  0.00     0.040 C 
ENDBRANCH   4   5
ENDBRANCH   2   4
BRANCH   2   8
HETATM    8  O   UNK N   1      20.510  17.027   8.859  0.00  0.00    -0.309 OA
BRANCH   8   9
HETATM    9  C   UNK N   1      19.368  17.822   8.819  0.00  0.00     0.123 C 
HETATM   10  C   UNK N   1      18.172  17.003   9.257  0.00  0.00     0.040 C 
HETATM   11  C   UNK N   1      19.542  19.003   9.754  0.00  0.00     0.040 C 
ENDBRANCH   8   9
ENDBRANCH   2   8
ENDBRANCH   1   2
BRANCH   1  12
HETATM   12  C   UNK N   1      23.317  15.108   7.103  0.00  0.00     0.067 C 
BRANCH  12  13
HETATM   13  C   UNK N   1      23.936  15.330   5.757  0.00  0.00    -0.055 A 
HETATM   14  C   UNK N   1      23.531  14.525   4.698  0.00  0.00     0.018 A 
HETATM   15  C   UNK N   1      24.118  14.642   3.427  0.00  0.00    -0.016 A 
HETATM   16  C   UNK N   1      25.137  15.604   3.231  0.00  0.00     0.079 A 
HETATM   17  C   UNK N   1      25.567  16.434   4.303  0.00  0.00    -0.016 A 
HETATM   18  C   UNK N   1      24.952  16.267   5.563  0.00  0.00     0.018 A 
BRANCH  15  19
HETATM   19  C   UNK N   1      23.667  13.726   2.293  0.00  0.00    -0.021 C 
HETATM   20  C   UNK N   1      22.625  12.746   2.805  0.00  0.00     0.019 C 
HETATM   21  C   UNK N   1      24.848  12.946   1.741  0.00  0.00     0.019 C 
HETATM   22  C   UNK N   1      23.041  14.485   1.130  0.00  0.00     0.019 C 
ENDBRANCH  15  19
BRANCH  16  23
HETATM   23  O   UNK N   1      25.700  15.713   2.009  0.00  0.00    -0.360 OA
HETATM   24  H   UNK N   1      25.860  14.945   1.496  0.00  0.00     0.217 HD
ENDBRANCH  16  23
BRANCH  17  25
HETATM   25  C   UNK N   1      26.673  17.492   4.185  0.00  0.00    -0.021 C 
HETATM   26  C   UNK N   1      27.091  17.966   5.562  0.00  0.00     0.019 C 
HETATM   27  C   UNK N   1      27.886  16.879   3.509  0.00  0.00     0.019 C 
HETATM   28  C   UNK N   1      26.314  18.742   3.401  0.00  0.00     0.019 C 
ENDBRANCH  17  25
ENDBRANCH  12  13
ENDBRANCH   1  12
BRANCH   1  29
HETATM   29  P   UNK N   1      21.406  13.630   8.473  0.00  0.00     0.345 P 
HETATM   30  O   UNK N   1      19.942  13.900   8.926  0.00  0.00    -0.258 OA
BRANCH  29  31
HETATM   31  O   UNK N   1      22.371  13.692   9.939  0.00  0.00    -0.309 OA
BRANCH  31  32
HETATM   32  C   UNK N   1      23.049  12.474  10.056  0.00  0.00     0.123 C 
HETATM   33  C   UNK N   1      24.512  12.653   9.701  0.00  0.00     0.040 C 
HETATM   34  C   UNK N   1      22.927  11.959  11.475  0.00  0.00     0.040 C 
ENDBRANCH  31  32
ENDBRANCH  29  31
BRANCH  29  35
HETATM   35  O   UNK N   1      21.315  11.958   7.979  0.00  0.00    -0.309 OA
BRANCH  35  36
HETATM   36  C   UNK N   1      21.676  11.929   6.628  0.00  0.00     0.123 C 
HETATM   37  C   UNK N   1      20.529  11.390   5.799  0.00  0.00     0.040 C 
HETATM   38  C   UNK N   1      22.897  11.049   6.440  0.00  0.00     0.040 C 
ENDBRANCH  35  36
ENDBRANCH  29  35
ENDBRANCH   1  29
TORSDOF 15
ENDMDL
MODEL 4
REMARK VINA RESULT:      -6.0      2.523      5.888
REMARK  15 active torsions:
REMARK  status: ('A' for Active; 'I' for Inactive)
REMARK    1  A    between atoms: C_2  and  O_4 
REMARK    2  A    between atoms: O_4  and  P_5 
REMARK    3  A    between atoms: P_5  and  C_7 
REMARK    4  A    between atoms: P_5  and  O_34 
REMARK    5  A    between atoms: C_7  and  C_8 
REMARK    6  A    between atoms: C_7  and  P_24 
REMARK    7  A    between atoms: C_8  and  C_9 
REMARK    8  A    between atoms: C_11  and  C_20 
REMARK    9  A    between atoms: C_12  and  O_19 
REMARK   10  A    between atoms: C_13  and  C_15 
REMARK   11  A    between atoms: P_24  and  O_26 
REMARK   12  A    between atoms: P_24  and  O_30 
REMARK   13  A    between atoms: O_26  and  C_27 
REMARK   14  A    between atoms: O_30  and  C_31 
REMARK   15  A    between atoms: O_34  and  C_35 
ROOT
HETATM    1  C   UNK N   1      26.844  24.188  -7.337  0.00  0.00     0.226 C 
ENDROOT
BRANCH   1   2
HETATM    2  P   UNK N   1      25.636  23.892  -8.741  0.00  0.00     0.345 P 
HETATM    3  O   UNK N   1      26.500  23.292  -9.883  0.00  0.00    -0.258 OA
BRANCH   2   4
HETATM    4  O   UNK N   1      24.483  22.599  -8.495  0.00  0.00    -0.309 OA
BRANCH   4   5
HETATM    5  C   UNK N   1      25.075  21.690  -7.608  0.00  0.00     0.123 C 
HETATM    6  C   UNK N   1      25.673  20.498  -8.331  0.00  0.00     0.040 C 
HETATM    7  C   UNK N   1      24.047  21.227  -6.596  0.00  0.00     0.040 C 
ENDBRANCH   4   5
ENDBRANCH   2   4
BRANCH   2   8
HETATM    8  O   UNK N   1      24.958  25.269  -9.590  0.00  0.00    -0.309 OA
BRANCH   8   9
HETATM    9  C   UNK N   1      25.518  25.355 -10.861  0.00  0.00     0.123 C 
HETATM   10  C   UNK N   1      24.422  25.601 -11.876  0.00  0.00     0.040 C 
HETATM   11  C   UNK N   1      26.511  26.500 -10.900  0.00  0.00     0.040 C 
ENDBRANCH   8   9
ENDBRANCH   2   8
ENDBRANCH   1   2
BRANCH   1  12
HETATM   12  C   UNK N   1      28.276  24.163  -7.867  0.00  0.00     0.067 C 
BRANCH  12  13
HETATM   13  C   UNK N   1      29.135  23.064  -7.320  0.00  0.00    -0.055 A 
HETATM   14  C   UNK N   1      29.261  21.890  -8.055  0.00  0.00     0.018 A 
HETATM   15  C   UNK N   1      30.002  20.800  -7.567  0.00  0.00    -0.016 A 
HETATM   16  C   UNK N   1      30.630  20.912  -6.303  0.00  0.00     0.079 A 
HETATM   17  C   UNK N   1      30.509  22.103  -5.536  0.00  0.00    -0.016 A 
HETATM   18  C   UNK N   1      29.743  23.164  -6.068  0.00  0.00     0.018 A 
BRANCH  15  19
HETATM   19  C   UNK N   1      30.100  19.518  -8.387  0.00  0.00    -0.021 C 
HETATM   20  C   UNK N   1      29.285  18.418  -7.727  0.00  0.00     0.019 C 
HETATM   21  C   UNK N   1      31.546  19.065  -8.491  0.00  0.00     0.019 C 
HETATM   22  C   UNK N   1      29.572  19.680  -9.808  0.00  0.00     0.019 C 
ENDBRANCH  15  19
BRANCH  16  23
HETATM   23  O   UNK N   1      31.339  19.863  -5.837  0.00  0.00    -0.360 OA
HETATM   24  H   UNK N   1      31.514  19.130  -6.394  0.00  0.00     0.217 HD
ENDBRANCH  16  23
BRANCH  17  25
HETATM   25  C   UNK N   1      31.142  22.307  -4.152  0.00  0.00    -0.021 C 
HETATM   26  C   UNK N   1      30.914  23.727  -3.678  0.00  0.00     0.019 C 
HETATM   27  C   UNK N   1      30.490  21.365  -3.156  0.00  0.00     0.019 C 
HETATM   28  C   UNK N   1      32.641  22.071  -4.069  0.00  0.00     0.019 C 
ENDBRANCH  17  25
ENDBRANCH  12  13
ENDBRANCH   1  12
BRANCH   1  29
HETATM   29  P   UNK N   1      26.511  25.835  -6.524  0.00  0.00     0.345 P 
HETATM   30  O   UNK N   1      25.032  25.857  -6.045  0.00  0.00    -0.258 OA
BRANCH  29  31
HETATM   31  O   UNK N   1      26.720  27.296  -7.475  0.00  0.00    -0.309 OA
BRANCH  31  32
HETATM   32  C   UNK N   1      27.976  27.832  -7.168  0.00  0.00     0.123 C 
HETATM   33  C   UNK N   1      28.738  28.143  -8.440  0.00  0.00     0.040 C 
HETATM   34  C   UNK N   1      27.804  29.096  -6.353  0.00  0.00     0.040 C 
ENDBRANCH  31  32
ENDBRANCH  29  31
BRANCH  29  35
HETATM   35  O   UNK N   1      27.369  26.065  -5.020  0.00  0.00    -0.309 OA
BRANCH  35  36
HETATM   36  C   UNK N   1      26.482  25.700  -4.003  0.00  0.00     0.123 C 
HETATM   37  C   UNK N   1      26.355  26.827  -3.000  0.00  0.00     0.040 C 
HETATM   38  C   UNK N   1      26.985  24.451  -3.305  0.00  0.00     0.040 C 
ENDBRANCH  35  36
ENDBRANCH  29  35
ENDBRANCH   1  29
TORSDOF 15
ENDMDL
MODEL 5
REMARK VINA RESULT:      -6.0      2.517      5.264
REMARK  15 active torsions:
REMARK  status: ('A' for Active; 'I' for Inactive)
REMARK    1  A    between atoms: C_2  and  O_4 
REMARK    2  A    between atoms: O_4  and  P_5 
REMARK    3  A    between atoms: P_5  and  C_7 
REMARK    4  A    between atoms: P_5  and  O_34 
REMARK    5  A    between atoms: C_7  and  C_8 
REMARK    6  A    between atoms: C_7  and  P_24 
REMARK    7  A    between atoms: C_8  and  C_9 
REMARK    8  A    between atoms: C_11  and  C_20 
REMARK    9  A    between atoms: C_12  and  O_19 
REMARK   10  A    between atoms: C_13  and  C_15 
REMARK   11  A    between atoms: P_24  and  O_26 
REMARK   12  A    between atoms: P_24  and  O_30 
REMARK   13  A    between atoms: O_26  and  C_27 
REMARK   14  A    between atoms: O_30  and  C_31 
REMARK   15  A    between atoms: O_34  and  C_35 
ROOT
HETATM    1  C   UNK N   1      26.809  24.250  -7.267  0.00  0.00     0.226 C 
ENDROOT
BRANCH   1   2
HETATM    2  P   UNK N   1      25.642  23.949  -8.705  0.00  0.00     0.345 P 
HETATM    3  O   UNK N   1      26.545  23.375  -9.831  0.00  0.00    -0.258 OA
BRANCH   2   4
HETATM    4  O   UNK N   1      24.505  22.635  -8.502  0.00  0.00    -0.309 OA
BRANCH   4   5
HETATM    5  C   UNK N   1      25.098  21.717  -7.624  0.00  0.00     0.123 C 
HETATM    6  C   UNK N   1      25.689  20.529  -8.360  0.00  0.00     0.040 C 
HETATM    7  C   UNK N   1      24.072  21.249  -6.612  0.00  0.00     0.040 C 
ENDBRANCH   4   5
ENDBRANCH   2   4
BRANCH   2   8
HETATM    8  O   UNK N   1      24.964  25.324  -9.557  0.00  0.00    -0.309 OA
BRANCH   8   9
HETATM    9  C   UNK N   1      25.508  25.394 -10.836  0.00  0.00     0.123 C 
HETATM   10  C   UNK N   1      24.411  25.709 -11.831  0.00  0.00     0.040 C 
HETATM   11  C   UNK N   1      26.559  26.486 -10.879  0.00  0.00     0.040 C 
ENDBRANCH   8   9
ENDBRANCH   2   8
ENDBRANCH   1   2
BRANCH   1  12
HETATM   12  C   UNK N   1      28.258  24.169  -7.747  0.00  0.00     0.067 C 
BRANCH  12  13
HETATM   13  C   UNK N   1      29.041  23.012  -7.204  0.00  0.00    -0.055 A 
HETATM   14  C   UNK N   1      29.697  23.166  -5.989  0.00  0.00     0.018 A 
HETATM   15  C   UNK N   1      30.498  22.140  -5.457  0.00  0.00    -0.016 A 
HETATM   16  C   UNK N   1      30.627  20.931  -6.181  0.00  0.00     0.079 A 
HETATM   17  C   UNK N   1      29.966  20.757  -7.427  0.00  0.00    -0.016 A 
HETATM   18  C   UNK N   1      29.184  21.824  -7.921  0.00  0.00     0.018 A 
BRANCH  15  19
HETATM   19  C   UNK N   1      31.224  22.350  -4.132  0.00  0.00    -0.021 C 
HETATM   20  C   UNK N   1      30.727  21.345  -3.106  0.00  0.00     0.019 C 
HETATM   21  C   UNK N   1      30.974  23.754  -3.608  0.00  0.00     0.019 C 
HETATM   22  C   UNK N   1      32.733  22.170  -4.247  0.00  0.00     0.019 C 
ENDBRANCH  15  19
BRANCH  16  23
HETATM   23  O   UNK N   1      31.398  19.948  -5.668  0.00  0.00    -0.360 OA
HETATM   24  H   UNK N   1      31.751  19.287  -6.231  0.00  0.00     0.217 HD
ENDBRANCH  16  23
BRANCH  17  25
HETATM   25  C   UNK N   1      30.062  19.488  -8.286  0.00  0.00    -0.021 C 
HETATM   26  C   UNK N   1      29.468  19.738  -9.656  0.00  0.00     0.019 C 
HETATM   27  C   UNK N   1      31.522  19.111  -8.466  0.00  0.00     0.019 C 
HETATM   28  C   UNK N   1      29.353  18.261  -7.737  0.00  0.00     0.019 C 
ENDBRANCH  17  25
ENDBRANCH  12  13
ENDBRANCH   1  12
BRANCH   1  29
HETATM   29  P   UNK N   1      26.498  25.928  -6.512  0.00  0.00     0.345 P 
HETATM   30  O   UNK N   1      25.012  25.995  -6.057  0.00  0.00    -0.258 OA
BRANCH  29  31
HETATM   31  O   UNK N   1      26.752  27.354  -7.505  0.00  0.00    -0.309 OA
BRANCH  31  32
HETATM   32  C   UNK N   1      28.008  27.880  -7.186  0.00  0.00     0.123 C 
HETATM   33  C   UNK N   1      28.781  28.195  -8.452  0.00  0.00     0.040 C 
HETATM   34  C   UNK N   1      27.839  29.140  -6.364  0.00  0.00     0.040 C 
ENDBRANCH  31  32
ENDBRANCH  29  31
BRANCH  29  35
HETATM   35  O   UNK N   1      27.337  26.188  -5.002  0.00  0.00    -0.309 OA
BRANCH  35  36
HETATM   36  C   UNK N   1      26.461  25.781  -3.992  0.00  0.00     0.123 C 
HETATM   37  C   UNK N   1      26.311  26.883  -2.964  0.00  0.00     0.040 C 
HETATM   38  C   UNK N   1      26.993  24.528  -3.323  0.00  0.00     0.040 C 
ENDBRANCH  35  36
ENDBRANCH  29  35
ENDBRANCH   1  29
TORSDOF 15
ENDMDL
MODEL 6
REMARK VINA RESULT:      -6.0     11.082     14.605
REMARK  15 active torsions:
REMARK  status: ('A' for Active; 'I' for Inactive)
REMARK    1  A    between atoms: C_2  and  O_4 
REMARK    2  A    between atoms: O_4  and  P_5 
REMARK    3  A    between atoms: P_5  and  C_7 
REMARK    4  A    between atoms: P_5  and  O_34 
REMARK    5  A    between atoms: C_7  and  C_8 
REMARK    6  A    between atoms: C_7  and  P_24 
REMARK    7  A    between atoms: C_8  and  C_9 
REMARK    8  A    between atoms: C_11  and  C_20 
REMARK    9  A    between atoms: C_12  and  O_19 
REMARK   10  A    between atoms: C_13  and  C_15 
REMARK   11  A    between atoms: P_24  and  O_26 
REMARK   12  A    between atoms: P_24  and  O_30 
REMARK   13  A    between atoms: O_26  and  C_27 
REMARK   14  A    between atoms: O_30  and  C_31 
REMARK   15  A    between atoms: O_34  and  C_35 
ROOT
HETATM    1  C   UNK N   1      31.106  15.458   4.193  0.00  0.00     0.226 C 
ENDROOT
BRANCH   1   2
HETATM    2  P   UNK N   1      32.804  15.336   3.405  0.00  0.00     0.345 P 
HETATM    3  O   UNK N   1      32.935  16.627   2.552  0.00  0.00    -0.258 OA
BRANCH   2   4
HETATM    4  O   UNK N   1      34.163  15.528   4.490  0.00  0.00    -0.309 OA
BRANCH   4   5
HETATM    5  C   UNK N   1      33.641  15.910   5.733  0.00  0.00     0.123 C 
HETATM    6  C   UNK N   1      33.663  17.415   5.920  0.00  0.00     0.040 C 
HETATM    7  C   UNK N   1      34.422  15.233   6.840  0.00  0.00     0.040 C 
ENDBRANCH   4   5
ENDBRANCH   2   4
BRANCH   2   8
HETATM    8  O   UNK N   1      33.082  14.139   2.154  0.00  0.00    -0.309 OA
BRANCH   8   9
HETATM    9  C   UNK N   1      34.337  13.563   2.331  0.00  0.00     0.123 C 
HETATM   10  C   UNK N   1      34.229  12.064   2.150  0.00  0.00     0.040 C 
HETATM   11  C   UNK N   1      35.301  14.129   1.307  0.00  0.00     0.040 C 
ENDBRANCH   8   9
ENDBRANCH   2   8
ENDBRANCH   1   2
BRANCH   1  12
HETATM   12  C   UNK N   1      30.429  16.762   3.774  0.00  0.00     0.067 C 
BRANCH  12  13
HETATM   13  C   UNK N   1      29.624  17.431   4.846  0.00  0.00    -0.055 A 
HETATM   14  C   UNK N   1      28.590  18.280   4.469  0.00  0.00     0.018 A 
HETATM   15  C   UNK N   1      27.839  18.984   5.425  0.00  0.00    -0.016 A 
HETATM   16  C   UNK N   1      28.147  18.814   6.796  0.00  0.00     0.079 A 
HETATM   17  C   UNK N   1      29.202  17.952   7.201  0.00  0.00    -0.016 A 
HETATM   18  C   UNK N   1      29.933  17.278   6.199  0.00  0.00     0.018 A 
BRANCH  15  19
HETATM   19  C   UNK N   1      26.727  19.928   4.976  0.00  0.00    -0.021 C 
HETATM   20  C   UNK N   1      25.373  19.279   5.210  0.00  0.00     0.019 C 
HETATM   21  C   UNK N   1      26.870  20.249   3.498  0.00  0.00     0.019 C 
HETATM   22  C   UNK N   1      26.730  21.251   5.731  0.00  0.00     0.019 C 
ENDBRANCH  15  19
BRANCH  16  23
HETATM   23  O   UNK N   1      27.424  19.493   7.712  0.00  0.00    -0.360 OA
HETATM   24  H   UNK N   1      27.772  19.640   8.570  0.00  0.00     0.217 HD
ENDBRANCH  16  23
BRANCH  17  25
HETATM   25  C   UNK N   1      29.615  17.719   8.661  0.00  0.00    -0.021 C 
HETATM   26  C   UNK N   1      28.455  17.144   9.446  0.00  0.00     0.019 C 
HETATM   27  C   UNK N   1      30.759  16.723   8.709  0.00  0.00     0.019 C 
HETATM   28  C   UNK N   1      30.070  18.952   9.425  0.00  0.00     0.019 C 
ENDBRANCH  17  25
ENDBRANCH  12  13
ENDBRANCH   1  12
BRANCH   1  29
HETATM   29  P   UNK N   1      30.041  14.014   3.680  0.00  0.00     0.345 P 
HETATM   30  O   UNK N   1      28.995  13.752   4.801  0.00  0.00    -0.258 OA
BRANCH  29  31
HETATM   31  O   UNK N   1      30.815  12.465   3.387  0.00  0.00    -0.309 OA
BRANCH  31  32
HETATM   32  C   UNK N   1      30.874  11.778   4.605  0.00  0.00     0.123 C 
HETATM   33  C   UNK N   1      30.559  10.311   4.394  0.00  0.00     0.040 C 
HETATM   34  C   UNK N   1      32.257  11.924   5.204  0.00  0.00     0.040 C 
ENDBRANCH  31  32
ENDBRANCH  29  31
BRANCH  29  35
HETATM   35  O   UNK N   1      29.010  14.349   2.311  0.00  0.00    -0.309 OA
BRANCH  35  36
HETATM   36  C   UNK N   1      27.696  14.260   2.780  0.00  0.00     0.123 C 
HETATM   37  C   UNK N   1      26.979  13.118   2.090  0.00  0.00     0.040 C 
HETATM   38  C   UNK N   1      26.963  15.560   2.508  0.00  0.00     0.040 C 
ENDBRANCH  35  36
ENDBRANCH  29  35
ENDBRANCH   1  29
TORSDOF 15
ENDMDL
MODEL 7
REMARK VINA RESULT:      -6.0     15.087     16.850
REMARK  15 active torsions:
REMARK  status: ('A' for Active; 'I' for Inactive)
REMARK    1  A    between atoms: C_2  and  O_4 
REMARK    2  A    between atoms: O_4  and  P_5 
REMARK    3  A    between atoms: P_5  and  C_7 
REMARK    4  A    between atoms: P_5  and  O_34 
REMARK    5  A    between atoms: C_7  and  C_8 
REMARK    6  A    between atoms: C_7  and  P_24 
REMARK    7  A    between atoms: C_8  and  C_9 
REMARK    8  A    between atoms: C_11  and  C_20 
REMARK    9  A    between atoms: C_12  and  O_19 
REMARK   10  A    between atoms: C_13  and  C_15 
REMARK   11  A    between atoms: P_24  and  O_26 
REMARK   12  A    between atoms: P_24  and  O_30 
REMARK   13  A    between atoms: O_26  and  C_27 
REMARK   14  A    between atoms: O_30  and  C_31 
REMARK   15  A    between atoms: O_34  and  C_35 
ROOT
HETATM    1  C   UNK N   1      21.777  14.837   7.011  0.00  0.00     0.226 C 
ENDROOT
BRANCH   1   2
HETATM    2  P   UNK N   1      20.831  16.444   7.216  0.00  0.00     0.345 P 
HETATM    3  O   UNK N   1      21.816  17.545   6.736  0.00  0.00    -0.258 OA
BRANCH   2   4
HETATM    4  O   UNK N   1      19.502  16.693   6.104  0.00  0.00    -0.309 OA
BRANCH   4   5
HETATM    5  C   UNK N   1      19.813  15.985   4.935  0.00  0.00     0.123 C 
HETATM    6  C   UNK N   1      19.789  16.877   3.708  0.00  0.00     0.040 C 
HETATM    7  C   UNK N   1      18.841  14.836   4.766  0.00  0.00     0.040 C 
ENDBRANCH   4   5
ENDBRANCH   2   4
BRANCH   2   8
HETATM    8  O   UNK N   1      20.501  17.042   8.831  0.00  0.00    -0.309 OA
BRANCH   8   9
HETATM    9  C   UNK N   1      19.370  17.853   8.806  0.00  0.00     0.123 C 
HETATM   10  C   UNK N   1      18.166  17.045   9.241  0.00  0.00     0.040 C 
HETATM   11  C   UNK N   1      19.564  19.022   9.752  0.00  0.00     0.040 C 
ENDBRANCH   8   9
ENDBRANCH   2   8
ENDBRANCH   1   2
BRANCH   1  12
HETATM   12  C   UNK N   1      23.276  15.122   6.937  0.00  0.00     0.067 C 
BRANCH  12  13
HETATM   13  C   UNK N   1      23.927  14.759   5.637  0.00  0.00    -0.055 A 
HETATM   14  C   UNK N   1      25.289  14.992   5.487  0.00  0.00     0.018 A 
HETATM   15  C   UNK N   1      25.944  14.731   4.272  0.00  0.00    -0.016 A 
HETATM   16  C   UNK N   1      25.193  14.218   3.187  0.00  0.00     0.079 A 
HETATM   17  C   UNK N   1      23.798  13.977   3.321  0.00  0.00    -0.016 A 
HETATM   18  C   UNK N   1      23.187  14.268   4.560  0.00  0.00     0.018 A 
BRANCH  15  19
HETATM   19  C   UNK N   1      27.435  15.021   4.133  0.00  0.00    -0.021 C 
HETATM   20  C   UNK N   1      27.993  15.506   5.461  0.00  0.00     0.019 C 
HETATM   21  C   UNK N   1      27.672  16.089   3.080  0.00  0.00     0.019 C 
HETATM   22  C   UNK N   1      28.243  13.795   3.725  0.00  0.00     0.019 C 
ENDBRANCH  15  19
BRANCH  16  23
HETATM   23  O   UNK N   1      25.825  13.970   2.020  0.00  0.00    -0.360 OA
HETATM   24  H   UNK N   1      26.498  14.549   1.719  0.00  0.00     0.217 HD
ENDBRANCH  16  23
BRANCH  17  25
HETATM   25  C   UNK N   1      22.904  13.438   2.196  0.00  0.00    -0.021 C 
HETATM   26  C   UNK N   1      21.489  13.243   2.701  0.00  0.00     0.019 C 
HETATM   27  C   UNK N   1      22.865  14.441   1.058  0.00  0.00     0.019 C 
HETATM   28  C   UNK N   1      23.324  12.105   1.597  0.00  0.00     0.019 C 
ENDBRANCH  17  25
ENDBRANCH  12  13
ENDBRANCH   1  12
BRANCH   1  29
HETATM   29  P   UNK N   1      21.433  13.689   8.441  0.00  0.00     0.345 P 
HETATM   30  O   UNK N   1      20.007  13.993   8.984  0.00  0.00    -0.258 OA
BRANCH  29  31
HETATM   31  O   UNK N   1      22.492  13.750   9.839  0.00  0.00    -0.309 OA
BRANCH  31  32
HETATM   32  C   UNK N   1      22.972  12.456  10.070  0.00  0.00     0.123 C 
HETATM   33  C   UNK N   1      24.483  12.427   9.946  0.00  0.00     0.040 C 
HETATM   34  C   UNK N   1      22.565  12.002  11.456  0.00  0.00     0.040 C 
ENDBRANCH  31  32
ENDBRANCH  29  31
BRANCH  29  35
HETATM   35  O   UNK N   1      21.278  12.012   7.977  0.00  0.00    -0.309 OA
BRANCH  35  36
HETATM   36  C   UNK N   1      21.632  11.945   6.626  0.00  0.00     0.123 C 
HETATM   37  C   UNK N   1      20.498  11.343   5.824  0.00  0.00     0.040 C 
HETATM   38  C   UNK N   1      22.879  11.096   6.462  0.00  0.00     0.040 C 
ENDBRANCH  35  36
ENDBRANCH  29  35
ENDBRANCH   1  29
TORSDOF 15
ENDMDL
MODEL 8
REMARK VINA RESULT:      -5.9     14.654     16.684
REMARK  15 active torsions:
REMARK  status: ('A' for Active; 'I' for Inactive)
REMARK    1  A    between atoms: C_2  and  O_4 
REMARK    2  A    between atoms: O_4  and  P_5 
REMARK    3  A    between atoms: P_5  and  C_7 
REMARK    4  A    between atoms: P_5  and  O_34 
REMARK    5  A    between atoms: C_7  and  C_8 
REMARK    6  A    between atoms: C_7  and  P_24 
REMARK    7  A    between atoms: C_8  and  C_9 
REMARK    8  A    between atoms: C_11  and  C_20 
REMARK    9  A    between atoms: C_12  and  O_19 
REMARK   10  A    between atoms: C_13  and  C_15 
REMARK   11  A    between atoms: P_24  and  O_26 
REMARK   12  A    between atoms: P_24  and  O_30 
REMARK   13  A    between atoms: O_26  and  C_27 
REMARK   14  A    between atoms: O_30  and  C_31 
REMARK   15  A    between atoms: O_34  and  C_35 
ROOT
HETATM    1  C   UNK N   1      22.358  14.517   6.921  0.00  0.00     0.226 C 
ENDROOT
BRANCH   1   2
HETATM    2  P   UNK N   1      21.454  16.155   7.061  0.00  0.00     0.345 P 
HETATM    3  O   UNK N   1      20.117  15.932   6.303  0.00  0.00    -0.258 OA
BRANCH   2   4
HETATM    4  O   UNK N   1      20.857  16.562   8.655  0.00  0.00    -0.309 OA
BRANCH   4   5
HETATM    5  C   UNK N   1      19.718  17.358   8.471  0.00  0.00     0.123 C 
HETATM    6  C   UNK N   1      19.910  18.759   9.021  0.00  0.00     0.040 C 
HETATM    7  C   UNK N   1      18.526  16.696   9.130  0.00  0.00     0.040 C 
ENDBRANCH   4   5
ENDBRANCH   2   4
BRANCH   2   8
HETATM    8  O   UNK N   1      22.057  17.543   6.175  0.00  0.00    -0.309 OA
BRANCH   8   9
HETATM    9  C   UNK N   1      21.413  17.625   4.944  0.00  0.00     0.123 C 
HETATM   10  C   UNK N   1      21.056  19.068   4.661  0.00  0.00     0.040 C 
HETATM   11  C   UNK N   1      22.336  17.109   3.856  0.00  0.00     0.040 C 
ENDBRANCH   8   9
ENDBRANCH   2   8
ENDBRANCH   1   2
BRANCH   1  12
HETATM   12  C   UNK N   1      23.865  14.743   7.033  0.00  0.00     0.067 C 
BRANCH  12  13
HETATM   13  C   UNK N   1      24.556  15.059   5.741  0.00  0.00    -0.055 A 
HETATM   14  C   UNK N   1      24.303  14.252   4.638  0.00  0.00     0.018 A 
HETATM   15  C   UNK N   1      24.966  14.459   3.416  0.00  0.00    -0.016 A 
HETATM   16  C   UNK N   1      25.905  15.514   3.318  0.00  0.00     0.079 A 
HETATM   17  C   UNK N   1      26.178  16.347   4.437  0.00  0.00    -0.016 A 
HETATM   18  C   UNK N   1      25.493  16.088   5.644  0.00  0.00     0.018 A 
BRANCH  15  19
HETATM   19  C   UNK N   1      24.683  13.540   2.231  0.00  0.00    -0.021 C 
HETATM   20  C   UNK N   1      23.590  12.549   2.596  0.00  0.00     0.019 C 
HETATM   21  C   UNK N   1      25.936  12.772   1.845  0.00  0.00     0.019 C 
HETATM   22  C   UNK N   1      24.214  14.294   0.993  0.00  0.00     0.019 C 
ENDBRANCH  15  19
BRANCH  16  23
HETATM   23  O   UNK N   1      26.541  15.708   2.143  0.00  0.00    -0.360 OA
HETATM   24  H   UNK N   1      27.223  15.124   1.877  0.00  0.00     0.217 HD
ENDBRANCH  16  23
BRANCH  17  25
HETATM   25  C   UNK N   1      27.189  17.502   4.426  0.00  0.00    -0.021 C 
HETATM   26  C   UNK N   1      26.595  18.710   3.731  0.00  0.00     0.019 C 
HETATM   27  C   UNK N   1      27.522  17.895   5.854  0.00  0.00     0.019 C 
HETATM   28  C   UNK N   1      28.509  17.221   3.726  0.00  0.00     0.019 C 
ENDBRANCH  17  25
ENDBRANCH  12  13
ENDBRANCH   1  12
BRANCH   1  29
HETATM   29  P   UNK N   1      21.804  13.347   8.265  0.00  0.00     0.345 P 
HETATM   30  O   UNK N   1      20.258  13.450   8.400  0.00  0.00    -0.258 OA
BRANCH  29  31
HETATM   31  O   UNK N   1      22.436  13.574   9.887  0.00  0.00    -0.309 OA
BRANCH  31  32
HETATM   32  C   UNK N   1      23.160  12.427  10.229  0.00  0.00     0.123 C 
HETATM   33  C   UNK N   1      24.647  12.680  10.070  0.00  0.00     0.040 C 
HETATM   34  C   UNK N   1      22.858  12.044  11.662  0.00  0.00     0.040 C 
ENDBRANCH  31  32
ENDBRANCH  29  31
BRANCH  29  35
HETATM   35  O   UNK N   1      22.006  11.660   7.858  0.00  0.00    -0.309 OA
BRANCH  35  36
HETATM   36  C   UNK N   1      22.157  11.607   6.469  0.00  0.00     0.123 C 
HETATM   37  C   UNK N   1      20.966  10.910   5.847  0.00  0.00     0.040 C 
HETATM   38  C   UNK N   1      23.428  10.857   6.118  0.00  0.00     0.040 C 
ENDBRANCH  35  36
ENDBRANCH  29  35
ENDBRANCH   1  29
TORSDOF 15
ENDMDL
MODEL 9
REMARK VINA RESULT:      -5.8     12.848     15.240
REMARK  15 active torsions:
REMARK  status: ('A' for Active; 'I' for Inactive)
REMARK    1  A    between atoms: C_2  and  O_4 
REMARK    2  A    between atoms: O_4  and  P_5 
REMARK    3  A    between atoms: P_5  and  C_7 
REMARK    4  A    between atoms: P_5  and  O_34 
REMARK    5  A    between atoms: C_7  and  C_8 
REMARK    6  A    between atoms: C_7  and  P_24 
REMARK    7  A    between atoms: C_8  and  C_9 
REMARK    8  A    between atoms: C_11  and  C_20 
REMARK    9  A    between atoms: C_12  and  O_19 
REMARK   10  A    between atoms: C_13  and  C_15 
REMARK   11  A    between atoms: P_24  and  O_26 
REMARK   12  A    between atoms: P_24  and  O_30 
REMARK   13  A    between atoms: O_26  and  C_27 
REMARK   14  A    between atoms: O_30  and  C_31 
REMARK   15  A    between atoms: O_34  and  C_35 
ROOT
HETATM    1  C   UNK N   1      27.495  16.289   5.322  0.00  0.00     0.226 C 
ENDROOT
BRANCH   1   2
HETATM    2  P   UNK N   1      28.694  15.260   4.310  0.00  0.00     0.345 P 
HETATM    3  O   UNK N   1      28.612  13.838   4.930  0.00  0.00    -0.258 OA
BRANCH   2   4
HETATM    4  O   UNK N   1      28.208  14.923   2.663  0.00  0.00    -0.309 OA
BRANCH   4   5
HETATM    5  C   UNK N   1      26.853  14.565   2.705  0.00  0.00     0.123 C 
HETATM    6  C   UNK N   1      26.606  13.203   2.083  0.00  0.00     0.040 C 
HETATM    7  C   UNK N   1      26.028  15.621   1.998  0.00  0.00     0.040 C 
ENDBRANCH   4   5
ENDBRANCH   2   4
BRANCH   2   8
HETATM    8  O   UNK N   1      30.416  15.544   4.476  0.00  0.00    -0.309 OA
BRANCH   8   9
HETATM    9  C   UNK N   1      31.007  15.578   3.217  0.00  0.00     0.123 C 
HETATM   10  C   UNK N   1      31.884  16.806   3.108  0.00  0.00     0.040 C 
HETATM   11  C   UNK N   1      31.852  14.333   3.022  0.00  0.00     0.040 C 
ENDBRANCH   8   9
ENDBRANCH   2   8
ENDBRANCH   1   2
BRANCH   1  12
HETATM   12  C   UNK N   1      26.944  15.458   6.479  0.00  0.00     0.067 C 
BRANCH  12  13
HETATM   13  C   UNK N   1      25.453  15.304   6.494  0.00  0.00    -0.055 A 
HETATM   14  C   UNK N   1      24.685  16.196   5.756  0.00  0.00     0.018 A 
HETATM   15  C   UNK N   1      23.281  16.143   5.778  0.00  0.00    -0.016 A 
HETATM   16  C   UNK N   1      22.648  15.154   6.569  0.00  0.00     0.079 A 
HETATM   17  C   UNK N   1      23.417  14.235   7.333  0.00  0.00    -0.016 A 
HETATM   18  C   UNK N   1      24.824  14.341   7.284  0.00  0.00     0.018 A 
BRANCH  15  19
HETATM   19  C   UNK N   1      22.468  17.153   4.975  0.00  0.00    -0.021 C 
HETATM   20  C   UNK N   1      23.396  18.010   4.132  0.00  0.00     0.019 C 
HETATM   21  C   UNK N   1      21.674  18.054   5.906  0.00  0.00     0.019 C 
HETATM   22  C   UNK N   1      21.474  16.495   4.025  0.00  0.00     0.019 C 
ENDBRANCH  15  19
BRANCH  16  23
HETATM   23  O   UNK N   1      21.299  15.106   6.589  0.00  0.00    -0.360 OA
HETATM   24  H   UNK N   1      20.814  15.751   7.066  0.00  0.00     0.217 HD
ENDBRANCH  16  23
BRANCH  17  25
HETATM   25  C   UNK N   1      22.817  13.142   8.229  0.00  0.00    -0.021 C 
HETATM   26  C   UNK N   1      23.916  12.267   8.794  0.00  0.00     0.019 C 
HETATM   27  C   UNK N   1      22.084  13.789   9.391  0.00  0.00     0.019 C 
HETATM   28  C   UNK N   1      21.833  12.200   7.555  0.00  0.00     0.019 C 
ENDBRANCH  17  25
ENDBRANCH  12  13
ENDBRANCH   1  12
BRANCH   1  29
HETATM   29  P   UNK N   1      28.345  17.807   5.997  0.00  0.00     0.345 P 
HETATM   30  O   UNK N   1      29.173  18.457   4.852  0.00  0.00    -0.258 OA
BRANCH  29  31
HETATM   31  O   UNK N   1      29.463  17.616   7.337  0.00  0.00    -0.309 OA
BRANCH  31  32
HETATM   32  C   UNK N   1      28.951  18.330   8.427  0.00  0.00     0.123 C 
HETATM   33  C   UNK N   1      28.080  17.430   9.280  0.00  0.00     0.040 C 
HETATM   34  C   UNK N   1      30.092  18.874   9.259  0.00  0.00     0.040 C 
ENDBRANCH  31  32
ENDBRANCH  29  31
BRANCH  29  35
HETATM   35  O   UNK N   1      27.249  19.102   6.412  0.00  0.00    -0.309 OA
BRANCH  35  36
HETATM   36  C   UNK N   1      27.490  20.130   5.495  0.00  0.00     0.123 C 
HETATM   37  C   UNK N   1      27.579  21.457   6.219  0.00  0.00     0.040 C 
HETATM   38  C   UNK N   1      26.371  20.181   4.473  0.00  0.00     0.040 C 
ENDBRANCH  35  36
ENDBRANCH  29  35
ENDBRANCH   1  29
TORSDOF 15
ENDMDL
