REMARK  4 active torsions:
REMARK  status: ('A' for Active; 'I' for Inactive)
REMARK    1  A    between atoms: C_2  and  O_29 
REMARK       I    between atoms: N_5  and  C_8 
REMARK       I    between atoms: C_8  and  N_10 
REMARK    2  A    between atoms: N_10  and  C_11 
REMARK    3  A    between atoms: C_15  and  O_27 
REMARK    4  A    between atoms: C_18  and  N_21 
ROOT
HETATM    1  C   UNK N   1       0.447  -0.265   0.070  0.00  0.00     0.153 A 
HETATM    2  N   UNK N   1       1.401   0.700  -0.071  0.00  0.00    -0.333 N 
ATOM      3  HN  UNK N   1       1.210   1.701  -0.127  1.00  0.00     0.168 HD
HETATM    4  C   UNK N   1       2.666   0.134  -0.127  0.00  0.00     0.087 A 
HETATM    5  C   UNK N   1       3.856   0.851  -0.293  0.00  0.00     0.096 A 
HETATM    6  C   UNK N   1       5.067   0.126  -0.379  0.00  0.00     0.041 A 
HETATM    7  C   UNK N   1       5.082  -1.281  -0.290  0.00  0.00     0.034 A 
HETATM    8  C   UNK N   1       3.891  -2.011  -0.102  0.00  0.00     0.050 A 
HETATM    9  C   UNK N   1       2.700  -1.267  -0.036  0.00  0.00     0.064 A 
HETATM   10  S   UNK N   1       1.138  -1.753   0.107  0.00  0.00    -0.049 SA
ENDROOT
BRANCH   1  11
HETATM   11  N   UNK N   1      -0.948  -0.094  -0.048  0.00  0.00    -0.289 N 
HETATM   12  C   UNK N   1      -1.677   1.041   0.060  0.00  0.00     0.324 C 
HETATM   13  N   UNK N   1      -3.000   0.992  -0.265  0.00  0.00    -0.334 N 
HETATM   14  O   UNK N   1      -1.160   2.084   0.436  0.00  0.00    -0.247 OA
HETATM   15  C   UNK N   1      -3.868   2.144  -0.141  0.00  0.00     0.130 C 
HETATM   16  C   UNK N   1      -3.561  -0.238  -0.788  0.00  0.00     0.130 C 
HETATM   17  C   UNK N   1      -5.125   1.752   0.653  0.00  0.00     0.057 C 
HETATM   18  C   UNK N   1      -5.785   0.479   0.093  0.00  0.00     0.057 C 
HETATM   19  C   UNK N   1      -6.352   0.732  -1.298  0.00  0.00     0.046 C 
HETATM   20  C   UNK N   1      -4.762  -0.654   0.048  0.00  0.00     0.057 C 
HETATM   21  H   UNK N   1      -1.462  -0.913  -0.234  0.00  0.00     0.172 HD
BRANCH  18  22
HETATM   22  O   UNK N   1      -6.832   0.099   0.931  0.00  0.00    -0.390 OA
HETATM   23  H   UNK N   1      -7.426   0.598   1.514  0.00  0.00     0.210 HD
ENDBRANCH  18  22
ENDBRANCH   1  11
BRANCH   5  24
HETATM   24  O   UNK N   1       3.828   2.203  -0.378  0.00  0.00    -0.354 OA
HETATM   25  C   UNK N   1       4.964   2.968  -0.528  0.00  0.00     0.210 C 
ENDBRANCH   5  24
BRANCH   8  26
HETATM   26  N   UNK N   1       3.920  -3.444   0.019  0.00  0.00    -0.376 N 
HETATM   27  C   UNK N   1       5.174  -4.163  -0.129  0.00  0.00     0.149 C 
HETATM   28  C   UNK N   1       4.892  -5.565  -0.681  0.00  0.00     0.187 C 
HETATM   29  O   UNK N   1       3.956  -6.214   0.144  0.00  0.00    -0.388 OA
HETATM   30  C   UNK N   1       2.729  -5.571  -0.088  0.00  0.00     0.187 C 
HETATM   31  C   UNK N   1       2.775  -4.178   0.533  0.00  0.00     0.149 C 
ENDBRANCH   8  26
TORSDOF 4
