MODEL 1
REMARK VINA RESULT:      -8.7      0.000      0.000
REMARK  9 active torsions:
REMARK  status: ('A' for Active; 'I' for Inactive)
REMARK    1  A    between atoms: O_37  and  C_2 
REMARK    2  A    between atoms: N_32  and  C_15 
REMARK    3  A    between atoms: N_34  and  C_16 
REMARK    4  A    between atoms: O_38  and  C_18 
REMARK    5  A    between atoms: O_37  and  C_19 
REMARK    6  A    between atoms: O_38  and  C_20 
REMARK    7  A    between atoms: C_24  and  C_21 
REMARK    8  A    between atoms: N_29  and  C_23 
REMARK    9  A    between atoms: O_35  and  C_24 
ROOT
HETATM    1  C   UNK N   1      35.188  13.228  10.903  0.00  0.00     0.159 C 
HETATM    2  N   UNK N   1      34.977  14.494  10.934  0.00  0.00    -0.336 N 
ATOM      3  HN  UNK N   1      35.496  14.986  11.661  1.00  0.00     0.168 HD
ENDROOT
BRANCH   2   4
HETATM    4  C   UNK N   1      34.162  15.324  10.149  0.00  0.00     0.037 A 
HETATM    5  C   UNK N   1      32.927  14.799   9.792  0.00  0.00     0.032 A 
HETATM    6  C   UNK N   1      32.112  15.469   8.906  0.00  0.00     0.043 A 
HETATM    7  C   UNK N   1      32.516  16.681   8.342  0.00  0.00     0.114 A 
HETATM    8  C   UNK N   1      33.754  17.233   8.722  0.00  0.00     0.152 A 
HETATM    9  C   UNK N   1      34.584  16.549   9.620  0.00  0.00     0.074 A 
HETATM   10  F   UNK N   1      34.160  18.418   8.205  0.00  0.00    -0.203 F 
BRANCH   7  11
HETATM   11  O   UNK N   1      31.733  17.341   7.448  0.00  0.00    -0.306 OA
BRANCH  11  12
HETATM   12  C   UNK N   1      30.373  17.289   7.330  0.00  0.00     0.103 A 
HETATM   13  C   UNK N   1      29.726  16.511   6.352  0.00  0.00     0.056 A 
HETATM   14  C   UNK N   1      28.336  16.473   6.295  0.00  0.00     0.092 A 
HETATM   15  N   UNK N   1      27.602  17.186   7.188  0.00  0.00    -0.351 N 
HETATM   16  C   UNK N   1      28.191  17.959   8.139  0.00  0.00     0.123 A 
HETATM   17  H   UNK N   1      26.619  17.143   7.145  0.00  0.00     0.166 HD
HETATM   18  C   UNK N   1      29.592  18.031   8.223  0.00  0.00     0.111 A 
HETATM   19 Cl   UNK N   1      30.376  19.025   9.448  0.00  0.00    -0.077 Cl
BRANCH  16  20
HETATM   20  N   UNK N   1      27.461  18.611   8.962  0.00  0.00    -0.384 N 
HETATM   21  H   UNK N   1      27.840  18.934   9.812  0.00  0.00     0.157 HD
ATOM     22  HN  UNK N   1      26.484  18.798   8.738  1.00  0.00     0.157 HD
ENDBRANCH  16  20
ENDBRANCH  11  12
ENDBRANCH   7  11
ENDBRANCH   2   4
BRANCH   1  23
HETATM   23  C   UNK N   1      36.033  12.648  12.000  0.00  0.00     0.116 A 
HETATM   24  C   UNK N   1      37.231  11.971  11.726  0.00  0.00     0.090 A 
HETATM   25  C   UNK N   1      37.975  11.444  12.793  0.00  0.00     0.055 A 
HETATM   26  C   UNK N   1      37.528  11.593  14.109  0.00  0.00     0.103 A 
HETATM   27  N   UNK N   1      36.360  12.245  14.394  0.00  0.00    -0.289 N 
HETATM   28  C   UNK N   1      35.609  12.770  13.354  0.00  0.00     0.269 A 
HETATM   29  O   UNK N   1      34.562  13.345  13.600  0.00  0.00    -0.266 OA
BRANCH  24  30
HETATM   30  O   UNK N   1      37.655  11.847  10.443  0.00  0.00    -0.350 OA
BRANCH  30  31
HETATM   31  C   UNK N   1      38.812  12.405   9.951  0.00  0.00     0.171 C 
HETATM   32  C   UNK N   1      38.565  13.872   9.661  0.00  0.00     0.034 C 
ENDBRANCH  30  31
ENDBRANCH  24  30
BRANCH  27  33
HETATM   33  C   UNK N   1      35.937  12.388  15.790  0.00  0.00     0.042 A 
HETATM   34  C   UNK N   1      35.818  13.661  16.391  0.00  0.00     0.033 A 
HETATM   35  C   UNK N   1      35.452  13.812  17.724  0.00  0.00     0.044 A 
HETATM   36  C   UNK N   1      35.194  12.687  18.498  0.00  0.00     0.116 A 
HETATM   37  C   UNK N   1      35.295  11.412  17.930  0.00  0.00     0.044 A 
HETATM   38  F   UNK N   1      34.852  12.835  19.800  0.00  0.00    -0.206 F 
HETATM   39  C   UNK N   1      35.661  11.262  16.585  0.00  0.00     0.033 A 
ENDBRANCH  27  33
ENDBRANCH   1  23
BRANCH   1  40
HETATM   40  O   UNK N   1      34.633  12.455   9.945  0.00  0.00    -0.345 OA
HETATM   41  H   UNK N   1      34.004  11.799  10.175  0.00  0.00     0.219 HD
ENDBRANCH   1  40
TORSDOF 9
ENDMDL
MODEL 2
REMARK VINA RESULT:      -8.5      1.900      2.245
REMARK  9 active torsions:
REMARK  status: ('A' for Active; 'I' for Inactive)
REMARK    1  A    between atoms: O_37  and  C_2 
REMARK    2  A    between atoms: N_32  and  C_15 
REMARK    3  A    between atoms: N_34  and  C_16 
REMARK    4  A    between atoms: O_38  and  C_18 
REMARK    5  A    between atoms: O_37  and  C_19 
REMARK    6  A    between atoms: O_38  and  C_20 
REMARK    7  A    between atoms: C_24  and  C_21 
REMARK    8  A    between atoms: N_29  and  C_23 
REMARK    9  A    between atoms: O_35  and  C_24 
ROOT
HETATM    1  C   UNK N   1      35.240  13.295  10.811  0.00  0.00     0.159 C 
HETATM    2  N   UNK N   1      35.726  14.314  10.199  0.00  0.00    -0.336 N 
ATOM      3  HN  UNK N   1      36.684  14.541  10.463  1.00  0.00     0.168 HD
ENDROOT
BRANCH   2   4
HETATM    4  C   UNK N   1      35.177  15.170   9.233  0.00  0.00     0.037 A 
HETATM    5  C   UNK N   1      34.999  14.624   7.969  0.00  0.00     0.032 A 
HETATM    6  C   UNK N   1      34.604  15.417   6.913  0.00  0.00     0.043 A 
HETATM    7  C   UNK N   1      34.387  16.786   7.092  0.00  0.00     0.114 A 
HETATM    8  C   UNK N   1      34.537  17.340   8.376  0.00  0.00     0.152 A 
HETATM    9  C   UNK N   1      34.943  16.533   9.448  0.00  0.00     0.074 A 
HETATM   10  F   UNK N   1      34.312  18.660   8.580  0.00  0.00    -0.203 F 
BRANCH   7  11
HETATM   11  O   UNK N   1      34.021  17.584   6.054  0.00  0.00    -0.306 OA
BRANCH  11  12
HETATM   12  C   UNK N   1      33.020  17.372   5.149  0.00  0.00     0.103 A 
HETATM   13  C   UNK N   1      33.264  17.210   3.773  0.00  0.00     0.056 A 
HETATM   14  C   UNK N   1      32.209  16.968   2.899  0.00  0.00     0.092 A 
HETATM   15  N   UNK N   1      30.939  16.887   3.375  0.00  0.00    -0.351 N 
HETATM   16  C   UNK N   1      30.663  17.051   4.696  0.00  0.00     0.123 A 
HETATM   17  H   UNK N   1      30.202  16.705   2.749  0.00  0.00     0.166 HD
HETATM   18  C   UNK N   1      31.700  17.306   5.609  0.00  0.00     0.111 A 
HETATM   19 Cl   UNK N   1      31.364  17.521   7.326  0.00  0.00    -0.077 Cl
BRANCH  16  20
HETATM   20  N   UNK N   1      29.453  16.962   5.103  0.00  0.00    -0.384 N 
HETATM   21  H   UNK N   1      29.226  16.372   5.858  0.00  0.00     0.157 HD
ATOM     22  HN  UNK N   1      28.722  17.504   4.644  1.00  0.00     0.157 HD
ENDBRANCH  16  20
ENDBRANCH  11  12
ENDBRANCH   7  11
ENDBRANCH   2   4
BRANCH   1  23
HETATM   23  C   UNK N   1      36.076  12.688  11.900  0.00  0.00     0.116 A 
HETATM   24  C   UNK N   1      37.270  12.007  11.619  0.00  0.00     0.090 A 
HETATM   25  C   UNK N   1      38.005  11.455  12.679  0.00  0.00     0.055 A 
HETATM   26  C   UNK N   1      37.554  11.583  13.996  0.00  0.00     0.103 A 
HETATM   27  N   UNK N   1      36.390  12.238  14.289  0.00  0.00    -0.289 N 
HETATM   28  C   UNK N   1      35.647  12.788  13.255  0.00  0.00     0.269 A 
HETATM   29  O   UNK N   1      34.604  13.367  13.507  0.00  0.00    -0.266 OA
BRANCH  24  30
HETATM   30  O   UNK N   1      37.698  11.904  10.335  0.00  0.00    -0.350 OA
BRANCH  30  31
HETATM   31  C   UNK N   1      38.815  12.534   9.838  0.00  0.00     0.171 C 
HETATM   32  C   UNK N   1      38.508  13.053   8.448  0.00  0.00     0.034 C 
ENDBRANCH  30  31
ENDBRANCH  24  30
BRANCH  27  33
HETATM   33  C   UNK N   1      35.962  12.359  15.684  0.00  0.00     0.042 A 
HETATM   34  C   UNK N   1      35.791  13.624  16.291  0.00  0.00     0.033 A 
HETATM   35  C   UNK N   1      35.419  13.754  17.625  0.00  0.00     0.044 A 
HETATM   36  C   UNK N   1      35.209  12.617  18.395  0.00  0.00     0.116 A 
HETATM   37  C   UNK N   1      35.362  11.349  17.822  0.00  0.00     0.044 A 
HETATM   38  F   UNK N   1      34.862  12.746  19.697  0.00  0.00    -0.206 F 
HETATM   39  C   UNK N   1      35.733  11.219  16.476  0.00  0.00     0.033 A 
ENDBRANCH  27  33
ENDBRANCH   1  23
BRANCH   1  40
HETATM   40  O   UNK N   1      34.010  12.825  10.511  0.00  0.00    -0.345 OA
HETATM   41  H   UNK N   1      33.259  13.137  10.977  0.00  0.00     0.219 HD
ENDBRANCH   1  40
TORSDOF 9
ENDMDL
MODEL 3
REMARK VINA RESULT:      -8.5      1.935      2.371
REMARK  9 active torsions:
REMARK  status: ('A' for Active; 'I' for Inactive)
REMARK    1  A    between atoms: O_37  and  C_2 
REMARK    2  A    between atoms: N_32  and  C_15 
REMARK    3  A    between atoms: N_34  and  C_16 
REMARK    4  A    between atoms: O_38  and  C_18 
REMARK    5  A    between atoms: O_37  and  C_19 
REMARK    6  A    between atoms: O_38  and  C_20 
REMARK    7  A    between atoms: C_24  and  C_21 
REMARK    8  A    between atoms: N_29  and  C_23 
REMARK    9  A    between atoms: O_35  and  C_24 
ROOT
HETATM    1  C   UNK N   1      35.359  13.112  11.308  0.00  0.00     0.159 C 
HETATM    2  N   UNK N   1      35.899  14.078  10.659  0.00  0.00    -0.336 N 
ATOM      3  HN  UNK N   1      36.857  14.287  10.940  1.00  0.00     0.168 HD
ENDROOT
BRANCH   2   4
HETATM    4  C   UNK N   1      35.411  14.900   9.632  0.00  0.00     0.037 A 
HETATM    5  C   UNK N   1      34.952  16.151  10.023  0.00  0.00     0.032 A 
HETATM    6  C   UNK N   1      34.320  16.979   9.120  0.00  0.00     0.043 A 
HETATM    7  C   UNK N   1      34.119  16.571   7.799  0.00  0.00     0.114 A 
HETATM    8  C   UNK N   1      34.608  15.317   7.389  0.00  0.00     0.152 A 
HETATM    9  C   UNK N   1      35.246  14.474   8.309  0.00  0.00     0.074 A 
HETATM   10  F   UNK N   1      34.444  14.907   6.108  0.00  0.00    -0.203 F 
BRANCH   7  11
HETATM   11  O   UNK N   1      33.477  17.367   6.904  0.00  0.00    -0.306 OA
BRANCH  11  12
HETATM   12  C   UNK N   1      32.162  17.321   6.538  0.00  0.00     0.103 A 
HETATM   13  C   UNK N   1      31.114  17.308   7.476  0.00  0.00     0.056 A 
HETATM   14  C   UNK N   1      29.790  17.290   7.047  0.00  0.00     0.092 A 
HETATM   15  N   UNK N   1      29.509  17.288   5.718  0.00  0.00    -0.351 N 
HETATM   16  C   UNK N   1      30.495  17.287   4.782  0.00  0.00     0.123 A 
HETATM   17  H   UNK N   1      28.569  17.285   5.426  0.00  0.00     0.166 HD
HETATM   18  C   UNK N   1      31.843  17.296   5.176  0.00  0.00     0.111 A 
HETATM   19 Cl   UNK N   1      33.137  17.297   3.979  0.00  0.00    -0.077 Cl
BRANCH  16  20
HETATM   20  N   UNK N   1      30.185  17.289   3.541  0.00  0.00    -0.384 N 
HETATM   21  H   UNK N   1      29.725  16.514   3.143  0.00  0.00     0.157 HD
ATOM     22  HN  UNK N   1      30.415  18.095   2.960  1.00  0.00     0.157 HD
ENDBRANCH  16  20
ENDBRANCH  11  12
ENDBRANCH   7  11
ENDBRANCH   2   4
BRANCH   1  23
HETATM   23  C   UNK N   1      36.141  12.535  12.453  0.00  0.00     0.116 A 
HETATM   24  C   UNK N   1      37.316  11.798  12.245  0.00  0.00     0.090 A 
HETATM   25  C   UNK N   1      37.999  11.278  13.355  0.00  0.00     0.055 A 
HETATM   26  C   UNK N   1      37.516  11.494  14.649  0.00  0.00     0.103 A 
HETATM   27  N   UNK N   1      36.369  12.205  14.871  0.00  0.00    -0.289 N 
HETATM   28  C   UNK N   1      35.677  12.724  13.787  0.00  0.00     0.269 A 
HETATM   29  O   UNK N   1      34.649  13.353  13.976  0.00  0.00    -0.266 OA
BRANCH  24  30
HETATM   30  O   UNK N   1      37.777  11.610  10.983  0.00  0.00    -0.350 OA
BRANCH  30  31
HETATM   31  C   UNK N   1      37.597  10.456  10.256  0.00  0.00     0.171 C 
HETATM   32  C   UNK N   1      37.110  10.820   8.868  0.00  0.00     0.034 C 
ENDBRANCH  30  31
ENDBRANCH  24  30
BRANCH  27  33
HETATM   33  C   UNK N   1      35.906  12.417  16.244  0.00  0.00     0.042 A 
HETATM   34  C   UNK N   1      35.720  13.718  16.762  0.00  0.00     0.033 A 
HETATM   35  C   UNK N   1      35.315  13.935  18.075  0.00  0.00     0.044 A 
HETATM   36  C   UNK N   1      35.085  12.850  18.912  0.00  0.00     0.116 A 
HETATM   37  C   UNK N   1      35.251  11.548  18.428  0.00  0.00     0.044 A 
HETATM   38  F   UNK N   1      34.705  13.065  20.193  0.00  0.00    -0.206 F 
HETATM   39  C   UNK N   1      35.657  11.331  17.103  0.00  0.00     0.033 A 
ENDBRANCH  27  33
ENDBRANCH   1  23
BRANCH   1  40
HETATM   40  O   UNK N   1      34.123  12.670  10.995  0.00  0.00    -0.345 OA
HETATM   41  H   UNK N   1      34.014  11.858  10.539  0.00  0.00     0.219 HD
ENDBRANCH   1  40
TORSDOF 9
ENDMDL
MODEL 4
REMARK VINA RESULT:      -8.2      2.796      3.868
REMARK  9 active torsions:
REMARK  status: ('A' for Active; 'I' for Inactive)
REMARK    1  A    between atoms: O_37  and  C_2 
REMARK    2  A    between atoms: N_32  and  C_15 
REMARK    3  A    between atoms: N_34  and  C_16 
REMARK    4  A    between atoms: O_38  and  C_18 
REMARK    5  A    between atoms: O_37  and  C_19 
REMARK    6  A    between atoms: O_38  and  C_20 
REMARK    7  A    between atoms: C_24  and  C_21 
REMARK    8  A    between atoms: N_29  and  C_23 
REMARK    9  A    between atoms: O_35  and  C_24 
ROOT
HETATM    1  C   UNK N   1      34.038  15.981   8.957  0.00  0.00     0.159 C 
HETATM    2  N   UNK N   1      33.357  15.598   7.938  0.00  0.00    -0.336 N 
ATOM      3  HN  UNK N   1      33.489  14.616   7.693  1.00  0.00     0.168 HD
ENDROOT
BRANCH   2   4
HETATM    4  C   UNK N   1      32.464  16.283   7.101  0.00  0.00     0.037 A 
HETATM    5  C   UNK N   1      31.131  16.259   7.486  0.00  0.00     0.032 A 
HETATM    6  C   UNK N   1      30.154  16.775   6.662  0.00  0.00     0.043 A 
HETATM    7  C   UNK N   1      30.486  17.323   5.420  0.00  0.00     0.114 A 
HETATM    8  C   UNK N   1      31.839  17.377   5.036  0.00  0.00     0.152 A 
HETATM    9  C   UNK N   1      32.831  16.847   5.873  0.00  0.00     0.074 A 
HETATM   10  F   UNK N   1      32.189  17.921   3.846  0.00  0.00    -0.203 F 
BRANCH   7  11
HETATM   11  O   UNK N   1      29.531  17.814   4.586  0.00  0.00    -0.306 OA
BRANCH  11  12
HETATM   12  C   UNK N   1      28.318  18.341   4.924  0.00  0.00     0.103 A 
HETATM   13  C   UNK N   1      28.147  19.696   5.262  0.00  0.00     0.056 A 
HETATM   14  C   UNK N   1      26.882  20.187   5.570  0.00  0.00     0.092 A 
HETATM   15  N   UNK N   1      25.808  19.356   5.544  0.00  0.00    -0.351 N 
HETATM   16  C   UNK N   1      25.935  18.038   5.235  0.00  0.00     0.123 A 
HETATM   17  H   UNK N   1      24.916  19.716   5.754  0.00  0.00     0.166 HD
HETATM   18  C   UNK N   1      27.197  17.503   4.926  0.00  0.00     0.111 A 
HETATM   19 Cl   UNK N   1      27.385  15.798   4.522  0.00  0.00    -0.077 Cl
BRANCH  16  20
HETATM   20  N   UNK N   1      24.897  17.292   5.218  0.00  0.00    -0.384 N 
HETATM   21  H   UNK N   1      23.998  17.693   5.175  0.00  0.00     0.157 HD
ATOM     22  HN  UNK N   1      24.998  16.277   5.247  1.00  0.00     0.157 HD
ENDBRANCH  16  20
ENDBRANCH  11  12
ENDBRANCH   7  11
ENDBRANCH   2   4
BRANCH   1  23
HETATM   23  C   UNK N   1      35.012  14.998   9.539  0.00  0.00     0.116 A 
HETATM   24  C   UNK N   1      36.007  14.394   8.755  0.00  0.00     0.090 A 
HETATM   25  C   UNK N   1      36.883  13.478   9.355  0.00  0.00     0.055 A 
HETATM   26  C   UNK N   1      36.767  13.173  10.715  0.00  0.00     0.103 A 
HETATM   27  N   UNK N   1      35.801  13.747  11.493  0.00  0.00    -0.289 N 
HETATM   28  C   UNK N   1      34.922  14.653  10.918  0.00  0.00     0.269 A 
HETATM   29  O   UNK N   1      34.052  15.163  11.604  0.00  0.00    -0.266 OA
BRANCH  24  30
HETATM   30  O   UNK N   1      36.111  14.712   7.440  0.00  0.00    -0.350 OA
BRANCH  30  31
HETATM   31  C   UNK N   1      36.217  13.790   6.426  0.00  0.00     0.171 C 
HETATM   32  C   UNK N   1      35.474  14.307   5.211  0.00  0.00     0.034 C 
ENDBRANCH  30  31
ENDBRANCH  24  30
BRANCH  27  33
HETATM   33  C   UNK N   1      35.724  13.408  12.916  0.00  0.00     0.042 A 
HETATM   34  C   UNK N   1      36.496  14.099  13.876  0.00  0.00     0.033 A 
HETATM   35  C   UNK N   1      36.461  13.765  15.226  0.00  0.00     0.044 A 
HETATM   36  C   UNK N   1      35.649  12.721  15.655  0.00  0.00     0.116 A 
HETATM   37  C   UNK N   1      34.866  12.021  14.730  0.00  0.00     0.044 A 
HETATM   38  F   UNK N   1      35.628  12.388  16.967  0.00  0.00    -0.206 F 
HETATM   39  C   UNK N   1      34.901  12.362  13.370  0.00  0.00     0.033 A 
ENDBRANCH  27  33
ENDBRANCH   1  23
BRANCH   1  40
HETATM   40  O   UNK N   1      33.907  17.232   9.448  0.00  0.00    -0.345 OA
HETATM   41  H   UNK N   1      33.617  17.929   8.893  0.00  0.00     0.219 HD
ENDBRANCH   1  40
TORSDOF 9
ENDMDL
MODEL 5
REMARK VINA RESULT:      -8.2      2.732      3.611
REMARK  9 active torsions:
REMARK  status: ('A' for Active; 'I' for Inactive)
REMARK    1  A    between atoms: O_37  and  C_2 
REMARK    2  A    between atoms: N_32  and  C_15 
REMARK    3  A    between atoms: N_34  and  C_16 
REMARK    4  A    between atoms: O_38  and  C_18 
REMARK    5  A    between atoms: O_37  and  C_19 
REMARK    6  A    between atoms: O_38  and  C_20 
REMARK    7  A    between atoms: C_24  and  C_21 
REMARK    8  A    between atoms: N_29  and  C_23 
REMARK    9  A    between atoms: O_35  and  C_24 
ROOT
HETATM    1  C   UNK N   1      34.511  15.807   9.368  0.00  0.00     0.159 C 
HETATM    2  N   UNK N   1      33.892  15.423   8.311  0.00  0.00    -0.336 N 
ATOM      3  HN  UNK N   1      34.008  14.433   8.096  1.00  0.00     0.168 HD
ENDROOT
BRANCH   2   4
HETATM    4  C   UNK N   1      33.087  16.119   7.397  0.00  0.00     0.037 A 
HETATM    5  C   UNK N   1      31.717  15.986   7.572  0.00  0.00     0.032 A 
HETATM    6  C   UNK N   1      30.838  16.507   6.647  0.00  0.00     0.043 A 
HETATM    7  C   UNK N   1      31.310  17.169   5.510  0.00  0.00     0.114 A 
HETATM    8  C   UNK N   1      32.698  17.334   5.342  0.00  0.00     0.152 A 
HETATM    9  C   UNK N   1      33.590  16.799   6.281  0.00  0.00     0.074 A 
HETATM   10  F   UNK N   1      33.180  17.990   4.259  0.00  0.00    -0.203 F 
BRANCH   7  11
HETATM   11  O   UNK N   1      30.457  17.668   4.578  0.00  0.00    -0.306 OA
BRANCH  11  12
HETATM   12  C   UNK N   1      29.499  16.993   3.875  0.00  0.00     0.103 A 
HETATM   13  C   UNK N   1      29.797  15.886   3.059  0.00  0.00     0.056 A 
HETATM   14  C   UNK N   1      28.778  15.218   2.387  0.00  0.00     0.092 A 
HETATM   15  N   UNK N   1      27.492  15.633   2.521  0.00  0.00    -0.351 N 
HETATM   16  C   UNK N   1      27.167  16.707   3.290  0.00  0.00     0.123 A 
HETATM   17  H   UNK N   1      26.778  15.147   2.049  0.00  0.00     0.166 HD
HETATM   18  C   UNK N   1      28.169  17.413   3.977  0.00  0.00     0.111 A 
HETATM   19 Cl   UNK N   1      27.770  18.806   4.980  0.00  0.00    -0.077 Cl
BRANCH  16  20
HETATM   20  N   UNK N   1      25.943  17.062   3.391  0.00  0.00    -0.384 N 
HETATM   21  H   UNK N   1      25.243  16.388   3.553  0.00  0.00     0.157 HD
ATOM     22  HN  UNK N   1      25.689  18.046   3.305  1.00  0.00     0.157 HD
ENDBRANCH  16  20
ENDBRANCH  11  12
ENDBRANCH   7  11
ENDBRANCH   2   4
BRANCH   1  23
HETATM   23  C   UNK N   1      35.405  14.806  10.040  0.00  0.00     0.116 A 
HETATM   24  C   UNK N   1      36.483  14.211   9.365  0.00  0.00     0.090 A 
HETATM   25  C   UNK N   1      37.279  13.277  10.044  0.00  0.00     0.055 A 
HETATM   26  C   UNK N   1      37.003  12.944  11.374  0.00  0.00     0.103 A 
HETATM   27  N   UNK N   1      35.954  13.509  12.046  0.00  0.00    -0.289 N 
HETATM   28  C   UNK N   1      35.153  14.433  11.391  0.00  0.00     0.269 A 
HETATM   29  O   UNK N   1      34.211  14.935  11.981  0.00  0.00    -0.266 OA
BRANCH  24  30
HETATM   30  O   UNK N   1      36.742  14.556   8.079  0.00  0.00    -0.350 OA
BRANCH  30  31
HETATM   31  C   UNK N   1      36.741  13.672   7.025  0.00  0.00     0.171 C 
HETATM   32  C   UNK N   1      36.455  14.432   5.746  0.00  0.00     0.034 C 
ENDBRANCH  30  31
ENDBRANCH  24  30
BRANCH  27  33
HETATM   33  C   UNK N   1      35.710  13.141  13.442  0.00  0.00     0.042 A 
HETATM   34  C   UNK N   1      34.774  12.139  13.783  0.00  0.00     0.033 A 
HETATM   35  C   UNK N   1      34.505  11.804  15.105  0.00  0.00     0.044 A 
HETATM   36  C   UNK N   1      35.168  12.466  16.131  0.00  0.00     0.116 A 
HETATM   37  C   UNK N   1      36.108  13.457  15.828  0.00  0.00     0.044 A 
HETATM   38  F   UNK N   1      34.895  12.147  17.418  0.00  0.00    -0.206 F 
HETATM   39  C   UNK N   1      36.380  13.792  14.494  0.00  0.00     0.033 A 
ENDBRANCH  27  33
ENDBRANCH   1  23
BRANCH   1  40
HETATM   40  O   UNK N   1      34.389  17.072   9.824  0.00  0.00    -0.345 OA
HETATM   41  H   UNK N   1      33.559  17.507   9.793  0.00  0.00     0.219 HD
ENDBRANCH   1  40
TORSDOF 9
ENDMDL
MODEL 6
REMARK VINA RESULT:      -8.1      4.110     10.890
REMARK  9 active torsions:
REMARK  status: ('A' for Active; 'I' for Inactive)
REMARK    1  A    between atoms: O_37  and  C_2 
REMARK    2  A    between atoms: N_32  and  C_15 
REMARK    3  A    between atoms: N_34  and  C_16 
REMARK    4  A    between atoms: O_38  and  C_18 
REMARK    5  A    between atoms: O_37  and  C_19 
REMARK    6  A    between atoms: O_38  and  C_20 
REMARK    7  A    between atoms: C_24  and  C_21 
REMARK    8  A    between atoms: N_29  and  C_23 
REMARK    9  A    between atoms: O_35  and  C_24 
ROOT
HETATM    1  C   UNK N   1      35.440  12.859  13.511  0.00  0.00     0.159 C 
HETATM    2  N   UNK N   1      36.192  12.957  14.547  0.00  0.00    -0.336 N 
ATOM      3  HN  UNK N   1      37.113  13.353  14.358  1.00  0.00     0.168 HD
ENDROOT
BRANCH   2   4
HETATM    4  C   UNK N   1      35.977  12.618  15.891  0.00  0.00     0.037 A 
HETATM    5  C   UNK N   1      36.099  11.271  16.203  0.00  0.00     0.032 A 
HETATM    6  C   UNK N   1      35.767  10.811  17.460  0.00  0.00     0.043 A 
HETATM    7  C   UNK N   1      35.293  11.689  18.438  0.00  0.00     0.114 A 
HETATM    8  C   UNK N   1      35.196  13.060  18.137  0.00  0.00     0.152 A 
HETATM    9  C   UNK N   1      35.528  13.526  16.857  0.00  0.00     0.074 A 
HETATM   10  F   UNK N   1      34.759  13.935  19.074  0.00  0.00    -0.203 F 
BRANCH   7  11
HETATM   11  O   UNK N   1      34.940  11.246  19.673  0.00  0.00    -0.306 OA
BRANCH  11  12
HETATM   12  C   UNK N   1      35.536  10.263  20.411  0.00  0.00     0.103 A 
HETATM   13  C   UNK N   1      36.806  10.419  20.998  0.00  0.00     0.056 A 
HETATM   14  C   UNK N   1      37.354   9.394  21.763  0.00  0.00     0.092 A 
HETATM   15  N   UNK N   1      36.661   8.241  21.947  0.00  0.00    -0.351 N 
HETATM   16  C   UNK N   1      35.437   8.048  21.385  0.00  0.00     0.123 A 
HETATM   17  H   UNK N   1      37.054   7.527  22.499  0.00  0.00     0.166 HD
HETATM   18  C   UNK N   1      34.855   9.056  20.598  0.00  0.00     0.111 A 
HETATM   19 Cl   UNK N   1      33.270   8.827  19.862  0.00  0.00    -0.077 Cl
BRANCH  16  20
HETATM   20  N   UNK N   1      34.817   6.948  21.587  0.00  0.00    -0.384 N 
HETATM   21  H   UNK N   1      35.248   6.089  21.371  0.00  0.00     0.157 HD
ATOM     22  HN  UNK N   1      33.874   6.959  21.974  1.00  0.00     0.157 HD
ENDBRANCH  16  20
ENDBRANCH  11  12
ENDBRANCH   7  11
ENDBRANCH   2   4
BRANCH   1  23
HETATM   23  C   UNK N   1      36.054  13.199  12.184  0.00  0.00     0.116 A 
HETATM   24  C   UNK N   1      37.263  12.623  11.763  0.00  0.00     0.090 A 
HETATM   25  C   UNK N   1      37.791  12.985  10.515  0.00  0.00     0.055 A 
HETATM   26  C   UNK N   1      37.122  13.905   9.702  0.00  0.00     0.103 A 
HETATM   27  N   UNK N   1      35.946  14.480  10.098  0.00  0.00    -0.289 N 
HETATM   28  C   UNK N   1      35.409  14.138  11.330  0.00  0.00     0.269 A 
HETATM   29  O   UNK N   1      34.365  14.654  11.693  0.00  0.00    -0.266 OA
BRANCH  24  30
HETATM   30  O   UNK N   1      37.892  11.723  12.560  0.00  0.00    -0.350 OA
BRANCH  30  31
HETATM   31  C   UNK N   1      37.748  10.359  12.453  0.00  0.00     0.171 C 
HETATM   32  C   UNK N   1      38.209   9.713  13.743  0.00  0.00     0.034 C 
ENDBRANCH  30  31
ENDBRANCH  24  30
BRANCH  27  33
HETATM   33  C   UNK N   1      35.272  15.430   9.209  0.00  0.00     0.042 A 
HETATM   34  C   UNK N   1      34.904  15.067   7.894  0.00  0.00     0.033 A 
HETATM   35  C   UNK N   1      34.296  15.968   7.026  0.00  0.00     0.044 A 
HETATM   36  C   UNK N   1      34.039  17.266   7.451  0.00  0.00     0.116 A 
HETATM   37  C   UNK N   1      34.384  17.655   8.751  0.00  0.00     0.044 A 
HETATM   38  F   UNK N   1      33.461  18.146   6.600  0.00  0.00    -0.206 F 
HETATM   39  C   UNK N   1      34.994  16.744   9.625  0.00  0.00     0.033 A 
ENDBRANCH  27  33
ENDBRANCH   1  23
BRANCH   1  40
HETATM   40  O   UNK N   1      34.165  12.427  13.616  0.00  0.00    -0.345 OA
HETATM   41  H   UNK N   1      33.578  12.507  12.890  0.00  0.00     0.219 HD
ENDBRANCH   1  40
TORSDOF 9
ENDMDL
MODEL 7
REMARK VINA RESULT:      -7.9      2.727      3.080
REMARK  9 active torsions:
REMARK  status: ('A' for Active; 'I' for Inactive)
REMARK    1  A    between atoms: O_37  and  C_2 
REMARK    2  A    between atoms: N_32  and  C_15 
REMARK    3  A    between atoms: N_34  and  C_16 
REMARK    4  A    between atoms: O_38  and  C_18 
REMARK    5  A    between atoms: O_37  and  C_19 
REMARK    6  A    between atoms: O_38  and  C_20 
REMARK    7  A    between atoms: C_24  and  C_21 
REMARK    8  A    between atoms: N_29  and  C_23 
REMARK    9  A    between atoms: O_35  and  C_24 
ROOT
HETATM    1  C   UNK N   1      34.889  12.134  11.165  0.00  0.00     0.159 C 
HETATM    2  N   UNK N   1      35.090  13.219  10.510  0.00  0.00    -0.336 N 
ATOM      3  HN  UNK N   1      35.876  13.773  10.850  1.00  0.00     0.168 HD
ENDROOT
BRANCH   2   4
HETATM    4  C   UNK N   1      34.424  13.782   9.410  0.00  0.00     0.037 A 
HETATM    5  C   UNK N   1      34.956  13.486   8.163  0.00  0.00     0.032 A 
HETATM    6  C   UNK N   1      34.469  14.102   7.030  0.00  0.00     0.043 A 
HETATM    7  C   UNK N   1      33.439  15.042   7.117  0.00  0.00     0.114 A 
HETATM    8  C   UNK N   1      32.876  15.325   8.375  0.00  0.00     0.152 A 
HETATM    9  C   UNK N   1      33.375  14.702   9.527  0.00  0.00     0.074 A 
HETATM   10  F   UNK N   1      31.863  16.218   8.483  0.00  0.00    -0.203 F 
BRANCH   7  11
HETATM   11  O   UNK N   1      32.965  15.675   6.011  0.00  0.00    -0.306 OA
BRANCH  11  12
HETATM   12  C   UNK N   1      31.838  15.380   5.298  0.00  0.00     0.103 A 
HETATM   13  C   UNK N   1      31.096  14.203   5.506  0.00  0.00     0.056 A 
HETATM   14  C   UNK N   1      29.938  13.967   4.770  0.00  0.00     0.092 A 
HETATM   15  N   UNK N   1      29.522  14.876   3.851  0.00  0.00    -0.351 N 
HETATM   16  C   UNK N   1      30.220  16.019   3.613  0.00  0.00     0.123 A 
HETATM   17  H   UNK N   1      28.697  14.703   3.344  0.00  0.00     0.166 HD
HETATM   18  C   UNK N   1      31.398  16.289   4.329  0.00  0.00     0.111 A 
HETATM   19 Cl   UNK N   1      32.317  17.764   4.038  0.00  0.00    -0.077 Cl
BRANCH  16  20
HETATM   20  N   UNK N   1      29.790  16.850   2.741  0.00  0.00    -0.384 N 
HETATM   21  H   UNK N   1      28.846  16.831   2.462  0.00  0.00     0.157 HD
ATOM     22  HN  UNK N   1      30.427  17.534   2.333  1.00  0.00     0.157 HD
ENDBRANCH  16  20
ENDBRANCH  11  12
ENDBRANCH   7  11
ENDBRANCH   2   4
BRANCH   1  23
HETATM   23  C   UNK N   1      35.725  11.910  12.392  0.00  0.00     0.116 A 
HETATM   24  C   UNK N   1      36.548  10.781  12.526  0.00  0.00     0.090 A 
HETATM   25  C   UNK N   1      37.301  10.624  13.699  0.00  0.00     0.055 A 
HETATM   26  C   UNK N   1      37.233  11.579  14.718  0.00  0.00     0.103 A 
HETATM   27  N   UNK N   1      36.433  12.682  14.607  0.00  0.00    -0.289 N 
HETATM   28  C   UNK N   1      35.678  12.855  13.457  0.00  0.00     0.269 A 
HETATM   29  O   UNK N   1      34.956  13.832  13.354  0.00  0.00    -0.266 OA
BRANCH  24  30
HETATM   30  O   UNK N   1      36.610   9.871  11.521  0.00  0.00    -0.350 OA
BRANCH  30  31
HETATM   31  C   UNK N   1      37.762   9.535  10.850  0.00  0.00     0.171 C 
HETATM   32  C   UNK N   1      38.270  10.753  10.105  0.00  0.00     0.034 C 
ENDBRANCH  30  31
ENDBRANCH  24  30
BRANCH  27  33
HETATM   33  C   UNK N   1      36.403  13.664  15.694  0.00  0.00     0.042 A 
HETATM   34  C   UNK N   1      35.540  13.504  16.801  0.00  0.00     0.033 A 
HETATM   35  C   UNK N   1      35.475  14.445  17.823  0.00  0.00     0.044 A 
HETATM   36  C   UNK N   1      36.274  15.580  17.765  0.00  0.00     0.116 A 
HETATM   37  C   UNK N   1      37.146  15.764  16.686  0.00  0.00     0.044 A 
HETATM   38  F   UNK N   1      36.198  16.502  18.754  0.00  0.00    -0.206 F 
HETATM   39  C   UNK N   1      37.213  14.813  15.658  0.00  0.00     0.033 A 
ENDBRANCH  27  33
ENDBRANCH   1  23
BRANCH   1  40
HETATM   40  O   UNK N   1      33.934  11.259  10.784  0.00  0.00    -0.345 OA
HETATM   41  H   UNK N   1      33.134  11.194  11.267  0.00  0.00     0.219 HD
ENDBRANCH   1  40
TORSDOF 9
ENDMDL
MODEL 8
REMARK VINA RESULT:      -7.7      3.911     10.595
REMARK  9 active torsions:
REMARK  status: ('A' for Active; 'I' for Inactive)
REMARK    1  A    between atoms: O_37  and  C_2 
REMARK    2  A    between atoms: N_32  and  C_15 
REMARK    3  A    between atoms: N_34  and  C_16 
REMARK    4  A    between atoms: O_38  and  C_18 
REMARK    5  A    between atoms: O_37  and  C_19 
REMARK    6  A    between atoms: O_38  and  C_20 
REMARK    7  A    between atoms: C_24  and  C_21 
REMARK    8  A    between atoms: N_29  and  C_23 
REMARK    9  A    between atoms: O_35  and  C_24 
ROOT
HETATM    1  C   UNK N   1      32.703  15.293   9.370  0.00  0.00     0.159 C 
HETATM    2  N   UNK N   1      33.975  15.141   9.459  0.00  0.00    -0.336 N 
ATOM      3  HN  UNK N   1      34.490  15.444   8.632  1.00  0.00     0.168 HD
ENDROOT
BRANCH   2   4
HETATM    4  C   UNK N   1      34.784  14.634  10.486  0.00  0.00     0.037 A 
HETATM    5  C   UNK N   1      34.938  13.255  10.512  0.00  0.00     0.032 A 
HETATM    6  C   UNK N   1      35.591  12.643  11.560  0.00  0.00     0.043 A 
HETATM    7  C   UNK N   1      36.101  13.398  12.620  0.00  0.00     0.114 A 
HETATM    8  C   UNK N   1      35.975  14.799  12.585  0.00  0.00     0.152 A 
HETATM    9  C   UNK N   1      35.306  15.419  11.521  0.00  0.00     0.074 A 
HETATM   10  F   UNK N   1      36.479  15.554  13.590  0.00  0.00    -0.203 F 
BRANCH   7  11
HETATM   11  O   UNK N   1      36.727  12.806  13.671  0.00  0.00    -0.306 OA
BRANCH  11  12
HETATM   12  C   UNK N   1      36.177  12.415  14.859  0.00  0.00     0.103 A 
HETATM   13  C   UNK N   1      35.850  13.327  15.880  0.00  0.00     0.056 A 
HETATM   14  C   UNK N   1      35.266  12.876  17.060  0.00  0.00     0.092 A 
HETATM   15  N   UNK N   1      35.008  11.554  17.226  0.00  0.00    -0.351 N 
HETATM   16  C   UNK N   1      35.322  10.641  16.268  0.00  0.00     0.123 A 
HETATM   17  H   UNK N   1      34.585  11.248  18.061  0.00  0.00     0.166 HD
HETATM   18  C   UNK N   1      35.921  11.055  15.067  0.00  0.00     0.111 A 
HETATM   19 Cl   UNK N   1      36.335   9.889  13.811  0.00  0.00    -0.077 Cl
BRANCH  16  20
HETATM   20  N   UNK N   1      35.058   9.405  16.465  0.00  0.00    -0.384 N 
HETATM   21  H   UNK N   1      34.293   9.145  17.029  0.00  0.00     0.157 HD
ATOM     22  HN  UNK N   1      35.640   8.686  16.036  1.00  0.00     0.157 HD
ENDBRANCH  16  20
ENDBRANCH  11  12
ENDBRANCH   7  11
ENDBRANCH   2   4
BRANCH   1  23
HETATM   23  C   UNK N   1      32.158  15.749   8.047  0.00  0.00     0.116 A 
HETATM   24  C   UNK N   1      31.263  16.825   7.951  0.00  0.00     0.090 A 
HETATM   25  C   UNK N   1      30.783  17.200   6.687  0.00  0.00     0.055 A 
HETATM   26  C   UNK N   1      31.192  16.511   5.541  0.00  0.00     0.103 A 
HETATM   27  N   UNK N   1      32.059  15.456   5.616  0.00  0.00    -0.289 N 
HETATM   28  C   UNK N   1      32.542  15.068   6.856  0.00  0.00     0.269 A 
HETATM   29  O   UNK N   1      33.309  14.123   6.932  0.00  0.00    -0.266 OA
BRANCH  24  30
HETATM   30  O   UNK N   1      30.888  17.489   9.073  0.00  0.00    -0.350 OA
BRANCH  30  31
HETATM   31  C   UNK N   1      29.997  18.537   9.092  0.00  0.00     0.171 C 
HETATM   32  C   UNK N   1      28.628  18.012   9.471  0.00  0.00     0.034 C 
ENDBRANCH  30  31
ENDBRANCH  24  30
BRANCH  27  33
HETATM   33  C   UNK N   1      32.470  14.772   4.388  0.00  0.00     0.042 A 
HETATM   34  C   UNK N   1      31.733  13.679   3.877  0.00  0.00     0.033 A 
HETATM   35  C   UNK N   1      32.131  12.997   2.732  0.00  0.00     0.044 A 
HETATM   36  C   UNK N   1      33.284  13.389   2.063  0.00  0.00     0.116 A 
HETATM   37  C   UNK N   1      34.031  14.473   2.539  0.00  0.00     0.044 A 
HETATM   38  F   UNK N   1      33.677  12.714   0.958  0.00  0.00    -0.206 F 
HETATM   39  C   UNK N   1      33.627  15.162   3.691  0.00  0.00     0.033 A 
ENDBRANCH  27  33
ENDBRANCH   1  23
BRANCH   1  40
HETATM   40  O   UNK N   1      31.895  15.010  10.414  0.00  0.00    -0.345 OA
HETATM   41  H   UNK N   1      32.248  14.950  11.281  0.00  0.00     0.219 HD
ENDBRANCH   1  40
TORSDOF 9
ENDMDL
MODEL 9
REMARK VINA RESULT:      -7.7      6.087     10.389
REMARK  9 active torsions:
REMARK  status: ('A' for Active; 'I' for Inactive)
REMARK    1  A    between atoms: O_37  and  C_2 
REMARK    2  A    between atoms: N_32  and  C_15 
REMARK    3  A    between atoms: N_34  and  C_16 
REMARK    4  A    between atoms: O_38  and  C_18 
REMARK    5  A    between atoms: O_37  and  C_19 
REMARK    6  A    between atoms: O_38  and  C_20 
REMARK    7  A    between atoms: C_24  and  C_21 
REMARK    8  A    between atoms: N_29  and  C_23 
REMARK    9  A    between atoms: O_35  and  C_24 
ROOT
HETATM    1  C   UNK N   1      27.955  16.624   5.754  0.00  0.00     0.159 C 
HETATM    2  N   UNK N   1      26.948  15.854   5.554  0.00  0.00    -0.336 N 
ATOM      3  HN  UNK N   1      27.188  14.866   5.471  1.00  0.00     0.168 HD
ENDROOT
BRANCH   2   4
HETATM    4  C   UNK N   1      25.577  16.124   5.429  0.00  0.00     0.037 A 
HETATM    5  C   UNK N   1      25.238  17.139   4.545  0.00  0.00     0.032 A 
HETATM    6  C   UNK N   1      23.936  17.583   4.455  0.00  0.00     0.043 A 
HETATM    7  C   UNK N   1      22.937  17.028   5.259  0.00  0.00     0.114 A 
HETATM    8  C   UNK N   1      23.268  15.979   6.136  0.00  0.00     0.152 A 
HETATM    9  C   UNK N   1      24.594  15.532   6.230  0.00  0.00     0.074 A 
HETATM   10  F   UNK N   1      22.314  15.410   6.911  0.00  0.00    -0.203 F 
BRANCH   7  11
HETATM   11  O   UNK N   1      21.653  17.472   5.198  0.00  0.00    -0.306 OA
BRANCH  11  12
HETATM   12  C   UNK N   1      21.037  18.106   4.157  0.00  0.00     0.103 A 
HETATM   13  C   UNK N   1      20.976  19.508   4.053  0.00  0.00     0.056 A 
HETATM   14  C   UNK N   1      20.359  20.102   2.956  0.00  0.00     0.092 A 
HETATM   15  N   UNK N   1      19.817  19.327   1.982  0.00  0.00    -0.351 N 
HETATM   16  C   UNK N   1      19.845  17.969   2.054  0.00  0.00     0.123 A 
HETATM   17  H   UNK N   1      19.392  19.758   1.205  0.00  0.00     0.166 HD
HETATM   18  C   UNK N   1      20.450  17.333   3.150  0.00  0.00     0.111 A 
HETATM   19 Cl   UNK N   1      20.499  15.575   3.263  0.00  0.00    -0.077 Cl
BRANCH  16  20
HETATM   20  N   UNK N   1      19.325  17.278   1.112  0.00  0.00    -0.384 N 
HETATM   21  H   UNK N   1      19.053  17.711   0.270  0.00  0.00     0.157 HD
ATOM     22  HN  UNK N   1      19.192  16.274   1.232  1.00  0.00     0.157 HD
ENDBRANCH  16  20
ENDBRANCH  11  12
ENDBRANCH   7  11
ENDBRANCH   2   4
BRANCH   1  23
HETATM   23  C   UNK N   1      29.319  15.997   5.697  0.00  0.00     0.116 A 
HETATM   24  C   UNK N   1      29.647  15.036   4.729  0.00  0.00     0.090 A 
HETATM   25  C   UNK N   1      30.935  14.481   4.730  0.00  0.00     0.055 A 
HETATM   26  C   UNK N   1      31.879  14.882   5.682  0.00  0.00     0.103 A 
HETATM   27  N   UNK N   1      31.575  15.813   6.636  0.00  0.00    -0.289 N 
HETATM   28  C   UNK N   1      30.305  16.371   6.654  0.00  0.00     0.269 A 
HETATM   29  O   UNK N   1      30.024  17.196   7.507  0.00  0.00    -0.266 OA
BRANCH  24  30
HETATM   30  O   UNK N   1      28.722  14.668   3.806  0.00  0.00    -0.350 OA
BRANCH  30  31
HETATM   31  C   UNK N   1      28.736  15.073   2.492  0.00  0.00     0.171 C 
HETATM   32  C   UNK N   1      27.308  15.189   1.998  0.00  0.00     0.034 C 
ENDBRANCH  30  31
ENDBRANCH  24  30
BRANCH  27  33
HETATM   33  C   UNK N   1      32.598  16.212   7.605  0.00  0.00     0.042 A 
HETATM   34  C   UNK N   1      33.330  17.410   7.446  0.00  0.00     0.033 A 
HETATM   35  C   UNK N   1      34.329  17.785   8.338  0.00  0.00     0.044 A 
HETATM   36  C   UNK N   1      34.626  16.966   9.421  0.00  0.00     0.116 A 
HETATM   37  C   UNK N   1      33.913  15.777   9.612  0.00  0.00     0.044 A 
HETATM   38  F   UNK N   1      35.608  17.326  10.280  0.00  0.00    -0.206 F 
HETATM   39  C   UNK N   1      32.905  15.402   8.713  0.00  0.00     0.033 A 
ENDBRANCH  27  33
ENDBRANCH   1  23
BRANCH   1  40
HETATM   40  O   UNK N   1      27.787  17.947   5.964  0.00  0.00    -0.345 OA
HETATM   41  H   UNK N   1      27.354  18.475   5.322  0.00  0.00     0.219 HD
ENDBRANCH   1  40
TORSDOF 9
ENDMDL
