MODEL 1
REMARK VINA RESULT:      -7.0      0.000      0.000
REMARK  5 active torsions:
REMARK  status: ('A' for Active; 'I' for Inactive)
REMARK    1  A    between atoms: C_12  and  C_9 
REMARK    2  A    between atoms: C_15  and  N_22 
REMARK    3  A    between atoms: C_17  and  N_24 
REMARK    4  A    between atoms: O_26  and  C_18 
REMARK    5  A    between atoms: O_27  and  C_19 
ROOT
HETATM    1  C   UNK N   1      34.968  12.204   9.203  0.00  0.00     0.069 C 
HETATM    2  C   UNK N   1      34.644  11.755  10.628  0.00  0.00     0.278 C 
HETATM    3  C   UNK N   1      34.935  14.288   7.819  0.00  0.00     0.047 A 
HETATM    4  C   UNK N   1      34.936  15.908  10.086  0.00  0.00     0.049 A 
HETATM    5  C   UNK N   1      36.084  14.661  12.477  0.00  0.00     0.067 C 
HETATM    6  C   UNK N   1      35.306  11.924  12.896  0.00  0.00     0.300 C 
HETATM    7  C   UNK N   1      34.980  13.703   9.086  0.00  0.00    -0.045 A 
HETATM    8  C   UNK N   1      34.999  14.521  10.231  0.00  0.00    -0.016 A 
HETATM    9  C   UNK N   1      36.038  14.118  13.904  0.00  0.00     0.101 C 
HETATM   10  C   UNK N   1      35.059  13.921  11.612  0.00  0.00     0.258 C 
HETATM   11  C   UNK N   1      36.270  12.582  13.901  0.00  0.00     0.137 C 
HETATM   12  C   UNK N   1      34.905  15.679   7.663  0.00  0.00     0.102 A 
HETATM   13  C   UNK N   1      34.900  16.507   8.819  0.00  0.00     0.102 A 
HETATM   14  N   UNK N   1      35.466  12.505  11.567  0.00  0.00     0.100 N 
ENDROOT
BRANCH  11  15
HETATM   15  N   UNK N   1      36.103  11.901  15.187  0.00  0.00    -0.343 N 
HETATM   16  C   UNK N   1      35.144  12.393  16.135  0.00  0.00     0.134 C 
HETATM   17  C   UNK N   1      35.183  11.388  17.292  0.00  0.00     0.041 C 
HETATM   18  C   UNK N   1      36.394  10.476  17.054  0.00  0.00     0.111 C 
HETATM   19  C   UNK N   1      36.783  10.846  15.680  0.00  0.00     0.220 C 
HETATM   20  O   UNK N   1      37.668  10.259  15.075  0.00  0.00    -0.273 OA
BRANCH  17  21
HETATM   21  C   UNK N   1      35.279  12.097  18.632  0.00  0.00     0.228 C 
HETATM   22  F   UNK N   1      34.905  13.423  18.497  0.00  0.00    -0.255 F 
ENDBRANCH  17  21
ENDBRANCH  11  15
BRANCH   9  23
HETATM   23  N   UNK N   1      37.063  14.792  14.685  0.00  0.00    -0.424 N 
HETATM   24  H   UNK N   1      38.038  14.624  14.935  0.00  0.00     0.150 HD
HETATM   25  H   UNK N   1      36.715  15.661  15.090  0.00  0.00     0.150 HD
ENDBRANCH   9  23
BRANCH  13  26
HETATM   26  O   UNK N   1      34.868  17.858   8.707  0.00  0.00    -0.353 OA
HETATM   27  C   UNK N   1      33.805  18.549   8.168  0.00  0.00     0.210 C 
ENDBRANCH  13  26
BRANCH  12  28
HETATM   28  O   UNK N   1      34.884  16.167   6.395  0.00  0.00    -0.353 OA
HETATM   29  C   UNK N   1      34.395  15.503   5.292  0.00  0.00     0.210 C 
ENDBRANCH  12  28
TORSDOF 5
ENDMDL
MODEL 2
REMARK VINA RESULT:      -7.0      4.184      8.907
REMARK  5 active torsions:
REMARK  status: ('A' for Active; 'I' for Inactive)
REMARK    1  A    between atoms: C_12  and  C_9 
REMARK    2  A    between atoms: C_15  and  N_22 
REMARK    3  A    between atoms: C_17  and  N_24 
REMARK    4  A    between atoms: O_26  and  C_18 
REMARK    5  A    between atoms: O_27  and  C_19 
ROOT
HETATM    1  C   UNK N   1      37.305  12.298   9.433  0.00  0.00     0.069 C 
HETATM    2  C   UNK N   1      36.958  13.395   8.427  0.00  0.00     0.278 C 
HETATM    3  C   UNK N   1      37.505  11.988  11.907  0.00  0.00     0.047 A 
HETATM    4  C   UNK N   1      35.934  14.233  12.412  0.00  0.00     0.049 A 
HETATM    5  C   UNK N   1      34.090  14.944  10.247  0.00  0.00     0.067 C 
HETATM    6  C   UNK N   1      35.214  14.772   7.606  0.00  0.00     0.300 C 
HETATM    7  C   UNK N   1      36.971  12.712  10.839  0.00  0.00    -0.045 A 
HETATM    8  C   UNK N   1      36.163  13.835  11.094  0.00  0.00    -0.016 A 
HETATM    9  C   UNK N   1      33.538  15.853   9.151  0.00  0.00     0.101 C 
HETATM   10  C   UNK N   1      35.562  14.630   9.963  0.00  0.00     0.258 C 
HETATM   11  C   UNK N   1      33.741  15.198   7.758  0.00  0.00     0.137 C 
HETATM   12  C   UNK N   1      37.255  12.360  13.233  0.00  0.00     0.102 A 
HETATM   13  C   UNK N   1      36.458  13.509  13.492  0.00  0.00     0.102 A 
HETATM   14  N   UNK N   1      35.613  13.884   8.693  0.00  0.00     0.100 N 
ENDROOT
BRANCH  11  15
HETATM   15  N   UNK N   1      33.397  16.023   6.599  0.00  0.00    -0.343 N 
HETATM   16  C   UNK N   1      32.565  15.483   5.561  0.00  0.00     0.134 C 
HETATM   17  C   UNK N   1      32.347  16.645   4.586  0.00  0.00     0.041 C 
HETATM   18  C   UNK N   1      33.313  17.765   4.998  0.00  0.00     0.111 C 
HETATM   19  C   UNK N   1      33.801  17.275   6.301  0.00  0.00     0.220 C 
HETATM   20  O   UNK N   1      34.533  17.945   7.014  0.00  0.00    -0.273 OA
BRANCH  17  21
HETATM   21  C   UNK N   1      32.585  16.210   3.150  0.00  0.00     0.228 C 
HETATM   22  F   UNK N   1      32.084  17.159   2.276  0.00  0.00    -0.255 F 
ENDBRANCH  17  21
ENDBRANCH  11  15
BRANCH   9  23
HETATM   23  N   UNK N   1      32.126  16.082   9.412  0.00  0.00    -0.424 N 
HETATM   24  H   UNK N   1      31.367  15.586   9.880  0.00  0.00     0.150 HD
HETATM   25  H   UNK N   1      31.812  16.972   9.026  0.00  0.00     0.150 HD
ENDBRANCH   9  23
BRANCH  13  26
HETATM   26  O   UNK N   1      36.196  13.902  14.763  0.00  0.00    -0.353 OA
HETATM   27  C   UNK N   1      37.042  14.703  15.498  0.00  0.00     0.210 C 
ENDBRANCH  13  26
BRANCH  12  28
HETATM   28  O   UNK N   1      37.795  11.589  14.213  0.00  0.00    -0.353 OA
HETATM   29  C   UNK N   1      37.205  10.478  14.771  0.00  0.00     0.210 C 
ENDBRANCH  12  28
TORSDOF 5
ENDMDL
MODEL 3
REMARK VINA RESULT:      -7.0     10.185     13.226
REMARK  5 active torsions:
REMARK  status: ('A' for Active; 'I' for Inactive)
REMARK    1  A    between atoms: C_12  and  C_9 
REMARK    2  A    between atoms: C_15  and  N_22 
REMARK    3  A    between atoms: C_17  and  N_24 
REMARK    4  A    between atoms: O_26  and  C_18 
REMARK    5  A    between atoms: O_27  and  C_19 
ROOT
HETATM    1  C   UNK N   1      24.072  15.097   4.285  0.00  0.00     0.069 C 
HETATM    2  C   UNK N   1      25.306  15.226   5.177  0.00  0.00     0.278 C 
HETATM    3  C   UNK N   1      22.101  16.459   3.567  0.00  0.00     0.047 A 
HETATM    4  C   UNK N   1      23.364  18.839   4.278  0.00  0.00     0.049 A 
HETATM    5  C   UNK N   1      26.293  18.712   4.276  0.00  0.00     0.067 C 
HETATM    6  C   UNK N   1      27.393  16.319   5.430  0.00  0.00     0.300 C 
HETATM    7  C   UNK N   1      23.401  16.426   4.075  0.00  0.00    -0.045 A 
HETATM    8  C   UNK N   1      24.046  17.628   4.417  0.00  0.00    -0.016 A 
HETATM    9  C   UNK N   1      27.674  18.775   4.925  0.00  0.00     0.101 C 
HETATM   10  C   UNK N   1      25.453  17.627   4.957  0.00  0.00     0.258 C 
HETATM   11  C   UNK N   1      28.357  17.381   4.868  0.00  0.00     0.137 C 
HETATM   12  C   UNK N   1      21.420  17.671   3.393  0.00  0.00     0.102 A 
HETATM   13  C   UNK N   1      22.062  18.885   3.761  0.00  0.00     0.102 A 
HETATM   14  N   UNK N   1      26.124  16.338   4.711  0.00  0.00     0.100 N 
ENDROOT
BRANCH  11  15
HETATM   15  N   UNK N   1      29.626  17.253   5.587  0.00  0.00    -0.343 N 
HETATM   16  C   UNK N   1      29.631  17.214   7.022  0.00  0.00     0.134 C 
HETATM   17  C   UNK N   1      31.096  16.980   7.405  0.00  0.00     0.041 C 
HETATM   18  C   UNK N   1      31.929  17.159   6.128  0.00  0.00     0.111 C 
HETATM   19  C   UNK N   1      30.879  17.213   5.092  0.00  0.00     0.220 C 
HETATM   20  O   UNK N   1      31.145  17.253   3.900  0.00  0.00    -0.273 OA
BRANCH  17  21
HETATM   21  C   UNK N   1      31.541  17.942   8.494  0.00  0.00     0.228 C 
HETATM   22  F   UNK N   1      32.780  18.474   8.183  0.00  0.00    -0.255 F 
ENDBRANCH  17  21
ENDBRANCH  11  15
BRANCH   9  23
HETATM   23  N   UNK N   1      28.469  19.767   4.220  0.00  0.00    -0.424 N 
HETATM   24  H   UNK N   1      29.343  19.782   3.693  0.00  0.00     0.150 HD
HETATM   25  H   UNK N   1      28.040  20.691   4.262  0.00  0.00     0.150 HD
ENDBRANCH   9  23
BRANCH  13  26
HETATM   26  O   UNK N   1      21.434  20.077   3.609  0.00  0.00    -0.353 OA
HETATM   27  C   UNK N   1      21.348  20.740   2.405  0.00  0.00     0.210 C 
ENDBRANCH  13  26
BRANCH  12  28
HETATM   28  O   UNK N   1      20.166  17.615   2.873  0.00  0.00    -0.353 OA
HETATM   29  C   UNK N   1      19.859  17.351   1.557  0.00  0.00     0.210 C 
ENDBRANCH  12  28
TORSDOF 5
ENDMDL
MODEL 4
REMARK VINA RESULT:      -6.9      7.045     11.194
REMARK  5 active torsions:
REMARK  status: ('A' for Active; 'I' for Inactive)
REMARK    1  A    between atoms: C_12  and  C_9 
REMARK    2  A    between atoms: C_15  and  N_22 
REMARK    3  A    between atoms: C_17  and  N_24 
REMARK    4  A    between atoms: O_26  and  C_18 
REMARK    5  A    between atoms: O_27  and  C_19 
ROOT
HETATM    1  C   UNK N   1      31.799  14.951   5.277  0.00  0.00     0.069 C 
HETATM    2  C   UNK N   1      30.973  16.159   4.834  0.00  0.00     0.278 C 
HETATM    3  C   UNK N   1      33.423  14.321   7.071  0.00  0.00     0.047 A 
HETATM    4  C   UNK N   1      32.579  16.413   8.705  0.00  0.00     0.049 A 
HETATM    5  C   UNK N   1      29.843  17.334   8.193  0.00  0.00     0.067 C 
HETATM    6  C   UNK N   1      29.154  17.563   5.410  0.00  0.00     0.300 C 
HETATM    7  C   UNK N   1      32.393  15.159   6.642  0.00  0.00    -0.045 A 
HETATM    8  C   UNK N   1      31.954  16.205   7.475  0.00  0.00    -0.016 A 
HETATM    9  C   UNK N   1      28.791  18.359   7.776  0.00  0.00     0.101 C 
HETATM   10  C   UNK N   1      30.836  17.120   7.045  0.00  0.00     0.258 C 
HETATM   11  C   UNK N   1      28.088  17.906   6.468  0.00  0.00     0.137 C 
HETATM   12  C   UNK N   1      34.035  14.502   8.318  0.00  0.00     0.102 A 
HETATM   13  C   UNK N   1      33.608  15.573   9.150  0.00  0.00     0.102 A 
HETATM   14  N   UNK N   1      30.080  16.554   5.914  0.00  0.00     0.100 N 
ENDROOT
BRANCH  11  15
HETATM   15  N   UNK N   1      27.159  18.865   5.867  0.00  0.00    -0.343 N 
HETATM   16  C   UNK N   1      26.139  18.402   4.970  0.00  0.00     0.134 C 
HETATM   17  C   UNK N   1      25.319  19.651   4.628  0.00  0.00     0.041 C 
HETATM   18  C   UNK N   1      26.097  20.861   5.165  0.00  0.00     0.111 C 
HETATM   19  C   UNK N   1      27.136  20.208   5.985  0.00  0.00     0.220 C 
HETATM   20  O   UNK N   1      27.916  20.848   6.674  0.00  0.00    -0.273 OA
BRANCH  17  21
HETATM   21  C   UNK N   1      25.087  19.764   3.131  0.00  0.00     0.228 C 
HETATM   22  F   UNK N   1      26.006  20.633   2.570  0.00  0.00    -0.255 F 
ENDBRANCH  17  21
ENDBRANCH  11  15
BRANCH   9  23
HETATM   23  N   UNK N   1      27.829  18.495   8.858  0.00  0.00    -0.424 N 
HETATM   24  H   UNK N   1      27.323  17.869   9.485  0.00  0.00     0.150 HD
HETATM   25  H   UNK N   1      27.599  19.472   9.036  0.00  0.00     0.150 HD
ENDBRANCH   9  23
BRANCH  13  26
HETATM   26  O   UNK N   1      34.179  15.780  10.363  0.00  0.00    -0.353 OA
HETATM   27  C   UNK N   1      35.269  16.600  10.557  0.00  0.00     0.210 C 
ENDBRANCH  13  26
BRANCH  12  28
HETATM   28  O   UNK N   1      35.015  13.628   8.667  0.00  0.00    -0.353 OA
HETATM   29  C   UNK N   1      36.334  13.713   8.284  0.00  0.00     0.210 C 
ENDBRANCH  12  28
TORSDOF 5
ENDMDL
MODEL 5
REMARK VINA RESULT:      -6.8     12.498     14.583
REMARK  5 active torsions:
REMARK  status: ('A' for Active; 'I' for Inactive)
REMARK    1  A    between atoms: C_12  and  C_9 
REMARK    2  A    between atoms: C_15  and  N_22 
REMARK    3  A    between atoms: C_17  and  N_24 
REMARK    4  A    between atoms: O_26  and  C_18 
REMARK    5  A    between atoms: O_27  and  C_19 
ROOT
HETATM    1  C   UNK N   1      19.960  16.926   4.161  0.00  0.00     0.069 C 
HETATM    2  C   UNK N   1      20.225  16.093   5.414  0.00  0.00     0.278 C 
HETATM    3  C   UNK N   1      20.855  18.961   3.014  0.00  0.00     0.047 A 
HETATM    4  C   UNK N   1      23.278  18.783   4.378  0.00  0.00     0.049 A 
HETATM    5  C   UNK N   1      23.957  16.089   5.312  0.00  0.00     0.067 C 
HETATM    6  C   UNK N   1      21.764  14.626   6.461  0.00  0.00     0.300 C 
HETATM    7  C   UNK N   1      21.068  17.910   3.908  0.00  0.00    -0.045 A 
HETATM    8  C   UNK N   1      22.298  17.810   4.583  0.00  0.00    -0.016 A 
HETATM    9  C   UNK N   1      24.252  15.034   6.376  0.00  0.00     0.101 C 
HETATM   10  C   UNK N   1      22.564  16.681   5.547  0.00  0.00     0.258 C 
HETATM   11  C   UNK N   1      23.143  13.946   6.375  0.00  0.00     0.137 C 
HETATM   12  C   UNK N   1      21.843  19.924   2.776  0.00  0.00     0.102 A 
HETATM   13  C   UNK N   1      23.078  19.837   3.477  0.00  0.00     0.102 A 
HETATM   14  N   UNK N   1      21.591  15.587   5.377  0.00  0.00     0.100 N 
ENDROOT
BRANCH  11  15
HETATM   15  N   UNK N   1      23.214  12.950   7.446  0.00  0.00    -0.343 N 
HETATM   16  C   UNK N   1      23.044  13.359   8.811  0.00  0.00     0.134 C 
HETATM   17  C   UNK N   1      23.083  12.057   9.620  0.00  0.00     0.041 C 
HETATM   18  C   UNK N   1      23.548  10.948   8.665  0.00  0.00     0.111 C 
HETATM   19  C   UNK N   1      23.480  11.631   7.359  0.00  0.00     0.220 C 
HETATM   20  O   UNK N   1      23.685  11.043   6.307  0.00  0.00    -0.273 OA
BRANCH  17  21
HETATM   21  C   UNK N   1      24.011  12.181  10.816  0.00  0.00     0.228 C 
HETATM   22  F   UNK N   1      25.238  12.681  10.418  0.00  0.00    -0.255 F 
ENDBRANCH  17  21
ENDBRANCH  11  15
BRANCH   9  23
HETATM   23  N   UNK N   1      25.551  14.446   6.092  0.00  0.00    -0.424 N 
HETATM   24  H   UNK N   1      25.908  13.531   5.815  0.00  0.00     0.150 HD
HETATM   25  H   UNK N   1      26.303  15.126   6.198  0.00  0.00     0.150 HD
ENDBRANCH   9  23
BRANCH  13  26
HETATM   26  O   UNK N   1      24.057  20.753   3.275  0.00  0.00    -0.353 OA
HETATM   27  C   UNK N   1      25.257  20.458   2.666  0.00  0.00     0.210 C 
ENDBRANCH  13  26
BRANCH  12  28
HETATM   28  O   UNK N   1      21.562  20.901   1.875  0.00  0.00    -0.353 OA
HETATM   29  C   UNK N   1      20.720  20.771   0.794  0.00  0.00     0.210 C 
ENDBRANCH  12  28
TORSDOF 5
ENDMDL
MODEL 6
REMARK VINA RESULT:      -6.7     10.002     13.256
REMARK  5 active torsions:
REMARK  status: ('A' for Active; 'I' for Inactive)
REMARK    1  A    between atoms: C_12  and  C_9 
REMARK    2  A    between atoms: C_15  and  N_22 
REMARK    3  A    between atoms: C_17  and  N_24 
REMARK    4  A    between atoms: O_26  and  C_18 
REMARK    5  A    between atoms: O_27  and  C_19 
ROOT
HETATM    1  C   UNK N   1      25.810  20.852   3.226  0.00  0.00     0.069 C 
HETATM    2  C   UNK N   1      27.071  20.006   3.399  0.00  0.00     0.278 C 
HETATM    3  C   UNK N   1      23.343  20.544   2.950  0.00  0.00     0.047 A 
HETATM    4  C   UNK N   1      23.451  17.964   3.998  0.00  0.00     0.049 A 
HETATM    5  C   UNK N   1      25.724  17.465   5.781  0.00  0.00     0.067 C 
HETATM    6  C   UNK N   1      28.226  18.552   4.871  0.00  0.00     0.300 C 
HETATM    7  C   UNK N   1      24.564  20.026   3.386  0.00  0.00    -0.045 A 
HETATM    8  C   UNK N   1      24.616  18.730   3.932  0.00  0.00    -0.016 A 
HETATM    9  C   UNK N   1      27.021  16.777   6.198  0.00  0.00     0.101 C 
HETATM   10  C   UNK N   1      25.917  18.147   4.423  0.00  0.00     0.258 C 
HETATM   11  C   UNK N   1      28.190  17.799   6.214  0.00  0.00     0.137 C 
HETATM   12  C   UNK N   1      22.163  19.795   3.042  0.00  0.00     0.102 A 
HETATM   13  C   UNK N   1      22.218  18.477   3.571  0.00  0.00     0.102 A 
HETATM   14  N   UNK N   1      26.943  19.190   4.599  0.00  0.00     0.100 N 
ENDROOT
BRANCH  11  15
HETATM   15  N   UNK N   1      29.527  17.249   6.450  0.00  0.00    -0.343 N 
HETATM   16  C   UNK N   1      30.327  16.820   5.338  0.00  0.00     0.134 C 
HETATM   17  C   UNK N   1      31.668  16.406   5.954  0.00  0.00     0.041 C 
HETATM   18  C   UNK N   1      31.473  16.375   7.477  0.00  0.00     0.111 C 
HETATM   19  C   UNK N   1      30.152  17.017   7.622  0.00  0.00     0.220 C 
HETATM   20  O   UNK N   1      29.672  17.274   8.716  0.00  0.00    -0.273 OA
BRANCH  17  21
HETATM   21  C   UNK N   1      32.120  15.054   5.427  0.00  0.00     0.228 C 
HETATM   22  F   UNK N   1      31.209  14.075   5.782  0.00  0.00    -0.255 F 
ENDBRANCH  17  21
ENDBRANCH  11  15
BRANCH   9  23
HETATM   23  N   UNK N   1      26.829  16.193   7.516  0.00  0.00    -0.424 N 
HETATM   24  H   UNK N   1      26.822  15.256   7.920  0.00  0.00     0.150 HD
HETATM   25  H   UNK N   1      26.654  16.908   8.222  0.00  0.00     0.150 HD
ENDBRANCH   9  23
BRANCH  13  26
HETATM   26  O   UNK N   1      21.097  17.721   3.673  0.00  0.00    -0.353 OA
HETATM   27  C   UNK N   1      20.692  16.831   2.703  0.00  0.00     0.210 C 
ENDBRANCH  13  26
BRANCH  12  28
HETATM   28  O   UNK N   1      21.015  20.382   2.615  0.00  0.00    -0.353 OA
HETATM   29  C   UNK N   1      20.702  20.665   1.304  0.00  0.00     0.210 C 
ENDBRANCH  12  28
TORSDOF 5
ENDMDL
MODEL 7
REMARK VINA RESULT:      -6.6      3.792      5.531
REMARK  5 active torsions:
REMARK  status: ('A' for Active; 'I' for Inactive)
REMARK    1  A    between atoms: C_12  and  C_9 
REMARK    2  A    between atoms: C_15  and  N_22 
REMARK    3  A    between atoms: C_17  and  N_24 
REMARK    4  A    between atoms: O_26  and  C_18 
REMARK    5  A    between atoms: O_27  and  C_19 
ROOT
HETATM    1  C   UNK N   1      32.295  14.592   5.389  0.00  0.00     0.069 C 
HETATM    2  C   UNK N   1      32.997  13.778   6.476  0.00  0.00     0.278 C 
HETATM    3  C   UNK N   1      30.485  16.305   5.175  0.00  0.00     0.047 A 
HETATM    4  C   UNK N   1      30.697  17.005   7.863  0.00  0.00     0.049 A 
HETATM    5  C   UNK N   1      33.311  16.448   9.067  0.00  0.00     0.067 C 
HETATM    6  C   UNK N   1      34.451  13.909   8.342  0.00  0.00     0.300 C 
HETATM    7  C   UNK N   1      31.439  15.678   5.979  0.00  0.00    -0.045 A 
HETATM    8  C   UNK N   1      31.559  16.044   7.332  0.00  0.00    -0.016 A 
HETATM    9  C   UNK N   1      34.256  15.758  10.048  0.00  0.00     0.101 C 
HETATM   10  C   UNK N   1      32.586  15.395   8.223  0.00  0.00     0.258 C 
HETATM   11  C   UNK N   1      35.245  14.836   9.282  0.00  0.00     0.137 C 
HETATM   12  C   UNK N   1      29.638  17.293   5.691  0.00  0.00     0.102 A 
HETATM   13  C   UNK N   1      29.741  17.647   7.064  0.00  0.00     0.102 A 
HETATM   14  N   UNK N   1      33.611  14.686   7.436  0.00  0.00     0.100 N 
ENDROOT
BRANCH  11  15
HETATM   15  N   UNK N   1      36.113  13.993  10.106  0.00  0.00    -0.343 N 
HETATM   16  C   UNK N   1      35.560  13.272  11.218  0.00  0.00     0.134 C 
HETATM   17  C   UNK N   1      36.725  12.442  11.768  0.00  0.00     0.041 C 
HETATM   18  C   UNK N   1      38.001  12.944  11.076  0.00  0.00     0.111 C 
HETATM   19  C   UNK N   1      37.446  13.810  10.018  0.00  0.00     0.220 C 
HETATM   20  O   UNK N   1      38.153  14.332   9.169  0.00  0.00    -0.273 OA
BRANCH  17  21
HETATM   21  C   UNK N   1      36.827  12.573  13.278  0.00  0.00     0.228 C 
HETATM   22  F   UNK N   1      36.798  13.907  13.644  0.00  0.00    -0.255 F 
ENDBRANCH  17  21
ENDBRANCH  11  15
BRANCH   9  23
HETATM   23  N   UNK N   1      34.975  16.781  10.790  0.00  0.00    -0.424 N 
HETATM   24  H   UNK N   1      35.632  16.809  11.571  0.00  0.00     0.150 HD
HETATM   25  H   UNK N   1      34.768  17.715  10.439  0.00  0.00     0.150 HD
ENDBRANCH   9  23
BRANCH  13  26
HETATM   26  O   UNK N   1      28.936  18.598   7.599  0.00  0.00    -0.353 OA
HETATM   27  C   UNK N   1      28.286  18.449   8.805  0.00  0.00     0.210 C 
ENDBRANCH  13  26
BRANCH  12  28
HETATM   28  O   UNK N   1      28.752  17.868   4.835  0.00  0.00    -0.353 OA
HETATM   29  C   UNK N   1      28.085  17.218   3.821  0.00  0.00     0.210 C 
ENDBRANCH  12  28
TORSDOF 5
ENDMDL
MODEL 8
REMARK VINA RESULT:      -6.6      3.301      9.443
REMARK  5 active torsions:
REMARK  status: ('A' for Active; 'I' for Inactive)
REMARK    1  A    between atoms: C_12  and  C_9 
REMARK    2  A    between atoms: C_15  and  N_22 
REMARK    3  A    between atoms: C_17  and  N_24 
REMARK    4  A    between atoms: O_26  and  C_18 
REMARK    5  A    between atoms: O_27  and  C_19 
ROOT
HETATM    1  C   UNK N   1      35.312  13.442  18.380  0.00  0.00     0.069 C 
HETATM    2  C   UNK N   1      34.972  13.788  16.931  0.00  0.00     0.278 C 
HETATM    3  C   UNK N   1      35.282  11.468  19.915  0.00  0.00     0.047 A 
HETATM    4  C   UNK N   1      35.236   9.683  17.776  0.00  0.00     0.049 A 
HETATM    5  C   UNK N   1      36.360  10.738  15.282  0.00  0.00     0.067 C 
HETATM    6  C   UNK N   1      35.600  13.444  14.672  0.00  0.00     0.300 C 
HETATM    7  C   UNK N   1      35.313  11.956  18.608  0.00  0.00    -0.045 A 
HETATM    8  C   UNK N   1      35.309  11.055  17.527  0.00  0.00    -0.016 A 
HETATM    9  C   UNK N   1      36.298  11.174  13.820  0.00  0.00     0.101 C 
HETATM   10  C   UNK N   1      35.354  11.551  16.105  0.00  0.00     0.258 C 
HETATM   11  C   UNK N   1      36.543  12.703  13.705  0.00  0.00     0.137 C 
HETATM   12  C   UNK N   1      35.242  10.092  20.175  0.00  0.00     0.102 A 
HETATM   13  C   UNK N   1      35.212   9.181  19.084  0.00  0.00     0.102 A 
HETATM   14  N   UNK N   1      35.774  12.961  16.038  0.00  0.00     0.100 N 
ENDROOT
BRANCH  11  15
HETATM   15  N   UNK N   1      36.364  13.289  12.375  0.00  0.00    -0.343 N 
HETATM   16  C   UNK N   1      35.145  13.978  12.059  0.00  0.00     0.134 C 
HETATM   17  C   UNK N   1      35.358  14.526  10.644  0.00  0.00     0.041 C 
HETATM   18  C   UNK N   1      36.640  13.880  10.100  0.00  0.00     0.111 C 
HETATM   19  C   UNK N   1      37.189  13.240  11.311  0.00  0.00     0.220 C 
HETATM   20  O   UNK N   1      38.281  12.691  11.316  0.00  0.00    -0.273 OA
BRANCH  17  21
HETATM   21  C   UNK N   1      34.166  14.225   9.752  0.00  0.00     0.228 C 
HETATM   22  F   UNK N   1      33.348  15.338   9.657  0.00  0.00    -0.255 F 
ENDBRANCH  17  21
ENDBRANCH  11  15
BRANCH   9  23
HETATM   23  N   UNK N   1      37.305  10.433  13.077  0.00  0.00    -0.424 N 
HETATM   24  H   UNK N   1      37.966   9.680  13.270  0.00  0.00     0.150 HD
HETATM   25  H   UNK N   1      37.366  10.750  12.110  0.00  0.00     0.150 HD
ENDBRANCH   9  23
BRANCH  13  26
HETATM   26  O   UNK N   1      35.170   7.842  19.297  0.00  0.00    -0.353 OA
HETATM   27  C   UNK N   1      34.044   7.077  19.089  0.00  0.00     0.210 C 
ENDBRANCH  13  26
BRANCH  12  28
HETATM   28  O   UNK N   1      35.234   9.700  21.476  0.00  0.00    -0.353 OA
HETATM   29  C   UNK N   1      34.109   9.468  22.234  0.00  0.00     0.210 C 
ENDBRANCH  12  28
TORSDOF 5
ENDMDL
MODEL 9
REMARK VINA RESULT:      -6.6      7.603     11.923
REMARK  5 active torsions:
REMARK  status: ('A' for Active; 'I' for Inactive)
REMARK    1  A    between atoms: C_12  and  C_9 
REMARK    2  A    between atoms: C_15  and  N_22 
REMARK    3  A    between atoms: C_17  and  N_24 
REMARK    4  A    between atoms: O_26  and  C_18 
REMARK    5  A    between atoms: O_27  and  C_19 
ROOT
HETATM    1  C   UNK N   1      30.744  18.474   9.062  0.00  0.00     0.069 C 
HETATM    2  C   UNK N   1      29.315  18.282   8.556  0.00  0.00     0.278 C 
HETATM    3  C   UNK N   1      32.951  17.299   9.000  0.00  0.00     0.047 A 
HETATM    4  C   UNK N   1      32.188  15.778   6.793  0.00  0.00     0.049 A 
HETATM    5  C   UNK N   1      30.095  16.993   5.140  0.00  0.00     0.067 C 
HETATM    6  C   UNK N   1      27.952  18.214   6.619  0.00  0.00     0.300 C 
HETATM    7  C   UNK N   1      31.690  17.490   8.433  0.00  0.00    -0.045 A 
HETATM    8  C   UNK N   1      31.311  16.736   7.307  0.00  0.00    -0.016 A 
HETATM    9  C   UNK N   1      28.707  17.061   4.506  0.00  0.00     0.101 C 
HETATM   10  C   UNK N   1      29.961  16.926   6.665  0.00  0.00     0.258 C 
HETATM   11  C   UNK N   1      27.914  18.267   5.080  0.00  0.00     0.137 C 
HETATM   12  C   UNK N   1      33.851  16.365   8.472  0.00  0.00     0.102 A 
HETATM   13  C   UNK N   1      33.460  15.584   7.350  0.00  0.00     0.102 A 
HETATM   14  N   UNK N   1      29.328  18.183   7.103  0.00  0.00     0.100 N 
ENDROOT
BRANCH  11  15
HETATM   15  N   UNK N   1      26.510  18.369   4.675  0.00  0.00    -0.343 N 
HETATM   16  C   UNK N   1      25.581  17.346   5.063  0.00  0.00     0.134 C 
HETATM   17  C   UNK N   1      24.221  17.836   4.552  0.00  0.00     0.041 C 
HETATM   18  C   UNK N   1      24.491  19.039   3.637  0.00  0.00     0.111 C 
HETATM   19  C   UNK N   1      25.918  19.302   3.903  0.00  0.00     0.220 C 
HETATM   20  O   UNK N   1      26.500  20.266   3.428  0.00  0.00    -0.273 OA
BRANCH  17  21
HETATM   21  C   UNK N   1      23.482  16.733   3.812  0.00  0.00     0.228 C 
HETATM   22  F   UNK N   1      24.372  15.984   3.062  0.00  0.00    -0.255 F 
ENDBRANCH  17  21
ENDBRANCH  11  15
BRANCH   9  23
HETATM   23  N   UNK N   1      28.866  17.188   3.066  0.00  0.00    -0.424 N 
HETATM   24  H   UNK N   1      28.749  17.922   2.367  0.00  0.00     0.150 HD
HETATM   25  H   UNK N   1      29.175  16.312   2.644  0.00  0.00     0.150 HD
ENDBRANCH   9  23
BRANCH  13  26
HETATM   26  O   UNK N   1      34.303  14.668   6.813  0.00  0.00    -0.353 OA
HETATM   27  C   UNK N   1      35.140  14.937   5.752  0.00  0.00     0.210 C 
ENDBRANCH  13  26
BRANCH  12  28
HETATM   28  O   UNK N   1      35.065  16.257   9.071  0.00  0.00    -0.353 OA
HETATM   29  C   UNK N   1      35.313  16.438  10.413  0.00  0.00     0.210 C 
ENDBRANCH  12  28
TORSDOF 5
ENDMDL
