REMARK  4 active torsions:
REMARK  status: ('A' for Active; 'I' for Inactive)
REMARK    1  A    between atoms: C_5  and  O_27 
REMARK    2  A    between atoms: C_15  and  O_25 
REMARK    3  A    between atoms: C_18  and  C_19 
REMARK    4  A    between atoms: C_18  and  O_24 
ROOT
HETATM    1  C   UNK N   1       6.118   0.709  -1.581  0.00  0.00     0.016 C 
HETATM    2  C   UNK N   1       5.964   0.474  -0.076  0.00  0.00    -0.036 C 
HETATM    3  C   UNK N   1       6.834  -0.739   0.311  0.00  0.00     0.012 C 
HETATM    4  C   UNK N   1       8.133  -0.394   1.055  0.00  0.00     0.032 C 
HETATM    5  C   UNK N   1       8.805   0.864   0.507  0.00  0.00     0.118 C 
HETATM    6  C   UNK N   1       7.877   2.086   0.527  0.00  0.00     0.037 C 
HETATM    7  C   UNK N   1       6.396   1.731   0.716  0.00  0.00    -0.004 C 
HETATM    8  C   UNK N   1       5.524   2.976   0.487  0.00  0.00     0.006 C 
HETATM    9  C   UNK N   1       4.231   2.692  -0.281  0.00  0.00     0.008 C 
HETATM   10  C   UNK N   1       3.548   1.414   0.210  0.00  0.00     0.026 C 
HETATM   11  C   UNK N   1       4.490   0.168   0.277  0.00  0.00     0.001 C 
HETATM   12  C   UNK N   1       3.950  -1.101  -0.435  0.00  0.00     0.007 C 
HETATM   13  C   UNK N   1       2.452  -1.404  -0.216  0.00  0.00     0.016 C 
HETATM   14  C   UNK N   1       1.601  -0.151   0.055  0.00  0.00     0.023 C 
HETATM   15  C   UNK N   1       2.244   1.110  -0.537  0.00  0.00     0.072 C 
HETATM   16  C   UNK N   1       1.141   2.151  -0.399  0.00  0.00     0.042 C 
HETATM   17  C   UNK N   1      -0.175   1.358  -0.528  0.00  0.00     0.047 C 
HETATM   18  C   UNK N   1       0.208  -0.131  -0.607  0.00  0.00     0.097 C 
HETATM   19  C   UNK N   1       1.457  -0.014   1.586  0.00  0.00     0.022 C 
ENDROOT
BRANCH  18  20
HETATM   20  C   UNK N   1      -0.804  -1.040   0.048  0.00  0.00     0.001 A 
HETATM   21  C   UNK N   1      -0.719  -2.413   0.140  0.00  0.00     0.036 A 
HETATM   22  C   UNK N   1      -1.859  -2.805   0.815  0.00  0.00     0.142 A 
HETATM   23  O   UNK N   1      -2.576  -1.741   1.106  0.00  0.00    -0.334 OA
HETATM   24  C   UNK N   1      -1.979  -0.660   0.663  0.00  0.00     0.151 A 
ENDBRANCH  18  20
BRANCH  18  25
HETATM   25  O   UNK N   1       0.304  -0.485  -1.958  0.00  0.00    -0.384 OA
HETATM   26  H   UNK N   1       0.124  -0.665  -2.894  0.00  0.00     0.211 HD
ENDBRANCH  18  25
BRANCH  15  27
HETATM   27  O   UNK N   1       2.523   0.946  -1.903  0.00  0.00    -0.389 OA
HETATM   28  H   UNK N   1       2.522   0.722  -2.847  0.00  0.00     0.210 HD
ENDBRANCH  15  27
BRANCH   5  29
HETATM   29  O   UNK N   1       9.268   0.636  -0.789  0.00  0.00    -0.396 OA
HETATM   30  H   UNK N   1       9.292   0.278  -1.690  0.00  0.00     0.210 HD
ENDBRANCH   5  29
TORSDOF 4
