MODEL 1
REMARK VINA RESULT:      -4.7      0.000      0.000
REMARK  8 active torsions:
REMARK  status: ('A' for Active; 'I' for Inactive)
REMARK    1  A    between atoms: C_2  and  C_3 
REMARK    2  A    between atoms: C_3  and  C_4 
REMARK    3  A    between atoms: C_4  and  C_6 
REMARK    4  A    between atoms: C_6  and  C_7 
REMARK    5  A    between atoms: C_7  and  C_8 
REMARK    6  A    between atoms: C_7  and  N_12 
REMARK    7  A    between atoms: C_8  and  C_9 
REMARK    8  A    between atoms: C_9  and  O_11 
ROOT
HETATM    1  C   UNK N   1      35.654  13.906  12.872  0.00  0.00     0.084 C 
ENDROOT
BRANCH   1   2
HETATM    2  C   UNK N   1      34.880  12.599  13.028  0.00  0.00     0.029 C 
BRANCH   2   3
HETATM    3  C   UNK N   1      34.970  11.961  14.414  0.00  0.00    -0.017 C 
HETATM    4  C   UNK N   1      33.855  10.946  14.626  0.00  0.00     0.010 C 
BRANCH   3   5
HETATM    5  C   UNK N   1      34.843  13.074  15.445  0.00  0.00     0.004 C 
BRANCH   5   6
HETATM    6  C   UNK N   1      35.224  12.598  16.837  0.00  0.00    -0.004 C 
HETATM    7  C   UNK N   1      35.251  13.781  17.783  0.00  0.00     0.005 C 
ENDBRANCH   5   6
ENDBRANCH   3   5
ENDBRANCH   2   3
ENDBRANCH   1   2
BRANCH   1   8
HETATM    8  C   UNK N   1      35.086  14.635  11.656  0.00  0.00     0.134 C 
BRANCH   8   9
HETATM    9  C   UNK N   1      35.819  15.885  11.251  0.00  0.00     0.141 C 
HETATM   10  O   UNK N   1      35.221  16.948  11.233  0.00  0.00    -0.650 OA
BRANCH   9  11
HETATM   11  O   UNK N   1      37.118  15.848  10.891  0.00  0.00    -0.776 OA
HETATM   12  H   UNK N   1      37.789  16.323  11.341  0.00  0.00     0.167 HD
ENDBRANCH   9  11
ENDBRANCH   8   9
ENDBRANCH   1   8
BRANCH   1  13
HETATM   13  N   UNK N   1      37.065  13.618  12.666  0.00  0.00    -0.426 N 
HETATM   14  H   UNK N   1      37.744  13.280  13.348  0.00  0.00     0.150 HD
HETATM   15  H   UNK N   1      37.420  13.775  11.722  0.00  0.00     0.150 HD
ENDBRANCH   1  13
TORSDOF 8
ENDMDL
MODEL 2
REMARK VINA RESULT:      -4.6      7.065      9.081
REMARK  8 active torsions:
REMARK  status: ('A' for Active; 'I' for Inactive)
REMARK    1  A    between atoms: C_2  and  C_3 
REMARK    2  A    between atoms: C_3  and  C_4 
REMARK    3  A    between atoms: C_4  and  C_6 
REMARK    4  A    between atoms: C_6  and  C_7 
REMARK    5  A    between atoms: C_7  and  C_8 
REMARK    6  A    between atoms: C_7  and  N_12 
REMARK    7  A    between atoms: C_8  and  C_9 
REMARK    8  A    between atoms: C_9  and  O_11 
ROOT
HETATM    1  C   UNK N   1      32.247  16.998   8.666  0.00  0.00     0.084 C 
ENDROOT
BRANCH   1   2
HETATM    2  C   UNK N   1      31.634  16.244   7.488  0.00  0.00     0.029 C 
BRANCH   2   3
HETATM    3  C   UNK N   1      30.825  17.110   6.523  0.00  0.00    -0.017 C 
HETATM    4  C   UNK N   1      29.332  16.993   6.797  0.00  0.00     0.010 C 
BRANCH   3   5
HETATM    5  C   UNK N   1      31.119  16.627   5.109  0.00  0.00     0.004 C 
BRANCH   5   6
HETATM    6  C   UNK N   1      31.964  17.626   4.336  0.00  0.00    -0.004 C 
HETATM    7  C   UNK N   1      32.884  16.881   3.392  0.00  0.00     0.005 C 
ENDBRANCH   5   6
ENDBRANCH   3   5
ENDBRANCH   2   3
ENDBRANCH   1   2
BRANCH   1   8
HETATM    8  C   UNK N   1      32.770  18.332   8.136  0.00  0.00     0.134 C 
BRANCH   8   9
HETATM    9  C   UNK N   1      34.224  18.348   7.749  0.00  0.00     0.141 C 
HETATM   10  O   UNK N   1      35.009  19.011   8.406  0.00  0.00    -0.650 OA
BRANCH   9  11
HETATM   11  O   UNK N   1      34.670  17.658   6.679  0.00  0.00    -0.776 OA
HETATM   12  H   UNK N   1      34.863  18.059   5.855  0.00  0.00     0.167 HD
ENDBRANCH   9  11
ENDBRANCH   8   9
ENDBRANCH   1   8
BRANCH   1  13
HETATM   13  N   UNK N   1      33.342  16.222   9.227  0.00  0.00    -0.426 N 
HETATM   14  H   UNK N   1      33.323  15.605  10.039  0.00  0.00     0.150 HD
HETATM   15  H   UNK N   1      34.240  16.306   8.750  0.00  0.00     0.150 HD
ENDBRANCH   1  13
TORSDOF 8
ENDMDL
MODEL 3
REMARK VINA RESULT:      -4.5      1.599      2.136
REMARK  8 active torsions:
REMARK  status: ('A' for Active; 'I' for Inactive)
REMARK    1  A    between atoms: C_2  and  C_3 
REMARK    2  A    between atoms: C_3  and  C_4 
REMARK    3  A    between atoms: C_4  and  C_6 
REMARK    4  A    between atoms: C_6  and  C_7 
REMARK    5  A    between atoms: C_7  and  C_8 
REMARK    6  A    between atoms: C_7  and  N_12 
REMARK    7  A    between atoms: C_8  and  C_9 
REMARK    8  A    between atoms: C_9  and  O_11 
ROOT
HETATM    1  C   UNK N   1      36.046  13.806  14.743  0.00  0.00     0.084 C 
ENDROOT
BRANCH   1   2
HETATM    2  C   UNK N   1      36.570  12.547  15.432  0.00  0.00     0.029 C 
BRANCH   2   3
HETATM    3  C   UNK N   1      35.660  11.989  16.526  0.00  0.00    -0.017 C 
HETATM    4  C   UNK N   1      34.786  10.863  15.994  0.00  0.00     0.010 C 
BRANCH   3   5
HETATM    5  C   UNK N   1      34.775  13.128  17.018  0.00  0.00     0.004 C 
BRANCH   5   6
HETATM    6  C   UNK N   1      35.180  13.597  18.405  0.00  0.00    -0.004 C 
HETATM    7  C   UNK N   1      35.347  12.397  19.313  0.00  0.00     0.005 C 
ENDBRANCH   5   6
ENDBRANCH   3   5
ENDBRANCH   2   3
ENDBRANCH   1   2
BRANCH   1   8
HETATM    8  C   UNK N   1      35.634  13.415  13.324  0.00  0.00     0.134 C 
BRANCH   8   9
HETATM    9  C   UNK N   1      36.388  14.105  12.220  0.00  0.00     0.141 C 
HETATM   10  O   UNK N   1      35.923  15.118  11.723  0.00  0.00    -0.650 OA
BRANCH   9  11
HETATM   11  O   UNK N   1      37.555  13.615  11.758  0.00  0.00    -0.776 OA
HETATM   12  H   UNK N   1      38.345  14.117  11.723  0.00  0.00     0.167 HD
ENDBRANCH   9  11
ENDBRANCH   8   9
ENDBRANCH   1   8
BRANCH   1  13
HETATM   13  N   UNK N   1      37.096  14.812  14.697  0.00  0.00    -0.426 N 
HETATM   14  H   UNK N   1      37.320  15.518  15.397  0.00  0.00     0.150 HD
HETATM   15  H   UNK N   1      37.679  14.811  13.859  0.00  0.00     0.150 HD
ENDBRANCH   1  13
TORSDOF 8
ENDMDL
MODEL 4
REMARK VINA RESULT:      -4.5      8.216      9.573
REMARK  8 active torsions:
REMARK  status: ('A' for Active; 'I' for Inactive)
REMARK    1  A    between atoms: C_2  and  C_3 
REMARK    2  A    between atoms: C_3  and  C_4 
REMARK    3  A    between atoms: C_4  and  C_6 
REMARK    4  A    between atoms: C_6  and  C_7 
REMARK    5  A    between atoms: C_7  and  C_8 
REMARK    6  A    between atoms: C_7  and  N_12 
REMARK    7  A    between atoms: C_8  and  C_9 
REMARK    8  A    between atoms: C_9  and  O_11 
ROOT
HETATM    1  C   UNK N   1      30.507  17.751   8.047  0.00  0.00     0.084 C 
ENDROOT
BRANCH   1   2
HETATM    2  C   UNK N   1      31.405  16.556   8.361  0.00  0.00     0.029 C 
BRANCH   2   3
HETATM    3  C   UNK N   1      32.879  16.749   8.006  0.00  0.00    -0.017 C 
HETATM    4  C   UNK N   1      33.286  18.211   8.120  0.00  0.00     0.010 C 
BRANCH   3   5
HETATM    5  C   UNK N   1      33.074  16.280   6.570  0.00  0.00     0.004 C 
BRANCH   5   6
HETATM    6  C   UNK N   1      33.420  17.433   5.643  0.00  0.00    -0.004 C 
HETATM    7  C   UNK N   1      32.404  17.497   4.521  0.00  0.00     0.005 C 
ENDBRANCH   5   6
ENDBRANCH   3   5
ENDBRANCH   2   3
ENDBRANCH   1   2
BRANCH   1   8
HETATM    8  C   UNK N   1      29.759  18.113   9.328  0.00  0.00     0.134 C 
BRANCH   8   9
HETATM    9  C   UNK N   1      28.260  18.012   9.251  0.00  0.00     0.141 C 
HETATM   10  O   UNK N   1      27.711  16.990   9.629  0.00  0.00    -0.650 OA
BRANCH   9  11
HETATM   11  O   UNK N   1      27.515  19.020   8.756  0.00  0.00    -0.776 OA
HETATM   12  H   UNK N   1      27.844  19.888   8.634  0.00  0.00     0.167 HD
ENDBRANCH   9  11
ENDBRANCH   8   9
ENDBRANCH   1   8
BRANCH   1  13
HETATM   13  N   UNK N   1      29.561  17.391   7.003  0.00  0.00    -0.426 N 
HETATM   14  H   UNK N   1      29.700  17.415   5.993  0.00  0.00     0.150 HD
HETATM   15  H   UNK N   1      28.643  17.075   7.320  0.00  0.00     0.150 HD
ENDBRANCH   1  13
TORSDOF 8
ENDMDL
MODEL 5
REMARK VINA RESULT:      -4.5     14.951     16.156
REMARK  8 active torsions:
REMARK  status: ('A' for Active; 'I' for Inactive)
REMARK    1  A    between atoms: C_2  and  C_3 
REMARK    2  A    between atoms: C_3  and  C_4 
REMARK    3  A    between atoms: C_4  and  C_6 
REMARK    4  A    between atoms: C_6  and  C_7 
REMARK    5  A    between atoms: C_7  and  C_8 
REMARK    6  A    between atoms: C_7  and  N_12 
REMARK    7  A    between atoms: C_8  and  C_9 
REMARK    8  A    between atoms: C_9  and  O_11 
ROOT
HETATM    1  C   UNK N   1      43.470  22.972   3.211  0.00  0.00     0.084 C 
ENDROOT
BRANCH   1   2
HETATM    2  C   UNK N   1      43.663  21.608   3.871  0.00  0.00     0.029 C 
BRANCH   2   3
HETATM    3  C   UNK N   1      42.591  20.573   3.532  0.00  0.00    -0.017 C 
HETATM    4  C   UNK N   1      43.199  19.349   2.862  0.00  0.00     0.010 C 
BRANCH   3   5
HETATM    5  C   UNK N   1      41.599  21.230   2.581  0.00  0.00     0.004 C 
BRANCH   5   6
HETATM    6  C   UNK N   1      40.204  20.645   2.730  0.00  0.00    -0.004 C 
HETATM    7  C   UNK N   1      39.467  20.762   1.412  0.00  0.00     0.005 C 
ENDBRANCH   5   6
ENDBRANCH   3   5
ENDBRANCH   2   3
ENDBRANCH   1   2
BRANCH   1   8
HETATM    8  C   UNK N   1      44.569  23.134   2.162  0.00  0.00     0.134 C 
BRANCH   8   9
HETATM    9  C   UNK N   1      45.274  24.464   2.166  0.00  0.00     0.141 C 
HETATM   10  O   UNK N   1      44.776  25.404   1.569  0.00  0.00    -0.650 OA
BRANCH   9  11
HETATM   11  O   UNK N   1      46.452  24.629   2.800  0.00  0.00    -0.776 OA
HETATM   12  H   UNK N   1      47.257  24.793   2.352  0.00  0.00     0.167 HD
ENDBRANCH   9  11
ENDBRANCH   8   9
ENDBRANCH   1   8
BRANCH   1  13
HETATM   13  N   UNK N   1      43.579  24.020   4.213  0.00  0.00    -0.426 N 
HETATM   14  H   UNK N   1      42.894  24.738   4.450  0.00  0.00     0.150 HD
HETATM   15  H   UNK N   1      44.451  24.042   4.745  0.00  0.00     0.150 HD
ENDBRANCH   1  13
TORSDOF 8
ENDMDL
MODEL 6
REMARK VINA RESULT:      -4.5     10.693     13.113
REMARK  8 active torsions:
REMARK  status: ('A' for Active; 'I' for Inactive)
REMARK    1  A    between atoms: C_2  and  C_3 
REMARK    2  A    between atoms: C_3  and  C_4 
REMARK    3  A    between atoms: C_4  and  C_6 
REMARK    4  A    between atoms: C_6  and  C_7 
REMARK    5  A    between atoms: C_7  and  C_8 
REMARK    6  A    between atoms: C_7  and  N_12 
REMARK    7  A    between atoms: C_8  and  C_9 
REMARK    8  A    between atoms: C_9  and  O_11 
ROOT
HETATM    1  C   UNK N   1      27.820  18.494   6.624  0.00  0.00     0.084 C 
ENDROOT
BRANCH   1   2
HETATM    2  C   UNK N   1      28.408  18.774   5.243  0.00  0.00     0.029 C 
BRANCH   2   3
HETATM    3  C   UNK N   1      27.996  20.112   4.628  0.00  0.00    -0.017 C 
HETATM    4  C   UNK N   1      27.421  21.047   5.683  0.00  0.00     0.010 C 
BRANCH   3   5
HETATM    5  C   UNK N   1      26.938  19.829   3.571  0.00  0.00     0.004 C 
BRANCH   5   6
HETATM    6  C   UNK N   1      25.551  20.234   4.040  0.00  0.00    -0.004 C 
HETATM    7  C   UNK N   1      24.688  20.560   2.839  0.00  0.00     0.005 C 
ENDBRANCH   5   6
ENDBRANCH   3   5
ENDBRANCH   2   3
ENDBRANCH   1   2
BRANCH   1   8
HETATM    8  C   UNK N   1      28.978  18.131   7.552  0.00  0.00     0.134 C 
BRANCH   8   9
HETATM    9  C   UNK N   1      28.619  17.983   9.005  0.00  0.00     0.141 C 
HETATM   10  O   UNK N   1      29.480  17.647   9.801  0.00  0.00    -0.650 OA
BRANCH   9  11
HETATM   11  O   UNK N   1      27.361  18.196   9.440  0.00  0.00    -0.776 OA
HETATM   12  H   UNK N   1      26.784  18.824   9.052  0.00  0.00     0.167 HD
ENDBRANCH   9  11
ENDBRANCH   8   9
ENDBRANCH   1   8
BRANCH   1  13
HETATM   13  N   UNK N   1      26.882  17.385   6.541  0.00  0.00    -0.426 N 
HETATM   14  H   UNK N   1      26.291  17.006   7.280  0.00  0.00     0.150 HD
HETATM   15  H   UNK N   1      26.808  16.929   5.631  0.00  0.00     0.150 HD
ENDBRANCH   1  13
TORSDOF 8
ENDMDL
MODEL 7
REMARK VINA RESULT:      -4.4      1.532      2.732
REMARK  8 active torsions:
REMARK  status: ('A' for Active; 'I' for Inactive)
REMARK    1  A    between atoms: C_2  and  C_3 
REMARK    2  A    between atoms: C_3  and  C_4 
REMARK    3  A    between atoms: C_4  and  C_6 
REMARK    4  A    between atoms: C_6  and  C_7 
REMARK    5  A    between atoms: C_7  and  C_8 
REMARK    6  A    between atoms: C_7  and  N_12 
REMARK    7  A    between atoms: C_8  and  C_9 
REMARK    8  A    between atoms: C_9  and  O_11 
ROOT
HETATM    1  C   UNK N   1      36.119  14.020  14.675  0.00  0.00     0.084 C 
ENDROOT
BRANCH   1   2
HETATM    2  C   UNK N   1      36.413  12.804  15.552  0.00  0.00     0.029 C 
BRANCH   2   3
HETATM    3  C   UNK N   1      35.204  12.251  16.307  0.00  0.00    -0.017 C 
HETATM    4  C   UNK N   1      35.099  12.861  17.698  0.00  0.00     0.010 C 
BRANCH   3   5
HETATM    5  C   UNK N   1      35.384  10.743  16.428  0.00  0.00     0.004 C 
BRANCH   5   6
HETATM    6  C   UNK N   1      34.781  10.008  15.243  0.00  0.00    -0.004 C 
HETATM    7  C   UNK N   1      33.591  10.786  14.721  0.00  0.00     0.005 C 
ENDBRANCH   5   6
ENDBRANCH   3   5
ENDBRANCH   2   3
ENDBRANCH   1   2
BRANCH   1   8
HETATM    8  C   UNK N   1      36.020  13.532  13.231  0.00  0.00     0.134 C 
BRANCH   8   9
HETATM    9  C   UNK N   1      35.602  14.570  12.226  0.00  0.00     0.141 C 
HETATM   10  O   UNK N   1      34.463  14.552  11.787  0.00  0.00    -0.650 OA
BRANCH   9  11
HETATM   11  O   UNK N   1      36.466  15.507  11.788  0.00  0.00    -0.776 OA
HETATM   12  H   UNK N   1      37.292  15.301  11.398  0.00  0.00     0.167 HD
ENDBRANCH   9  11
ENDBRANCH   8   9
ENDBRANCH   1   8
BRANCH   1  13
HETATM   13  N   UNK N   1      37.199  14.986  14.801  0.00  0.00    -0.426 N 
HETATM   14  H   UNK N   1      37.941  15.190  14.131  0.00  0.00     0.150 HD
HETATM   15  H   UNK N   1      37.218  15.526  15.667  0.00  0.00     0.150 HD
ENDBRANCH   1  13
TORSDOF 8
ENDMDL
MODEL 8
REMARK VINA RESULT:      -4.3      8.508     10.232
REMARK  8 active torsions:
REMARK  status: ('A' for Active; 'I' for Inactive)
REMARK    1  A    between atoms: C_2  and  C_3 
REMARK    2  A    between atoms: C_3  and  C_4 
REMARK    3  A    between atoms: C_4  and  C_6 
REMARK    4  A    between atoms: C_6  and  C_7 
REMARK    5  A    between atoms: C_7  and  C_8 
REMARK    6  A    between atoms: C_7  and  N_12 
REMARK    7  A    between atoms: C_8  and  C_9 
REMARK    8  A    between atoms: C_9  and  O_11 
ROOT
HETATM    1  C   UNK N   1      30.676  17.083   8.049  0.00  0.00     0.084 C 
ENDROOT
BRANCH   1   2
HETATM    2  C   UNK N   1      31.233  16.930   6.635  0.00  0.00     0.029 C 
BRANCH   2   3
HETATM    3  C   UNK N   1      30.216  16.470   5.590  0.00  0.00    -0.017 C 
HETATM    4  C   UNK N   1      30.239  14.956   5.430  0.00  0.00     0.010 C 
BRANCH   3   5
HETATM    5  C   UNK N   1      30.585  17.125   4.266  0.00  0.00     0.004 C 
BRANCH   5   6
HETATM    6  C   UNK N   1      32.025  17.610   4.259  0.00  0.00    -0.004 C 
HETATM    7  C   UNK N   1      32.806  16.849   3.208  0.00  0.00     0.005 C 
ENDBRANCH   5   6
ENDBRANCH   3   5
ENDBRANCH   2   3
ENDBRANCH   1   2
BRANCH   1   8
HETATM    8  C   UNK N   1      29.537  18.100   7.986  0.00  0.00     0.134 C 
BRANCH   8   9
HETATM    9  C   UNK N   1      28.836  18.365   9.291  0.00  0.00     0.141 C 
HETATM   10  O   UNK N   1      29.484  18.759  10.247  0.00  0.00    -0.650 OA
BRANCH   9  11
HETATM   11  O   UNK N   1      27.511  18.159   9.427  0.00  0.00    -0.776 OA
HETATM   12  H   UNK N   1      26.866  18.800   9.204  0.00  0.00     0.167 HD
ENDBRANCH   9  11
ENDBRANCH   8   9
ENDBRANCH   1   8
BRANCH   1  13
HETATM   13  N   UNK N   1      31.722  17.561   8.939  0.00  0.00    -0.426 N 
HETATM   14  H   UNK N   1      32.727  17.397   8.873  0.00  0.00     0.150 HD
HETATM   15  H   UNK N   1      31.413  18.131   9.727  0.00  0.00     0.150 HD
ENDBRANCH   1  13
TORSDOF 8
ENDMDL
MODEL 9
REMARK VINA RESULT:      -4.3     19.234     22.047
REMARK  8 active torsions:
REMARK  status: ('A' for Active; 'I' for Inactive)
REMARK    1  A    between atoms: C_2  and  C_3 
REMARK    2  A    between atoms: C_3  and  C_4 
REMARK    3  A    between atoms: C_4  and  C_6 
REMARK    4  A    between atoms: C_6  and  C_7 
REMARK    5  A    between atoms: C_7  and  C_8 
REMARK    6  A    between atoms: C_7  and  N_12 
REMARK    7  A    between atoms: C_8  and  C_9 
REMARK    8  A    between atoms: C_9  and  O_11 
ROOT
HETATM    1  C   UNK N   1      29.019  23.922  -3.978  0.00  0.00     0.084 C 
ENDROOT
BRANCH   1   2
HETATM    2  C   UNK N   1      27.673  24.132  -3.287  0.00  0.00     0.029 C 
BRANCH   2   3
HETATM    3  C   UNK N   1      26.514  24.461  -4.228  0.00  0.00    -0.017 C 
HETATM    4  C   UNK N   1      26.725  23.839  -5.600  0.00  0.00     0.010 C 
BRANCH   3   5
HETATM    5  C   UNK N   1      26.445  25.976  -4.364  0.00  0.00     0.004 C 
BRANCH   5   6
HETATM    6  C   UNK N   1      26.008  26.397  -5.757  0.00  0.00    -0.004 C 
HETATM    7  C   UNK N   1      24.688  27.133  -5.670  0.00  0.00     0.005 C 
ENDBRANCH   5   6
ENDBRANCH   3   5
ENDBRANCH   2   3
ENDBRANCH   1   2
BRANCH   1   8
HETATM    8  C   UNK N   1      29.575  22.580  -3.504  0.00  0.00     0.134 C 
BRANCH   8   9
HETATM    9  C   UNK N   1      30.563  22.654  -2.372  0.00  0.00     0.141 C 
HETATM   10  O   UNK N   1      30.189  23.042  -1.278  0.00  0.00    -0.650 OA
BRANCH   9  11
HETATM   11  O   UNK N   1      31.857  22.319  -2.551  0.00  0.00    -0.776 OA
HETATM   12  H   UNK N   1      32.418  22.048  -1.851  0.00  0.00     0.167 HD
ENDBRANCH   9  11
ENDBRANCH   8   9
ENDBRANCH   1   8
BRANCH   1  13
HETATM   13  N   UNK N   1      29.930  24.995  -3.612  0.00  0.00    -0.426 N 
HETATM   14  H   UNK N   1      30.632  24.999  -2.872  0.00  0.00     0.150 HD
HETATM   15  H   UNK N   1      29.857  25.852  -4.163  0.00  0.00     0.150 HD
ENDBRANCH   1  13
TORSDOF 8
ENDMDL
