REMARK  29 active torsions:
REMARK  status: ('A' for Active; 'I' for Inactive)
REMARK    1  A    between atoms: C_2  and  C_3 
REMARK    2  A    between atoms: C_3  and  C_4 
REMARK    3  A    between atoms: C_4  and  C_5 
REMARK    4  A    between atoms: C_5  and  C_6 
REMARK    5  A    between atoms: C_6  and  C_7 
REMARK    6  A    between atoms: C_7  and  C_8 
REMARK    7  A    between atoms: C_8  and  C_9 
REMARK    8  A    between atoms: C_9  and  C_10 
REMARK    9  A    between atoms: C_10  and  C_11 
REMARK   10  A    between atoms: C_11  and  C_12 
REMARK   11  A    between atoms: C_12  and  C_13 
REMARK   12  A    between atoms: C_13  and  C_14 
REMARK   13  A    between atoms: C_14  and  C_15 
REMARK   14  A    between atoms: C_15  and  C_16 
REMARK   15  A    between atoms: C_16  and  O_17 
REMARK   16  A    between atoms: O_17  and  C_18 
REMARK   17  A    between atoms: C_18  and  C_19 
REMARK   18  A    between atoms: C_19  and  C_20 
REMARK   19  A    between atoms: C_20  and  O_21 
REMARK   20  A    between atoms: O_21  and  P_22 
REMARK   21  A    between atoms: P_22  and  C_24 
REMARK   22  A    between atoms: P_22  and  O_39 
REMARK   23  A    between atoms: C_24  and  O_25 
REMARK   24  A    between atoms: C_26  and  O_25 
REMARK   25  A    between atoms: C_26  and  C_27 
REMARK   26  A    between atoms: C_26  and  C_37 
REMARK   27  A    between atoms: C_27  and  N_28 
REMARK   28  A    between atoms: C_31  and  N_36 
REMARK   29  A    between atoms: C_37  and  O_38 
ROOT
HETATM    1  P   UNK N   1      21.490 -15.043  -1.433  0.00  0.00     0.262 P 
HETATM    2  O   UNK N   1      21.818 -16.545  -1.215  0.00  0.00    -0.652 OA
ENDROOT
BRANCH   1   3
HETATM    3  O   UNK N   1      19.887 -15.534  -0.921  0.00  0.00    -0.317 OA
BRANCH   3   4
HETATM    4  C   UNK N   1      19.062 -14.409  -0.759  0.00  0.00     0.180 C 
BRANCH   4   5
HETATM    5  C   UNK N   1      18.819 -14.128   0.734  0.00  0.00     0.053 C 
BRANCH   5   6
HETATM    6  C   UNK N   1      19.127 -15.332   1.635  0.00  0.00     0.169 C 
BRANCH   6   7
HETATM    7  O   UNK N   1      17.980 -16.098   1.860  0.00  0.00    -0.391 OA
BRANCH   7   8
HETATM    8  C   UNK N   1      18.013 -17.152   0.937  0.00  0.00     0.167 C 
BRANCH   8   9
HETATM    9  C   UNK N   1      17.042 -16.889  -0.213  0.00  0.00     0.026 C 
BRANCH   9  10
HETATM   10  C   UNK N   1      15.596 -16.788   0.257  0.00  0.00     0.002 C 
BRANCH  10  11
HETATM   11  C   UNK N   1      15.380 -15.513   1.059  0.00  0.00     0.000 C 
BRANCH  11  12
HETATM   12  C   UNK N   1      13.902 -15.233   1.233  0.00  0.00     0.000 C 
BRANCH  12  13
HETATM   13  C   UNK N   1      13.425 -14.220   0.201  0.00  0.00     0.000 C 
BRANCH  13  14
HETATM   14  C   UNK N   1      13.478 -14.780  -1.216  0.00  0.00     0.000 C 
BRANCH  14  15
HETATM   15  C   UNK N   1      12.203 -15.528  -1.583  0.00  0.00     0.000 C 
BRANCH  15  16
HETATM   16  C   UNK N   1      12.180 -16.935  -0.999  0.00  0.00     0.000 C 
BRANCH  16  17
HETATM   17  C   UNK N   1      11.485 -16.953   0.353  0.00  0.00     0.000 C 
BRANCH  17  18
HETATM   18  C   UNK N   1       9.993 -16.766   0.178  0.00  0.00     0.000 C 
BRANCH  18  19
HETATM   19  C   UNK N   1       9.480 -15.765   1.196  0.00  0.00     0.000 C 
BRANCH  19  20
HETATM   20  C   UNK N   1       7.985 -15.573   1.024  0.00  0.00     0.000 C 
BRANCH  20  21
HETATM   21  C   UNK N   1       7.690 -14.812  -0.259  0.00  0.00    -0.000 C 
BRANCH  21  22
HETATM   22  C   UNK N   1       6.558 -15.479  -1.021  0.00  0.00    -0.005 C 
HETATM   23  C   UNK N   1       5.226 -15.209  -0.347  0.00  0.00     0.005 C 
ENDBRANCH  21  22
ENDBRANCH  20  21
ENDBRANCH  19  20
ENDBRANCH  18  19
ENDBRANCH  17  18
ENDBRANCH  16  17
ENDBRANCH  15  16
ENDBRANCH  14  15
ENDBRANCH  13  14
ENDBRANCH  12  13
ENDBRANCH  11  12
ENDBRANCH  10  11
ENDBRANCH   9  10
ENDBRANCH   8   9
ENDBRANCH   7   8
ENDBRANCH   6   7
ENDBRANCH   5   6
ENDBRANCH   4   5
ENDBRANCH   3   4
ENDBRANCH   1   3
BRANCH   1  24
HETATM   24  C   UNK N   1      22.790 -15.126  -0.097  0.00  0.00     0.293 C 
BRANCH  24  25
HETATM   25  O   UNK N   1      24.074 -15.255  -0.627  0.00  0.00    -0.371 OA
BRANCH  25  26
HETATM   26  C   UNK N   1      24.603 -16.375   0.015  0.00  0.00     0.164 C 
BRANCH  26  27
HETATM   27  C   UNK N   1      25.773 -15.952   0.918  0.00  0.00     0.167 C 
BRANCH  27  28
HETATM   28  N   UNK N   1      27.030 -16.596   0.554  0.00  0.00    -0.307 N 
HETATM   29  C   UNK N   1      27.946 -15.876  -0.146  0.00  0.00     0.099 A 
HETATM   30  C   UNK N   1      29.140 -16.463  -0.552  0.00  0.00     0.065 A 
HETATM   31  C   UNK N   1      29.379 -17.795  -0.225  0.00  0.00     0.103 A 
HETATM   32  N   UNK N   1      28.461 -18.496   0.490  0.00  0.00    -0.295 N 
HETATM   33  C   UNK N   1      27.289 -17.911   0.887  0.00  0.00     0.328 A 
ATOM     34  HN  UNK N   1      28.648 -19.469   0.734  1.00  0.00     0.172 HD
HETATM   35  O   UNK N   1      26.476 -18.561   1.524  0.00  0.00    -0.246 OA
BRANCH  31  36
HETATM   36  N   UNK N   1      30.572 -18.417  -0.639  0.00  0.00    -0.385 N 
HETATM   37  H   UNK N   1      30.612 -19.357  -0.929  0.00  0.00     0.157 HD
HETATM   38  H   UNK N   1      31.403 -17.889  -0.639  0.00  0.00     0.157 HD
ENDBRANCH  31  36
ENDBRANCH  27  28
ENDBRANCH  26  27
BRANCH  26  39
HETATM   39  C   UNK N   1      24.928 -17.442  -1.023  0.00  0.00     0.197 C 
BRANCH  39  40
HETATM   40  O   UNK N   1      24.039 -18.507  -0.896  0.00  0.00    -0.398 OA
HETATM   41  H   UNK N   1      23.087 -18.342  -0.807  0.00  0.00     0.209 HD
ENDBRANCH  39  40
ENDBRANCH  26  39
ENDBRANCH  25  26
ENDBRANCH  24  25
ENDBRANCH   1  24
BRANCH   1  42
HETATM   42  O   UNK N   1      21.535 -14.235   0.107  0.00  0.00    -0.328 OA
HETATM   43  H   UNK N   1      21.938 -14.031   0.965  0.00  0.00     0.220 HD
ENDBRANCH   1  42
TORSDOF 29
