MODEL 1
REMARK VINA RESULT:      -8.6      0.000      0.000
REMARK  6 active torsions:
REMARK  status: ('A' for Active; 'I' for Inactive)
REMARK    1  A    between atoms: C_2  and  N_3 
REMARK    2  A    between atoms: N_6  and  C_9 
REMARK    3  A    between atoms: C_9  and  C_10 
REMARK    4  A    between atoms: C_13  and  N_17 
REMARK       I    between atoms: N_17  and  C_18 
REMARK    5  A    between atoms: C_23  and  C_26 
REMARK    6  A    between atoms: N_36  and  C_37 
ROOT
HETATM    1  N   UNK N   1      32.461  16.992   7.696  0.00  0.00    -0.176 N 
HETATM    2  C   UNK N   1      31.157  17.273   8.172  0.00  0.00     0.684 A 
HETATM    3  N   UNK N   1      30.768  16.814   9.394  0.00  0.00    -0.199 N 
ATOM      4  HN  UNK N   1      31.445  16.327   9.982  1.00  0.00     0.183 HD
HETATM    5  C   UNK N   1      29.507  16.989   9.844  0.00  0.00     0.150 A 
HETATM    6  C   UNK N   1      28.579  17.645   9.053  0.00  0.00     0.160 A 
HETATM    7  C   UNK N   1      28.980  18.122   7.786  0.00  0.00     0.099 A 
HETATM    8  N   UNK N   1      30.264  17.913   7.376  0.00  0.00    -0.188 N 
ATOM      9  HN  UNK N   1      30.557  18.245   6.458  1.00  0.00     0.184 HD
HETATM   10  F   UNK N   1      27.315  17.791   9.520  0.00  0.00    -0.202 F 
HETATM   11  H   UNK N   1      32.718  17.238   6.778  0.00  0.00     0.186 HD
ENDROOT
BRANCH   1  12
HETATM   12  C   UNK N   1      33.392  16.356   8.548  0.00  0.00     0.120 A 
HETATM   13  C   UNK N   1      33.805  15.045   8.276  0.00  0.00     0.050 A 
HETATM   14  C   UNK N   1      34.842  14.489   9.011  0.00  0.00     0.014 A 
HETATM   15  C   UNK N   1      35.470  15.243   9.996  0.00  0.00    -0.015 A 
HETATM   16  C   UNK N   1      35.028  16.547  10.255  0.00  0.00     0.098 A 
HETATM   17  N   UNK N   1      34.005  17.073   9.529  0.00  0.00    -0.351 N 
ATOM     18  HN  UNK N   1      33.691  18.025   9.723  1.00  0.00     0.166 HD
BRANCH  15  19
HETATM   19  C   UNK N   1      36.583  14.619  10.777  0.00  0.00     0.312 C 
BRANCH  19  20
HETATM   20  N   UNK N   1      36.228  13.336  11.392  0.00  0.00     0.096 N 
HETATM   21  C   UNK N   1      37.430  12.618  11.830  0.00  0.00     0.303 C 
HETATM   22  C   UNK N   1      37.217  11.925  13.168  0.00  0.00     0.302 C 
HETATM   23  N   UNK N   1      36.864  12.934  14.161  0.00  0.00     0.091 N 
HETATM   24  C   UNK N   1      35.625  13.653  13.817  0.00  0.00     0.302 C 
HETATM   25  C   UNK N   1      35.128  13.412  12.375  0.00  0.00     0.303 C 
BRANCH  23  26
HETATM   26  C   UNK N   1      36.646  12.243  15.420  0.00  0.00     0.268 C 
HETATM   27  C   UNK N   1      35.484  12.878  16.159  0.00  0.00     0.037 C 
ENDBRANCH  23  26
ENDBRANCH  19  20
ENDBRANCH  15  19
ENDBRANCH   1  12
BRANCH   7  28
HETATM   28  C   UNK N   1      28.052  18.847   6.891  0.00  0.00    -0.001 A 
HETATM   29  C   UNK N   1      27.134  18.142   6.084  0.00  0.00     0.046 A 
HETATM   30  C   UNK N   1      26.251  18.867   5.296  0.00  0.00     0.067 A 
HETATM   31  C   UNK N   1      26.263  20.228   5.278  0.00  0.00     0.099 A 
HETATM   32  N   UNK N   1      25.280  18.423   4.470  0.00  0.00    -0.331 N 
HETATM   33  C   UNK N   1      27.155  20.969   6.046  0.00  0.00     0.146 A 
HETATM   34  N   UNK N   1      25.308  20.684   4.447  0.00  0.00    -0.342 N 
HETATM   35  C   UNK N   1      28.055  20.265   6.867  0.00  0.00     0.058 A 
HETATM   36  F   UNK N   1      27.154  22.323   6.020  0.00  0.00    -0.204 F 
HETATM   37  C   UNK N   1      24.721  19.558   3.969  0.00  0.00     0.080 A 
ATOM     38  HN  UNK N   1      25.079  21.653   4.227  1.00  0.00     0.167 HD
HETATM   39  C   UNK N   1      23.575  19.582   3.017  0.00  0.00     0.089 C 
BRANCH  32  40
HETATM   40  C   UNK N   1      24.857  17.045   4.158  0.00  0.00     0.083 C 
HETATM   41  C   UNK N   1      24.490  16.215   5.378  0.00  0.00     0.032 C 
HETATM   42  C   UNK N   1      25.942  16.317   3.386  0.00  0.00     0.032 C 
ENDBRANCH  32  40
ENDBRANCH   7  28
TORSDOF 6
ENDMDL
MODEL 2
REMARK VINA RESULT:      -8.6      3.115     12.581
REMARK  6 active torsions:
REMARK  status: ('A' for Active; 'I' for Inactive)
REMARK    1  A    between atoms: C_2  and  N_3 
REMARK    2  A    between atoms: N_6  and  C_9 
REMARK    3  A    between atoms: C_9  and  C_10 
REMARK    4  A    between atoms: C_13  and  N_17 
REMARK       I    between atoms: N_17  and  C_18 
REMARK    5  A    between atoms: C_23  and  C_26 
REMARK    6  A    between atoms: N_36  and  C_37 
ROOT
HETATM    1  N   UNK N   1      31.690  15.188   9.624  0.00  0.00    -0.176 N 
HETATM    2  C   UNK N   1      33.041  15.408   9.989  0.00  0.00     0.684 A 
HETATM    3  N   UNK N   1      33.636  16.598   9.697  0.00  0.00    -0.199 N 
ATOM      4  HN  UNK N   1      33.081  17.343   9.275  1.00  0.00     0.183 HD
HETATM    5  C   UNK N   1      34.944  16.813   9.953  0.00  0.00     0.150 A 
HETATM    6  C   UNK N   1      35.709  15.808  10.521  0.00  0.00     0.160 A 
HETATM    7  C   UNK N   1      35.094  14.574  10.824  0.00  0.00     0.099 A 
HETATM    8  N   UNK N   1      33.771  14.406  10.540  0.00  0.00    -0.188 N 
ATOM      9  HN  UNK N   1      33.323  13.514  10.746  1.00  0.00     0.184 HD
HETATM   10  F   UNK N   1      37.024  16.043  10.750  0.00  0.00    -0.202 F 
HETATM   11  H   UNK N   1      31.282  14.300   9.745  0.00  0.00     0.186 HD
ENDROOT
BRANCH   1  12
HETATM   12  C   UNK N   1      30.932  16.251   9.083  0.00  0.00     0.120 A 
HETATM   13  C   UNK N   1      30.966  16.502   7.705  0.00  0.00     0.050 A 
HETATM   14  C   UNK N   1      30.093  17.431   7.158  0.00  0.00     0.014 A 
HETATM   15  C   UNK N   1      29.183  18.088   7.979  0.00  0.00    -0.015 A 
HETATM   16  C   UNK N   1      29.179  17.826   9.355  0.00  0.00     0.098 A 
HETATM   17  N   UNK N   1      30.049  16.917   9.875  0.00  0.00    -0.351 N 
ATOM     18  HN  UNK N   1      30.037  16.731  10.878  1.00  0.00     0.166 HD
BRANCH  15  19
HETATM   19  C   UNK N   1      28.255  19.087   7.365  0.00  0.00     0.312 C 
BRANCH  19  20
HETATM   20  N   UNK N   1      28.014  18.872   5.935  0.00  0.00     0.096 N 
HETATM   21  C   UNK N   1      26.997  17.836   5.727  0.00  0.00     0.303 C 
HETATM   22  C   UNK N   1      26.059  18.188   4.581  0.00  0.00     0.302 C 
HETATM   23  N   UNK N   1      25.406  19.455   4.891  0.00  0.00     0.091 N 
HETATM   24  C   UNK N   1      26.368  20.560   5.049  0.00  0.00     0.302 C 
HETATM   25  C   UNK N   1      27.842  20.112   5.150  0.00  0.00     0.303 C 
BRANCH  23  26
HETATM   26  C   UNK N   1      24.535  19.777   3.774  0.00  0.00     0.268 C 
HETATM   27  C   UNK N   1      25.324  20.497   2.698  0.00  0.00     0.037 C 
ENDBRANCH  23  26
ENDBRANCH  19  20
ENDBRANCH  15  19
ENDBRANCH   1  12
BRANCH   7  28
HETATM   28  C   UNK N   1      35.839  13.459  11.448  0.00  0.00    -0.001 A 
HETATM   29  C   UNK N   1      35.420  12.914  12.679  0.00  0.00     0.046 A 
HETATM   30  C   UNK N   1      36.123  11.837  13.202  0.00  0.00     0.067 A 
HETATM   31  C   UNK N   1      37.204  11.312  12.562  0.00  0.00     0.099 A 
HETATM   32  N   UNK N   1      35.901  11.142  14.337  0.00  0.00    -0.331 N 
HETATM   33  C   UNK N   1      37.663  11.820  11.352  0.00  0.00     0.146 A 
HETATM   34  N   UNK N   1      37.695  10.277  13.266  0.00  0.00    -0.342 N 
HETATM   35  C   UNK N   1      36.965  12.903  10.787  0.00  0.00     0.058 A 
HETATM   36  F   UNK N   1      38.739  11.286  10.725  0.00  0.00    -0.204 F 
HETATM   37  C   UNK N   1      36.876  10.194  14.346  0.00  0.00     0.080 A 
ATOM     38  HN  UNK N   1      38.498   9.690  13.041  1.00  0.00     0.167 HD
HETATM   39  C   UNK N   1      37.033   9.156  15.404  0.00  0.00     0.089 C 
BRANCH  32  40
HETATM   40  C   UNK N   1      34.850  11.305  15.359  0.00  0.00     0.083 C 
HETATM   41  C   UNK N   1      33.458  10.913  14.889  0.00  0.00     0.032 C 
HETATM   42  C   UNK N   1      34.808  12.738  15.856  0.00  0.00     0.032 C 
ENDBRANCH  32  40
ENDBRANCH   7  28
TORSDOF 6
ENDMDL
MODEL 3
REMARK VINA RESULT:      -8.2      2.159      2.790
REMARK  6 active torsions:
REMARK  status: ('A' for Active; 'I' for Inactive)
REMARK    1  A    between atoms: C_2  and  N_3 
REMARK    2  A    between atoms: N_6  and  C_9 
REMARK    3  A    between atoms: C_9  and  C_10 
REMARK    4  A    between atoms: C_13  and  N_17 
REMARK       I    between atoms: N_17  and  C_18 
REMARK    5  A    between atoms: C_23  and  C_26 
REMARK    6  A    between atoms: N_36  and  C_37 
ROOT
HETATM    1  N   UNK N   1      30.740  17.611   7.796  0.00  0.00    -0.176 N 
HETATM    2  C   UNK N   1      30.231  17.271   6.519  0.00  0.00     0.684 A 
HETATM    3  N   UNK N   1      30.939  16.437   5.708  0.00  0.00    -0.199 N 
ATOM      4  HN  UNK N   1      31.800  16.014   6.057  1.00  0.00     0.183 HD
HETATM    5  C   UNK N   1      30.528  16.158   4.453  0.00  0.00     0.150 A 
HETATM    6  C   UNK N   1      29.365  16.729   3.966  0.00  0.00     0.160 A 
HETATM    7  C   UNK N   1      28.629  17.594   4.805  0.00  0.00     0.099 A 
HETATM    8  N   UNK N   1      29.092  17.848   6.063  0.00  0.00    -0.188 N 
ATOM      9  HN  UNK N   1      28.571  18.480   6.671  1.00  0.00     0.184 HD
HETATM   10  F   UNK N   1      28.984  16.448   2.696  0.00  0.00    -0.202 F 
HETATM   11  H   UNK N   1      30.283  18.286   8.349  0.00  0.00     0.186 HD
ENDROOT
BRANCH   1  12
HETATM   12  C   UNK N   1      31.909  16.976   8.273  0.00  0.00     0.120 A 
HETATM   13  C   UNK N   1      33.105  17.700   8.373  0.00  0.00     0.050 A 
HETATM   14  C   UNK N   1      34.201  17.125   8.999  0.00  0.00     0.014 A 
HETATM   15  C   UNK N   1      34.097  15.846   9.534  0.00  0.00    -0.015 A 
HETATM   16  C   UNK N   1      32.893  15.141   9.409  0.00  0.00     0.098 A 
HETATM   17  N   UNK N   1      31.830  15.719   8.785  0.00  0.00    -0.351 N 
ATOM     18  HN  UNK N   1      30.956  15.198   8.701  1.00  0.00     0.166 HD
BRANCH  15  19
HETATM   19  C   UNK N   1      35.294  15.248  10.201  0.00  0.00     0.312 C 
BRANCH  19  20
HETATM   20  N   UNK N   1      35.067  13.898  10.727  0.00  0.00     0.096 N 
HETATM   21  C   UNK N   1      35.974  12.933  10.098  0.00  0.00     0.303 C 
HETATM   22  C   UNK N   1      36.493  11.910  11.098  0.00  0.00     0.302 C 
HETATM   23  N   UNK N   1      37.199  12.619  12.160  0.00  0.00     0.091 N 
HETATM   24  C   UNK N   1      36.327  13.563  12.882  0.00  0.00     0.302 C 
HETATM   25  C   UNK N   1      34.968  13.823  12.200  0.00  0.00     0.303 C 
BRANCH  23  26
HETATM   26  C   UNK N   1      37.664  11.623  13.109  0.00  0.00     0.268 C 
HETATM   27  C   UNK N   1      37.304  12.050  14.519  0.00  0.00     0.037 C 
ENDBRANCH  23  26
ENDBRANCH  19  20
ENDBRANCH  15  19
ENDBRANCH   1  12
BRANCH   7  28
HETATM   28  C   UNK N   1      27.368  18.229   4.365  0.00  0.00    -0.001 A 
HETATM   29  C   UNK N   1      26.137  17.554   4.503  0.00  0.00     0.046 A 
HETATM   30  C   UNK N   1      24.974  18.208   4.119  0.00  0.00     0.067 A 
HETATM   31  C   UNK N   1      25.002  19.469   3.607  0.00  0.00     0.099 A 
HETATM   32  N   UNK N   1      23.695  17.783   4.177  0.00  0.00    -0.331 N 
HETATM   33  C   UNK N   1      26.190  20.173   3.441  0.00  0.00     0.146 A 
HETATM   34  N   UNK N   1      23.751  19.877   3.327  0.00  0.00    -0.342 N 
HETATM   35  C   UNK N   1      27.385  19.544   3.833  0.00  0.00     0.058 A 
HETATM   36  F   UNK N   1      26.201  21.428   2.932  0.00  0.00    -0.204 F 
HETATM   37  C   UNK N   1      22.972  18.826   3.689  0.00  0.00     0.080 A 
ATOM     38  HN  UNK N   1      23.456  20.771   2.933  1.00  0.00     0.167 HD
HETATM   39  C   UNK N   1      21.486  18.841   3.576  0.00  0.00     0.089 C 
BRANCH  32  40
HETATM   40  C   UNK N   1      23.142  16.506   4.666  0.00  0.00     0.083 C 
HETATM   41  C   UNK N   1      23.663  16.084   6.031  0.00  0.00     0.032 C 
HETATM   42  C   UNK N   1      23.419  15.390   3.676  0.00  0.00     0.032 C 
ENDBRANCH  32  40
ENDBRANCH   7  28
TORSDOF 6
ENDMDL
MODEL 4
REMARK VINA RESULT:      -8.1      3.089     12.403
REMARK  6 active torsions:
REMARK  status: ('A' for Active; 'I' for Inactive)
REMARK    1  A    between atoms: C_2  and  N_3 
REMARK    2  A    between atoms: N_6  and  C_9 
REMARK    3  A    between atoms: C_9  and  C_10 
REMARK    4  A    between atoms: C_13  and  N_17 
REMARK       I    between atoms: N_17  and  C_18 
REMARK    5  A    between atoms: C_23  and  C_26 
REMARK    6  A    between atoms: N_36  and  C_37 
ROOT
HETATM    1  N   UNK N   1      32.174  14.704   7.185  0.00  0.00    -0.176 N 
HETATM    2  C   UNK N   1      33.038  15.349   8.103  0.00  0.00     0.684 A 
HETATM    3  N   UNK N   1      33.115  16.708   8.122  0.00  0.00    -0.199 N 
ATOM      4  HN  UNK N   1      32.498  17.251   7.516  1.00  0.00     0.183 HD
HETATM    5  C   UNK N   1      33.988  17.355   8.923  0.00  0.00     0.150 A 
HETATM    6  C   UNK N   1      34.833  16.629   9.746  0.00  0.00     0.160 A 
HETATM    7  C   UNK N   1      34.756  15.220   9.729  0.00  0.00     0.099 A 
HETATM    8  N   UNK N   1      33.860  14.616   8.896  0.00  0.00    -0.188 N 
ATOM      9  HN  UNK N   1      33.806  13.598   8.870  1.00  0.00     0.184 HD
HETATM   10  F   UNK N   1      35.714  17.301  10.527  0.00  0.00    -0.202 F 
HETATM   11  H   UNK N   1      32.183  13.723   7.100  0.00  0.00     0.186 HD
ENDROOT
BRANCH   1  12
HETATM   12  C   UNK N   1      31.298  15.478   6.391  0.00  0.00     0.120 A 
HETATM   13  C   UNK N   1      31.394  15.427   4.994  0.00  0.00     0.050 A 
HETATM   14  C   UNK N   1      30.428  16.051   4.219  0.00  0.00     0.014 A 
HETATM   15  C   UNK N   1      29.366  16.705   4.836  0.00  0.00    -0.015 A 
HETATM   16  C   UNK N   1      29.302  16.750   6.235  0.00  0.00     0.098 A 
HETATM   17  N   UNK N   1      30.264  16.138   6.978  0.00  0.00    -0.351 N 
ATOM     18  HN  UNK N   1      30.208  16.175   7.996  1.00  0.00     0.166 HD
BRANCH  15  19
HETATM   19  C   UNK N   1      28.339  17.372   3.979  0.00  0.00     0.312 C 
BRANCH  19  20
HETATM   20  N   UNK N   1      27.513  18.350   4.695  0.00  0.00     0.096 N 
HETATM   21  C   UNK N   1      27.693  19.694   4.135  0.00  0.00     0.303 C 
HETATM   22  C   UNK N   1      26.379  20.459   4.073  0.00  0.00     0.302 C 
HETATM   23  N   UNK N   1      25.444  19.707   3.242  0.00  0.00     0.091 N 
HETATM   24  C   UNK N   1      25.165  18.365   3.783  0.00  0.00     0.302 C 
HETATM   25  C   UNK N   1      26.116  17.925   4.917  0.00  0.00     0.303 C 
BRANCH  23  26
HETATM   26  C   UNK N   1      24.195  20.448   3.218  0.00  0.00     0.268 C 
HETATM   27  C   UNK N   1      23.033  19.505   3.461  0.00  0.00     0.037 C 
ENDBRANCH  23  26
ENDBRANCH  19  20
ENDBRANCH  15  19
ENDBRANCH   1  12
BRANCH   7  28
HETATM   28  C   UNK N   1      35.612  14.376  10.591  0.00  0.00    -0.001 A 
HETATM   29  C   UNK N   1      35.109  13.834  11.792  0.00  0.00     0.046 A 
HETATM   30  C   UNK N   1      35.935  13.010  12.545  0.00  0.00     0.067 A 
HETATM   31  C   UNK N   1      37.209  12.729  12.156  0.00  0.00     0.099 A 
HETATM   32  N   UNK N   1      35.674  12.365  13.701  0.00  0.00    -0.331 N 
HETATM   33  C   UNK N   1      37.755  13.248  10.986  0.00  0.00     0.146 A 
HETATM   34  N   UNK N   1      37.789  11.905  13.046  0.00  0.00    -0.342 N 
HETATM   35  C   UNK N   1      36.940  14.076  10.193  0.00  0.00     0.058 A 
HETATM   36  F   UNK N   1      39.024  12.958  10.611  0.00  0.00    -0.204 F 
HETATM   37  C   UNK N   1      36.826  11.697  13.979  0.00  0.00     0.080 A 
ATOM     38  HN  UNK N   1      38.735  11.525  13.025  1.00  0.00     0.167 HD
HETATM   39  C   UNK N   1      37.021  10.811  15.162  0.00  0.00     0.089 C 
BRANCH  32  40
HETATM   40  C   UNK N   1      34.442  12.331  14.511  0.00  0.00     0.083 C 
HETATM   41  C   UNK N   1      34.628  12.795  15.947  0.00  0.00     0.032 C 
HETATM   42  C   UNK N   1      33.853  10.932  14.527  0.00  0.00     0.032 C 
ENDBRANCH  32  40
ENDBRANCH   7  28
TORSDOF 6
ENDMDL
MODEL 5
REMARK VINA RESULT:      -8.1      5.550     13.615
REMARK  6 active torsions:
REMARK  status: ('A' for Active; 'I' for Inactive)
REMARK    1  A    between atoms: C_2  and  N_3 
REMARK    2  A    between atoms: N_6  and  C_9 
REMARK    3  A    between atoms: C_9  and  C_10 
REMARK    4  A    between atoms: C_13  and  N_17 
REMARK       I    between atoms: N_17  and  C_18 
REMARK    5  A    between atoms: C_23  and  C_26 
REMARK    6  A    between atoms: N_36  and  C_37 
ROOT
HETATM    1  N   UNK N   1      35.896  14.801  12.956  0.00  0.00    -0.176 N 
HETATM    2  C   UNK N   1      35.446  13.570  13.493  0.00  0.00     0.684 A 
HETATM    3  N   UNK N   1      34.812  12.672  12.688  0.00  0.00    -0.199 N 
ATOM      4  HN  UNK N   1      34.724  12.871  11.691  1.00  0.00     0.183 HD
HETATM    5  C   UNK N   1      34.295  11.526  13.181  0.00  0.00     0.150 A 
HETATM    6  C   UNK N   1      34.403  11.249  14.533  0.00  0.00     0.160 A 
HETATM    7  C   UNK N   1      35.060  12.178  15.369  0.00  0.00     0.099 A 
HETATM    8  N   UNK N   1      35.559  13.323  14.821  0.00  0.00    -0.188 N 
ATOM      9  HN  UNK N   1      36.026  14.003  15.421  1.00  0.00     0.184 HD
HETATM   10  F   UNK N   1      33.859  10.101  15.006  0.00  0.00    -0.202 F 
HETATM   11  H   UNK N   1      36.270  15.493  13.549  0.00  0.00     0.186 HD
ENDROOT
BRANCH   1  12
HETATM   12  C   UNK N   1      35.804  15.031  11.565  0.00  0.00     0.120 A 
HETATM   13  C   UNK N   1      36.650  14.341  10.686  0.00  0.00     0.050 A 
HETATM   14  C   UNK N   1      36.441  14.439   9.318  0.00  0.00     0.014 A 
HETATM   15  C   UNK N   1      35.386  15.206   8.836  0.00  0.00    -0.015 A 
HETATM   16  C   UNK N   1      34.564  15.895   9.737  0.00  0.00     0.098 A 
HETATM   17  N   UNK N   1      34.788  15.792  11.075  0.00  0.00    -0.351 N 
ATOM     18  HN  UNK N   1      34.183  16.296  11.724  1.00  0.00     0.166 HD
BRANCH  15  19
HETATM   19  C   UNK N   1      35.185  15.299   7.357  0.00  0.00     0.312 C 
BRANCH  19  20
HETATM   20  N   UNK N   1      33.875  15.833   6.969  0.00  0.00     0.096 N 
HETATM   21  C   UNK N   1      34.012  17.166   6.372  0.00  0.00     0.303 C 
HETATM   22  C   UNK N   1      33.072  17.354   5.190  0.00  0.00     0.302 C 
HETATM   23  N   UNK N   1      33.382  16.339   4.188  0.00  0.00     0.091 N 
HETATM   24  C   UNK N   1      33.201  14.969   4.701  0.00  0.00     0.302 C 
HETATM   25  C   UNK N   1      33.020  14.881   6.231  0.00  0.00     0.303 C 
BRANCH  23  26
HETATM   26  C   UNK N   1      32.459  16.528   3.083  0.00  0.00     0.268 C 
HETATM   27  C   UNK N   1      31.115  16.995   3.609  0.00  0.00     0.037 C 
ENDBRANCH  23  26
ENDBRANCH  19  20
ENDBRANCH  15  19
ENDBRANCH   1  12
BRANCH   7  28
HETATM   28  C   UNK N   1      35.231  11.944  16.820  0.00  0.00    -0.001 A 
HETATM   29  C   UNK N   1      35.690  10.699  17.298  0.00  0.00     0.046 A 
HETATM   30  C   UNK N   1      35.880  10.542  18.664  0.00  0.00     0.067 A 
HETATM   31  C   UNK N   1      35.623  11.552  19.541  0.00  0.00     0.099 A 
HETATM   32  N   UNK N   1      36.327   9.468  19.347  0.00  0.00    -0.331 N 
HETATM   33  C   UNK N   1      35.159  12.794  19.120  0.00  0.00     0.146 A 
HETATM   34  N   UNK N   1      35.897  11.151  20.795  0.00  0.00    -0.342 N 
HETATM   35  C   UNK N   1      34.969  12.991  17.740  0.00  0.00     0.058 A 
HETATM   36  F   UNK N   1      34.910  13.790  20.004  0.00  0.00    -0.204 F 
HETATM   37  C   UNK N   1      36.328   9.873  20.645  0.00  0.00     0.080 A 
ATOM     38  HN  UNK N   1      35.802  11.684  21.659  1.00  0.00     0.167 HD
HETATM   39  C   UNK N   1      36.772   9.028  21.790  0.00  0.00     0.089 C 
BRANCH  32  40
HETATM   40  C   UNK N   1      36.753   8.143  18.858  0.00  0.00     0.083 C 
HETATM   41  C   UNK N   1      37.818   8.193  17.774  0.00  0.00     0.032 C 
HETATM   42  C   UNK N   1      35.564   7.361  18.332  0.00  0.00     0.032 C 
ENDBRANCH  32  40
ENDBRANCH   7  28
TORSDOF 6
ENDMDL
MODEL 6
REMARK VINA RESULT:      -8.1      1.921      2.719
REMARK  6 active torsions:
REMARK  status: ('A' for Active; 'I' for Inactive)
REMARK    1  A    between atoms: C_2  and  N_3 
REMARK    2  A    between atoms: N_6  and  C_9 
REMARK    3  A    between atoms: C_9  and  C_10 
REMARK    4  A    between atoms: C_13  and  N_17 
REMARK       I    between atoms: N_17  and  C_18 
REMARK    5  A    between atoms: C_23  and  C_26 
REMARK    6  A    between atoms: N_36  and  C_37 
ROOT
HETATM    1  N   UNK N   1      31.139  16.407   5.228  0.00  0.00    -0.176 N 
HETATM    2  C   UNK N   1      30.173  17.228   5.861  0.00  0.00     0.684 A 
HETATM    3  N   UNK N   1      30.268  17.478   7.197  0.00  0.00    -0.199 N 
ATOM      4  HN  UNK N   1      31.071  17.122   7.715  1.00  0.00     0.183 HD
HETATM    5  C   UNK N   1      29.321  18.185   7.850  0.00  0.00     0.150 A 
HETATM    6  C   UNK N   1      28.223  18.668   7.158  0.00  0.00     0.160 A 
HETATM    7  C   UNK N   1      28.124  18.411   5.774  0.00  0.00     0.099 A 
HETATM    8  N   UNK N   1      29.105  17.686   5.163  0.00  0.00    -0.188 N 
ATOM      9  HN  UNK N   1      29.034  17.487   4.165  1.00  0.00     0.184 HD
HETATM   10  F   UNK N   1      27.278  19.359   7.841  0.00  0.00    -0.202 F 
HETATM   11  H   UNK N   1      31.026  16.145   4.286  0.00  0.00     0.186 HD
ENDROOT
BRANCH   1  12
HETATM   12  C   UNK N   1      32.265  15.966   5.959  0.00  0.00     0.120 A 
HETATM   13  C   UNK N   1      33.330  16.845   6.198  0.00  0.00     0.050 A 
HETATM   14  C   UNK N   1      34.350  16.464   7.057  0.00  0.00     0.014 A 
HETATM   15  C   UNK N   1      34.297  15.223   7.683  0.00  0.00    -0.015 A 
HETATM   16  C   UNK N   1      33.227  14.360   7.415  0.00  0.00     0.098 A 
HETATM   17  N   UNK N   1      32.238  14.748   6.564  0.00  0.00    -0.351 N 
ATOM     18  HN  UNK N   1      31.462  14.113   6.377  1.00  0.00     0.166 HD
BRANCH  15  19
HETATM   19  C   UNK N   1      35.411  14.835   8.601  0.00  0.00     0.312 C 
BRANCH  19  20
HETATM   20  N   UNK N   1      34.981  14.028   9.748  0.00  0.00     0.096 N 
HETATM   21  C   UNK N   1      36.050  13.119  10.177  0.00  0.00     0.303 C 
HETATM   22  C   UNK N   1      36.127  13.015  11.693  0.00  0.00     0.302 C 
HETATM   23  N   UNK N   1      36.375  14.346  12.236  0.00  0.00     0.091 N 
HETATM   24  C   UNK N   1      35.303  15.299  11.898  0.00  0.00     0.302 C 
HETATM   25  C   UNK N   1      34.318  14.795  10.822  0.00  0.00     0.303 C 
BRANCH  23  26
HETATM   26  C   UNK N   1      36.423  14.221  13.682  0.00  0.00     0.268 C 
HETATM   27  C   UNK N   1      36.718  12.784  14.064  0.00  0.00     0.037 C 
ENDBRANCH  23  26
ENDBRANCH  19  20
ENDBRANCH  15  19
ENDBRANCH   1  12
BRANCH   7  28
HETATM   28  C   UNK N   1      26.991  18.909   4.963  0.00  0.00    -0.001 A 
HETATM   29  C   UNK N   1      25.692  18.395   5.152  0.00  0.00     0.046 A 
HETATM   30  C   UNK N   1      24.652  18.927   4.401  0.00  0.00     0.067 A 
HETATM   31  C   UNK N   1      24.865  19.913   3.487  0.00  0.00     0.099 A 
HETATM   32  N   UNK N   1      23.338  18.620   4.421  0.00  0.00    -0.331 N 
HETATM   33  C   UNK N   1      26.129  20.445   3.255  0.00  0.00     0.146 A 
HETATM   34  N   UNK N   1      23.702  20.258   2.906  0.00  0.00    -0.342 N 
HETATM   35  C   UNK N   1      27.202  19.938   4.010  0.00  0.00     0.058 A 
HETATM   36  F   UNK N   1      26.325  21.428   2.344  0.00  0.00    -0.204 F 
HETATM   37  C   UNK N   1      22.785  19.452   3.499  0.00  0.00     0.080 A 
ATOM     38  HN  UNK N   1      23.545  20.962   2.184  1.00  0.00     0.167 HD
HETATM   39  C   UNK N   1      21.331  19.504   3.177  0.00  0.00     0.089 C 
BRANCH  32  40
HETATM   40  C   UNK N   1      22.606  17.639   5.245  0.00  0.00     0.083 C 
HETATM   41  C   UNK N   1      21.958  16.518   4.448  0.00  0.00     0.032 C 
HETATM   42  C   UNK N   1      21.536  18.329   6.070  0.00  0.00     0.032 C 
ENDBRANCH  32  40
ENDBRANCH   7  28
TORSDOF 6
ENDMDL
MODEL 7
REMARK VINA RESULT:      -8.1      2.513      4.606
REMARK  6 active torsions:
REMARK  status: ('A' for Active; 'I' for Inactive)
REMARK    1  A    between atoms: C_2  and  N_3 
REMARK    2  A    between atoms: N_6  and  C_9 
REMARK    3  A    between atoms: C_9  and  C_10 
REMARK    4  A    between atoms: C_13  and  N_17 
REMARK       I    between atoms: N_17  and  C_18 
REMARK    5  A    between atoms: C_23  and  C_26 
REMARK    6  A    between atoms: N_36  and  C_37 
ROOT
HETATM    1  N   UNK N   1      28.418  16.920   7.009  0.00  0.00    -0.176 N 
HETATM    2  C   UNK N   1      27.898  17.742   5.980  0.00  0.00     0.684 A 
HETATM    3  N   UNK N   1      28.710  18.638   5.354  0.00  0.00    -0.199 N 
ATOM      4  HN  UNK N   1      29.702  18.663   5.590  1.00  0.00     0.183 HD
HETATM    5  C   UNK N   1      28.230  19.496   4.428  0.00  0.00     0.150 A 
HETATM    6  C   UNK N   1      26.884  19.476   4.103  0.00  0.00     0.160 A 
HETATM    7  C   UNK N   1      26.041  18.547   4.750  0.00  0.00     0.099 A 
HETATM    8  N   UNK N   1      26.575  17.707   5.683  0.00  0.00    -0.188 N 
ATOM      9  HN  UNK N   1      25.970  17.041   6.163  1.00  0.00     0.184 HD
HETATM   10  F   UNK N   1      26.425  20.360   3.184  0.00  0.00    -0.202 F 
HETATM   11  H   UNK N   1      27.819  16.338   7.530  0.00  0.00     0.186 HD
ENDROOT
BRANCH   1  12
HETATM   12  C   UNK N   1      29.804  16.941   7.285  0.00  0.00     0.120 A 
HETATM   13  C   UNK N   1      30.312  17.826   8.245  0.00  0.00     0.050 A 
HETATM   14  C   UNK N   1      31.640  17.725   8.634  0.00  0.00     0.014 A 
HETATM   15  C   UNK N   1      32.446  16.736   8.080  0.00  0.00    -0.015 A 
HETATM   16  C   UNK N   1      31.915  15.872   7.114  0.00  0.00     0.098 A 
HETATM   17  N   UNK N   1      30.612  15.991   6.739  0.00  0.00    -0.351 N 
ATOM     18  HN  UNK N   1      30.234  15.356   6.036  1.00  0.00     0.166 HD
BRANCH  15  19
HETATM   19  C   UNK N   1      33.875  16.650   8.514  0.00  0.00     0.312 C 
BRANCH  19  20
HETATM   20  N   UNK N   1      34.045  16.332   9.935  0.00  0.00     0.096 N 
HETATM   21  C   UNK N   1      33.604  14.962  10.219  0.00  0.00     0.303 C 
HETATM   22  C   UNK N   1      34.525  14.267  11.212  0.00  0.00     0.302 C 
HETATM   23  N   UNK N   1      35.871  14.238  10.652  0.00  0.00     0.091 N 
HETATM   24  C   UNK N   1      36.406  15.589  10.401  0.00  0.00     0.302 C 
HETATM   25  C   UNK N   1      35.356  16.717  10.496  0.00  0.00     0.303 C 
BRANCH  23  26
HETATM   26  C   UNK N   1      36.731  13.591  11.627  0.00  0.00     0.268 C 
HETATM   27  C   UNK N   1      36.340  14.025  13.026  0.00  0.00     0.037 C 
ENDBRANCH  23  26
ENDBRANCH  19  20
ENDBRANCH  15  19
ENDBRANCH   1  12
BRANCH   7  28
HETATM   28  C   UNK N   1      24.597  18.452   4.445  0.00  0.00    -0.001 A 
HETATM   29  C   UNK N   1      23.841  17.346   4.883  0.00  0.00     0.046 A 
HETATM   30  C   UNK N   1      22.479  17.323   4.614  0.00  0.00     0.067 A 
HETATM   31  C   UNK N   1      21.871  18.332   3.930  0.00  0.00     0.099 A 
HETATM   32  N   UNK N   1      21.557  16.396   4.947  0.00  0.00    -0.331 N 
HETATM   33  C   UNK N   1      22.574  19.439   3.468  0.00  0.00     0.146 A 
HETATM   34  N   UNK N   1      20.556  18.076   3.812  0.00  0.00    -0.342 N 
HETATM   35  C   UNK N   1      23.954  19.499   3.737  0.00  0.00     0.058 A 
HETATM   36  F   UNK N   1      21.955  20.436   2.791  0.00  0.00    -0.204 F 
HETATM   37  C   UNK N   1      20.392  16.887   4.445  0.00  0.00     0.080 A 
ATOM     38  HN  UNK N   1      19.845  18.645   3.351  1.00  0.00     0.167 HD
HETATM   39  C   UNK N   1      19.067  16.218   4.584  0.00  0.00     0.089 C 
BRANCH  32  40
HETATM   40  C   UNK N   1      21.707  15.136   5.699  0.00  0.00     0.083 C 
HETATM   41  C   UNK N   1      22.239  15.315   7.113  0.00  0.00     0.032 C 
HETATM   42  C   UNK N   1      22.620  14.178   4.956  0.00  0.00     0.032 C 
ENDBRANCH  32  40
ENDBRANCH   7  28
TORSDOF 6
ENDMDL
MODEL 8
REMARK VINA RESULT:      -7.8      1.949      2.480
REMARK  6 active torsions:
REMARK  status: ('A' for Active; 'I' for Inactive)
REMARK    1  A    between atoms: C_2  and  N_3 
REMARK    2  A    between atoms: N_6  and  C_9 
REMARK    3  A    between atoms: C_9  and  C_10 
REMARK    4  A    between atoms: C_13  and  N_17 
REMARK       I    between atoms: N_17  and  C_18 
REMARK    5  A    between atoms: C_23  and  C_26 
REMARK    6  A    between atoms: N_36  and  C_37 
ROOT
HETATM    1  N   UNK N   1      31.595  16.774   8.865  0.00  0.00    -0.176 N 
HETATM    2  C   UNK N   1      31.261  16.792   7.488  0.00  0.00     0.684 A 
HETATM    3  N   UNK N   1      32.184  16.413   6.562  0.00  0.00    -0.199 N 
ATOM      4  HN  UNK N   1      33.088  16.058   6.876  1.00  0.00     0.183 HD
HETATM    5  C   UNK N   1      31.931  16.497   5.239  0.00  0.00     0.150 A 
HETATM    6  C   UNK N   1      30.710  16.981   4.801  0.00  0.00     0.160 A 
HETATM    7  C   UNK N   1      29.751  17.375   5.759  0.00  0.00     0.099 A 
HETATM    8  N   UNK N   1      30.060  17.275   7.084  0.00  0.00    -0.188 N 
ATOM      9  HN  UNK N   1      29.376  17.568   7.782  1.00  0.00     0.184 HD
HETATM   10  F   UNK N   1      30.488  17.073   3.467  0.00  0.00    -0.202 F 
HETATM   11  H   UNK N   1      30.967  17.135   9.532  0.00  0.00     0.186 HD
ENDROOT
BRANCH   1  12
HETATM   12  C   UNK N   1      32.835  16.235   9.274  0.00  0.00     0.120 A 
HETATM   13  C   UNK N   1      33.040  14.849   9.240  0.00  0.00     0.050 A 
HETATM   14  C   UNK N   1      34.308  14.340   9.477  0.00  0.00     0.014 A 
HETATM   15  C   UNK N   1      35.364  15.209   9.728  0.00  0.00    -0.015 A 
HETATM   16  C   UNK N   1      35.128  16.589   9.768  0.00  0.00     0.098 A 
HETATM   17  N   UNK N   1      33.876  17.071   9.540  0.00  0.00    -0.351 N 
ATOM     18  HN  UNK N   1      33.714  18.078   9.569  1.00  0.00     0.166 HD
BRANCH  15  19
HETATM   19  C   UNK N   1      36.721  14.635   9.984  0.00  0.00     0.312 C 
BRANCH  19  20
HETATM   20  N   UNK N   1      36.947  14.246  11.380  0.00  0.00     0.096 N 
HETATM   21  C   UNK N   1      35.888  14.775  12.246  0.00  0.00     0.303 C 
HETATM   22  C   UNK N   1      35.479  13.771  13.315  0.00  0.00     0.302 C 
HETATM   23  N   UNK N   1      35.007  12.560  12.654  0.00  0.00     0.091 N 
HETATM   24  C   UNK N   1      36.045  11.935  11.815  0.00  0.00     0.302 C 
HETATM   25  C   UNK N   1      37.285  12.821  11.572  0.00  0.00     0.303 C 
BRANCH  23  26
HETATM   26  C   UNK N   1      34.644  11.614  13.695  0.00  0.00     0.268 C 
HETATM   27  C   UNK N   1      33.884  10.450  13.089  0.00  0.00     0.037 C 
ENDBRANCH  23  26
ENDBRANCH  19  20
ENDBRANCH  15  19
ENDBRANCH   1  12
BRANCH   7  28
HETATM   28  C   UNK N   1      28.418  17.885   5.371  0.00  0.00    -0.001 A 
HETATM   29  C   UNK N   1      27.292  17.036   5.384  0.00  0.00     0.046 A 
HETATM   30  C   UNK N   1      26.053  17.572   5.058  0.00  0.00     0.067 A 
HETATM   31  C   UNK N   1      25.910  18.883   4.718  0.00  0.00     0.099 A 
HETATM   32  N   UNK N   1      24.845  16.972   5.022  0.00  0.00    -0.331 N 
HETATM   33  C   UNK N   1      26.991  19.757   4.680  0.00  0.00     0.146 A 
HETATM   34  N   UNK N   1      24.618  19.150   4.459  0.00  0.00    -0.342 N 
HETATM   35  C   UNK N   1      28.258  19.250   5.019  0.00  0.00     0.058 A 
HETATM   36  F   UNK N   1      26.833  21.060   4.342  0.00  0.00    -0.204 F 
HETATM   37  C   UNK N   1      23.989  17.964   4.656  0.00  0.00     0.080 A 
ATOM     38  HN  UNK N   1      24.205  20.040   4.179  1.00  0.00     0.167 HD
HETATM   39  C   UNK N   1      22.517  17.791   4.504  0.00  0.00     0.089 C 
BRANCH  32  40
HETATM   40  C   UNK N   1      24.469  15.578   5.323  0.00  0.00     0.083 C 
HETATM   41  C   UNK N   1      24.860  15.114   6.718  0.00  0.00     0.032 C 
HETATM   42  C   UNK N   1      25.083  14.630   4.309  0.00  0.00     0.032 C 
ENDBRANCH  32  40
ENDBRANCH   7  28
TORSDOF 6
ENDMDL
MODEL 9
REMARK VINA RESULT:      -7.8      3.795      6.527
REMARK  6 active torsions:
REMARK  status: ('A' for Active; 'I' for Inactive)
REMARK    1  A    between atoms: C_2  and  N_3 
REMARK    2  A    between atoms: N_6  and  C_9 
REMARK    3  A    between atoms: C_9  and  C_10 
REMARK    4  A    between atoms: C_13  and  N_17 
REMARK       I    between atoms: N_17  and  C_18 
REMARK    5  A    between atoms: C_23  and  C_26 
REMARK    6  A    between atoms: N_36  and  C_37 
ROOT
HETATM    1  N   UNK N   1      27.112  17.838   4.929  0.00  0.00    -0.176 N 
HETATM    2  C   UNK N   1      25.912  17.133   5.192  0.00  0.00     0.684 A 
HETATM    3  N   UNK N   1      25.860  16.247   6.225  0.00  0.00    -0.199 N 
ATOM      4  HN  UNK N   1      26.669  16.147   6.838  1.00  0.00     0.183 HD
HETATM    5  C   UNK N   1      24.761  15.495   6.454  0.00  0.00     0.150 A 
HETATM    6  C   UNK N   1      23.659  15.617   5.626  0.00  0.00     0.160 A 
HETATM    7  C   UNK N   1      23.711  16.536   4.554  0.00  0.00     0.099 A 
HETATM    8  N   UNK N   1      24.847  17.266   4.363  0.00  0.00    -0.188 N 
ATOM      9  HN  UNK N   1      24.895  17.923   3.585  1.00  0.00     0.184 HD
HETATM   10  F   UNK N   1      22.576  14.838   5.866  0.00  0.00    -0.202 F 
HETATM   11  H   UNK N   1      27.187  18.407   4.129  0.00  0.00     0.186 HD
ENDROOT
BRANCH   1  12
HETATM   12  C   UNK N   1      28.202  17.717   5.820  0.00  0.00     0.120 A 
HETATM   13  C   UNK N   1      28.219  18.463   7.006  0.00  0.00     0.050 A 
HETATM   14  C   UNK N   1      29.200  18.215   7.955  0.00  0.00     0.014 A 
HETATM   15  C   UNK N   1      30.143  17.218   7.727  0.00  0.00    -0.015 A 
HETATM   16  C   UNK N   1      30.108  16.496   6.528  0.00  0.00     0.098 A 
HETATM   17  N   UNK N   1      29.143  16.758   5.605  0.00  0.00    -0.351 N 
ATOM     18  HN  UNK N   1      29.124  16.225   4.735  1.00  0.00     0.166 HD
BRANCH  15  19
HETATM   19  C   UNK N   1      31.192  16.972   8.764  0.00  0.00     0.312 C 
BRANCH  19  20
HETATM   20  N   UNK N   1      32.317  16.160   8.289  0.00  0.00     0.096 N 
HETATM   21  C   UNK N   1      33.504  16.993   8.068  0.00  0.00     0.303 C 
HETATM   22  C   UNK N   1      34.777  16.291   8.518  0.00  0.00     0.302 C 
HETATM   23  N   UNK N   1      34.658  15.983   9.938  0.00  0.00     0.091 N 
HETATM   24  C   UNK N   1      33.520  15.092  10.227  0.00  0.00     0.302 C 
HETATM   25  C   UNK N   1      32.537  14.913   9.051  0.00  0.00     0.303 C 
BRANCH  23  26
HETATM   26  C   UNK N   1      35.875  15.296  10.335  0.00  0.00     0.268 C 
HETATM   27  C   UNK N   1      36.348  14.396   9.210  0.00  0.00     0.037 C 
ENDBRANCH  23  26
ENDBRANCH  19  20
ENDBRANCH  15  19
ENDBRANCH   1  12
BRANCH   7  28
HETATM   28  C   UNK N   1      22.568  16.736   3.637  0.00  0.00    -0.001 A 
HETATM   29  C   UNK N   1      22.121  15.687   2.806  0.00  0.00     0.046 A 
HETATM   30  C   UNK N   1      21.016  15.907   1.996  0.00  0.00     0.067 A 
HETATM   31  C   UNK N   1      20.371  17.106   1.980  0.00  0.00     0.099 A 
HETATM   32  N   UNK N   1      20.397  15.062   1.145  0.00  0.00    -0.331 N 
HETATM   33  C   UNK N   1      20.778  18.174   2.772  0.00  0.00     0.146 A 
HETATM   34  N   UNK N   1      19.333  17.057   1.126  0.00  0.00    -0.342 N 
HETATM   35  C   UNK N   1      21.888  17.980   3.615  0.00  0.00     0.058 A 
HETATM   36  F   UNK N   1      20.126  19.361   2.746  0.00  0.00    -0.204 F 
HETATM   37  C   UNK N   1      19.372  15.793   0.632  0.00  0.00     0.080 A 
ATOM     38  HN  UNK N   1      18.670  17.798   0.900  1.00  0.00     0.167 HD
HETATM   39  C   UNK N   1      18.377  15.275  -0.350  0.00  0.00     0.089 C 
BRANCH  32  40
HETATM   40  C   UNK N   1      20.698  13.654   0.821  0.00  0.00     0.083 C 
HETATM   41  C   UNK N   1      20.328  12.670   1.920  0.00  0.00     0.032 C 
HETATM   42  C   UNK N   1      22.171  13.486   0.495  0.00  0.00     0.032 C 
ENDBRANCH  32  40
ENDBRANCH   7  28
TORSDOF 6
ENDMDL
