MODEL 1
REMARK VINA RESULT:     -10.9      0.000      0.000
REMARK  8 active torsions:
REMARK  status: ('A' for Active; 'I' for Inactive)
REMARK    1  A    between atoms: C_10  and  O_11 
REMARK       I    between atoms: N_12  and  C_17 
REMARK    2  A    between atoms: C_14  and  C_15 
REMARK    3  A    between atoms: C_17  and  C_19 
REMARK    4  A    between atoms: C_23  and  N_28 
REMARK       I    between atoms: N_28  and  C_29 
REMARK       I    between atoms: C_29  and  N_31 
REMARK    5  A    between atoms: N_31  and  C_32 
REMARK    6  A    between atoms: C_39  and  C_41 
REMARK       I    between atoms: C_41  and  N_43 
REMARK    7  A    between atoms: C_45  and  C_57 
REMARK    8  A    between atoms: C_49  and  O_56 
ROOT
HETATM    1  N   UNK N   1      33.334  13.394   5.593  0.00  0.00    -0.309 N 
HETATM    2  C   UNK N   1      34.284  12.972   6.486  0.00  0.00     0.325 C 
HETATM    3  O   UNK N   1      34.454  11.782   6.692  0.00  0.00    -0.247 OA
HETATM    4  N   UNK N   1      34.945  13.913   7.208  0.00  0.00    -0.309 N 
HETATM    5  H   UNK N   1      33.000  12.794   4.888  0.00  0.00     0.170 HD
HETATM    6  H   UNK N   1      35.018  14.777   6.743  0.00  0.00     0.170 HD
ENDROOT
BRANCH   1   7
HETATM    7  C   UNK N   1      32.842  14.732   5.714  0.00  0.00     0.037 C 
HETATM    8  C   UNK N   1      31.536  14.935   6.235  0.00  0.00     0.043 C 
HETATM    9  C   UNK N   1      30.744  15.908   5.670  0.00  0.00    -0.005 A 
HETATM   10  C   UNK N   1      29.414  16.197   5.877  0.00  0.00     0.049 A 
HETATM   11  C   UNK N   1      31.224  16.746   4.714  0.00  0.00     0.043 A 
HETATM   12  C   UNK N   1      29.152  17.231   4.982  0.00  0.00     0.102 A 
HETATM   13  N   UNK N   1      30.273  17.590   4.305  0.00  0.00    -0.351 N 
HETATM   14  H   UNK N   1      30.365  18.320   3.651  0.00  0.00     0.166 HD
HETATM   15  C   UNK N   1      32.547  16.705   4.290  0.00  0.00     0.033 C 
HETATM   16  C   UNK N   1      33.347  15.655   4.769  0.00  0.00     0.032 C 
BRANCH  12  17
HETATM   17  C   UNK N   1      28.039  18.167   5.135  0.00  0.00     0.275 C 
HETATM   18  N   UNK N   1      26.818  17.836   4.615  0.00  0.00    -0.311 N 
HETATM   19  C   UNK N   1      26.562  16.731   3.786  0.00  0.00     0.048 A 
HETATM   20  C   UNK N   1      25.589  18.553   4.893  0.00  0.00     0.143 A 
HETATM   21  C   UNK N   1      25.233  16.579   3.566  0.00  0.00    -0.011 A 
HETATM   22  C   UNK N   1      27.505  15.857   3.199  0.00  0.00     0.069 A 
HETATM   23  C   UNK N   1      24.797  15.495   2.790  0.00  0.00     0.010 A 
HETATM   24  C   UNK N   1      24.462  17.675   4.241  0.00  0.00     0.054 A 
HETATM   25  C   UNK N   1      25.707  14.625   2.235  0.00  0.00     0.077 A 
HETATM   26  C   UNK N   1      23.559  15.049   2.411  0.00  0.00    -0.033 A 
HETATM   27  N   UNK N   1      25.091  13.660   1.531  0.00  0.00    -0.362 N 
HETATM   28  C   UNK N   1      27.078  14.787   2.412  0.00  0.00     0.095 A 
HETATM   29  C   UNK N   1      23.762  13.912   1.636  0.00  0.00     0.096 A 
HETATM   30  H   UNK N   1      25.516  12.922   1.040  0.00  0.00     0.165 HD
HETATM   31  C   UNK N   1      22.241  15.640   2.757  0.00  0.00     0.050 C 
HETATM   32  O   UNK N   1      28.187  19.192   5.784  0.00  0.00    -0.265 OA
BRANCH  28  33
HETATM   33  O   UNK N   1      27.968  13.946   1.857  0.00  0.00    -0.358 OA
HETATM   34  H   UNK N   1      28.605  13.518   2.392  0.00  0.00     0.217 HD
ENDBRANCH  28  33
BRANCH  24  35
HETATM   35  C   UNK N   1      23.558  17.099   5.312  0.00  0.00     0.125 C 
HETATM   36 Cl   UNK N   1      22.187  18.202   5.569  0.00  0.00    -0.130 Cl
ENDBRANCH  24  35
ENDBRANCH  12  17
ENDBRANCH   1   7
BRANCH   4  37
HETATM   37  C   UNK N   1      35.539  13.914   8.467  0.00  0.00     0.037 A 
HETATM   38  C   UNK N   1      36.881  14.358   8.565  0.00  0.00     0.032 A 
HETATM   39  C   UNK N   1      37.509  14.462   9.813  0.00  0.00     0.032 A 
HETATM   40  C   UNK N   1      36.741  14.169  10.926  0.00  0.00     0.039 A 
HETATM   41  C   UNK N   1      35.422  13.846  10.827  0.00  0.00    -0.009 A 
HETATM   42  N   UNK N   1      37.187  13.965  12.169  0.00  0.00    -0.373 N 
HETATM   43  C   UNK N   1      34.775  13.703   9.616  0.00  0.00     0.043 A 
HETATM   44  C   UNK N   1      34.985  13.476  12.051  0.00  0.00     0.021 A 
HETATM   45  C   UNK N   1      36.120  13.501  12.863  0.00  0.00     0.199 A 
HETATM   46  H   UNK N   1      38.099  14.121  12.509  0.00  0.00     0.161 HD
BRANCH  45  47
HETATM   47  C   UNK N   1      36.321  12.300  13.684  0.00  0.00     0.251 C 
HETATM   48  O   UNK N   1      36.863  11.311  13.215  0.00  0.00    -0.270 OA
HETATM   49  N   UNK N   1      35.857  12.321  14.983  0.00  0.00    -0.315 N 
HETATM   50  C   UNK N   1      35.105  13.437  15.552  0.00  0.00     0.142 A 
HETATM   51  C   UNK N   1      36.042  11.351  15.959  0.00  0.00     0.047 A 
HETATM   52  C   UNK N   1      34.938  13.142  17.054  0.00  0.00     0.054 A 
HETATM   53  C   UNK N   1      35.569  11.799  17.168  0.00  0.00    -0.011 A 
HETATM   54  C   UNK N   1      35.727  11.013  18.297  0.00  0.00     0.010 A 
HETATM   55  C   UNK N   1      36.324   9.787  18.200  0.00  0.00     0.077 A 
HETATM   56  C   UNK N   1      35.398  11.197  19.616  0.00  0.00    -0.033 A 
HETATM   57  C   UNK N   1      36.794   9.287  16.972  0.00  0.00     0.095 A 
HETATM   58  N   UNK N   1      36.382   9.189  19.405  0.00  0.00    -0.362 N 
HETATM   59  C   UNK N   1      36.663  10.094  15.823  0.00  0.00     0.069 A 
HETATM   60  C   UNK N   1      35.816  10.055  20.286  0.00  0.00     0.096 A 
HETATM   61  H   UNK N   1      36.758   8.301  19.607  0.00  0.00     0.165 HD
HETATM   62  C   UNK N   1      34.741  12.382  20.236  0.00  0.00     0.050 C 
BRANCH  52  63
HETATM   63  C   UNK N   1      35.687  14.188  17.863  0.00  0.00     0.125 C 
HETATM   64 Cl   UNK N   1      36.813  15.076  16.804  0.00  0.00    -0.130 Cl
ENDBRANCH  52  63
BRANCH  57  65
HETATM   65  O   UNK N   1      37.366   8.076  16.892  0.00  0.00    -0.358 OA
HETATM   66  H   UNK N   1      37.400   7.516  17.643  0.00  0.00     0.217 HD
ENDBRANCH  57  65
ENDBRANCH  45  47
ENDBRANCH   4  37
TORSDOF 8
ENDMDL
MODEL 2
REMARK VINA RESULT:     -10.8      2.299      2.900
REMARK  8 active torsions:
REMARK  status: ('A' for Active; 'I' for Inactive)
REMARK    1  A    between atoms: C_10  and  O_11 
REMARK       I    between atoms: N_12  and  C_17 
REMARK    2  A    between atoms: C_14  and  C_15 
REMARK    3  A    between atoms: C_17  and  C_19 
REMARK    4  A    between atoms: C_23  and  N_28 
REMARK       I    between atoms: N_28  and  C_29 
REMARK       I    between atoms: C_29  and  N_31 
REMARK    5  A    between atoms: N_31  and  C_32 
REMARK    6  A    between atoms: C_39  and  C_41 
REMARK       I    between atoms: C_41  and  N_43 
REMARK    7  A    between atoms: C_45  and  C_57 
REMARK    8  A    between atoms: C_49  and  O_56 
ROOT
HETATM    1  N   UNK N   1      34.672  15.311   4.919  0.00  0.00    -0.309 N 
HETATM    2  C   UNK N   1      35.346  14.591   5.872  0.00  0.00     0.325 C 
HETATM    3  O   UNK N   1      35.998  13.609   5.559  0.00  0.00    -0.247 OA
HETATM    4  N   UNK N   1      35.176  14.938   7.173  0.00  0.00    -0.309 N 
HETATM    5  H   UNK N   1      34.933  15.265   3.971  0.00  0.00     0.170 HD
HETATM    6  H   UNK N   1      34.967  15.891   7.296  0.00  0.00     0.170 HD
ENDROOT
BRANCH   1   7
HETATM    7  C   UNK N   1      33.580  16.133   5.343  0.00  0.00     0.037 C 
HETATM    8  C   UNK N   1      32.467  15.516   5.974  0.00  0.00     0.043 C 
HETATM    9  C   UNK N   1      31.203  15.968   5.672  0.00  0.00    -0.005 A 
HETATM   10  C   UNK N   1      29.974  15.452   6.017  0.00  0.00     0.049 A 
HETATM   11  C   UNK N   1      31.009  17.055   4.881  0.00  0.00     0.043 A 
HETATM   12  C   UNK N   1      29.066  16.289   5.372  0.00  0.00     0.102 A 
HETATM   13  N   UNK N   1      29.705  17.291   4.714  0.00  0.00    -0.351 N 
HETATM   14  H   UNK N   1      29.293  18.035   4.219  0.00  0.00     0.166 HD
HETATM   15  C   UNK N   1      32.067  17.801   4.375  0.00  0.00     0.033 C 
HETATM   16  C   UNK N   1      33.365  17.302   4.578  0.00  0.00     0.032 C 
BRANCH  12  17
HETATM   17  C   UNK N   1      27.670  16.435   5.782  0.00  0.00     0.275 C 
HETATM   18  N   UNK N   1      26.732  15.592   5.255  0.00  0.00    -0.311 N 
HETATM   19  C   UNK N   1      26.957  14.683   4.207  0.00  0.00     0.048 A 
HETATM   20  C   UNK N   1      25.372  15.473   5.742  0.00  0.00     0.143 A 
HETATM   21  C   UNK N   1      25.882  13.878   4.016  0.00  0.00    -0.011 A 
HETATM   22  C   UNK N   1      28.108  14.571   3.395  0.00  0.00     0.069 A 
HETATM   23  C   UNK N   1      25.952  12.882   3.032  0.00  0.00     0.010 A 
HETATM   24  C   UNK N   1      24.775  14.252   4.956  0.00  0.00     0.054 A 
HETATM   25  C   UNK N   1      27.079  12.748   2.254  0.00  0.00     0.077 A 
HETATM   26  C   UNK N   1      25.081  11.910   2.615  0.00  0.00    -0.033 A 
HETATM   27  N   UNK N   1      26.948  11.740   1.375  0.00  0.00    -0.362 N 
HETATM   28  C   UNK N   1      28.177  13.591   2.403  0.00  0.00     0.095 A 
HETATM   29  C   UNK N   1      25.717  11.214   1.593  0.00  0.00     0.096 A 
HETATM   30  H   UNK N   1      27.609  11.444   0.710  0.00  0.00     0.165 HD
HETATM   31  C   UNK N   1      23.722  11.628   3.144  0.00  0.00     0.050 C 
HETATM   32  O   UNK N   1      27.369  17.251   6.642  0.00  0.00    -0.265 OA
BRANCH  28  33
HETATM   33  O   UNK N   1      29.271  13.472   1.632  0.00  0.00    -0.358 OA
HETATM   34  H   UNK N   1      29.826  12.723   1.719  0.00  0.00     0.217 HD
ENDBRANCH  28  33
BRANCH  24  35
HETATM   35  C   UNK N   1      24.482  13.108   5.906  0.00  0.00     0.125 C 
HETATM   36 Cl   UNK N   1      25.033  13.551   7.537  0.00  0.00    -0.130 Cl
ENDBRANCH  24  35
ENDBRANCH  12  17
ENDBRANCH   1   7
BRANCH   4  37
HETATM   37  C   UNK N   1      35.234  14.230   8.371  0.00  0.00     0.037 A 
HETATM   38  C   UNK N   1      34.278  13.205   8.581  0.00  0.00     0.032 A 
HETATM   39  C   UNK N   1      34.334  12.402   9.727  0.00  0.00     0.032 A 
HETATM   40  C   UNK N   1      35.388  12.623  10.596  0.00  0.00     0.039 A 
HETATM   41  C   UNK N   1      36.360  13.539  10.330  0.00  0.00    -0.009 A 
HETATM   42  N   UNK N   1      35.503  12.157  11.843  0.00  0.00    -0.373 N 
HETATM   43  C   UNK N   1      36.326  14.370   9.229  0.00  0.00     0.043 A 
HETATM   44  C   UNK N   1      37.162  13.630  11.414  0.00  0.00     0.021 A 
HETATM   45  C   UNK N   1      36.572  12.801  12.370  0.00  0.00     0.199 A 
HETATM   46  H   UNK N   1      34.931  11.487  12.285  0.00  0.00     0.161 HD
BRANCH  45  47
HETATM   47  C   UNK N   1      36.406  13.406  13.698  0.00  0.00     0.251 C 
HETATM   48  O   UNK N   1      36.398  14.620  13.830  0.00  0.00    -0.270 OA
HETATM   49  N   UNK N   1      36.288  12.562  14.783  0.00  0.00    -0.315 N 
HETATM   50  C   UNK N   1      36.403  11.108  14.687  0.00  0.00     0.142 A 
HETATM   51  C   UNK N   1      36.009  12.913  16.097  0.00  0.00     0.047 A 
HETATM   52  C   UNK N   1      36.033  10.541  16.071  0.00  0.00     0.054 A 
HETATM   53  C   UNK N   1      35.814  11.787  16.857  0.00  0.00    -0.011 A 
HETATM   54  C   UNK N   1      35.447  11.914  18.186  0.00  0.00     0.010 A 
HETATM   55  C   UNK N   1      35.309  13.155  18.742  0.00  0.00     0.077 A 
HETATM   56  C   UNK N   1      35.156  11.000  19.167  0.00  0.00    -0.033 A 
HETATM   57  C   UNK N   1      35.529  14.329  17.999  0.00  0.00     0.095 A 
HETATM   58  N   UNK N   1      34.947  13.060  20.035  0.00  0.00    -0.362 N 
HETATM   59  C   UNK N   1      35.875  14.207  16.636  0.00  0.00     0.069 A 
HETATM   60  C   UNK N   1      34.845  11.731  20.304  0.00  0.00     0.096 A 
HETATM   61  H   UNK N   1      34.787  13.804  20.661  0.00  0.00     0.165 HD
HETATM   62  C   UNK N   1      35.150   9.514  19.055  0.00  0.00     0.050 C 
BRANCH  52  63
HETATM   63  C   UNK N   1      34.762   9.716  15.957  0.00  0.00     0.125 C 
HETATM   64 Cl   UNK N   1      33.668  10.456  14.761  0.00  0.00    -0.130 Cl
ENDBRANCH  52  63
BRANCH  57  65
HETATM   65  O   UNK N   1      35.403  15.539  18.564  0.00  0.00    -0.358 OA
HETATM   66  H   UNK N   1      34.554  15.898  18.734  0.00  0.00     0.217 HD
ENDBRANCH  57  65
ENDBRANCH  45  47
ENDBRANCH   4  37
TORSDOF 8
ENDMDL
MODEL 3
REMARK VINA RESULT:     -10.8      5.862     10.515
REMARK  8 active torsions:
REMARK  status: ('A' for Active; 'I' for Inactive)
REMARK    1  A    between atoms: C_10  and  O_11 
REMARK       I    between atoms: N_12  and  C_17 
REMARK    2  A    between atoms: C_14  and  C_15 
REMARK    3  A    between atoms: C_17  and  C_19 
REMARK    4  A    between atoms: C_23  and  N_28 
REMARK       I    between atoms: N_28  and  C_29 
REMARK       I    between atoms: C_29  and  N_31 
REMARK    5  A    between atoms: N_31  and  C_32 
REMARK    6  A    between atoms: C_39  and  C_41 
REMARK       I    between atoms: C_41  and  N_43 
REMARK    7  A    between atoms: C_45  and  C_57 
REMARK    8  A    between atoms: C_49  and  O_56 
ROOT
HETATM    1  N   UNK N   1      22.058  20.604   2.761  0.00  0.00    -0.309 N 
HETATM    2  C   UNK N   1      23.400  20.382   2.929  0.00  0.00     0.325 C 
HETATM    3  O   UNK N   1      24.213  20.928   2.203  0.00  0.00    -0.247 OA
HETATM    4  N   UNK N   1      23.784  19.458   3.847  0.00  0.00    -0.309 N 
HETATM    5  H   UNK N   1      21.732  21.409   2.297  0.00  0.00     0.170 HD
HETATM    6  H   UNK N   1      23.146  19.361   4.589  0.00  0.00     0.170 HD
ENDROOT
BRANCH   1   7
HETATM    7  C   UNK N   1      21.143  19.635   3.281  0.00  0.00     0.037 C 
HETATM    8  C   UNK N   1      21.410  19.057   4.551  0.00  0.00     0.043 C 
HETATM    9  C   UNK N   1      21.159  17.716   4.732  0.00  0.00    -0.005 A 
HETATM   10  C   UNK N   1      21.469  16.894   5.792  0.00  0.00     0.049 A 
HETATM   11  C   UNK N   1      20.560  16.971   3.768  0.00  0.00     0.043 A 
HETATM   12  C   UNK N   1      21.031  15.638   5.381  0.00  0.00     0.102 A 
HETATM   13  N   UNK N   1      20.439  15.700   4.160  0.00  0.00    -0.351 N 
HETATM   14  H   UNK N   1      20.009  14.963   3.669  0.00  0.00     0.166 HD
HETATM   15  C   UNK N   1      20.121  17.523   2.570  0.00  0.00     0.033 C 
HETATM   16  C   UNK N   1      20.459  18.862   2.314  0.00  0.00     0.032 C 
BRANCH  12  17
HETATM   17  C   UNK N   1      20.725  14.547   6.306  0.00  0.00     0.275 C 
HETATM   18  N   UNK N   1      21.444  13.387   6.225  0.00  0.00    -0.311 N 
HETATM   19  C   UNK N   1      22.360  13.071   5.207  0.00  0.00     0.048 A 
HETATM   20  C   UNK N   1      21.406  12.329   7.215  0.00  0.00     0.143 A 
HETATM   21  C   UNK N   1      23.029  11.925   5.488  0.00  0.00    -0.011 A 
HETATM   22  C   UNK N   1      22.599  13.783   4.010  0.00  0.00     0.069 A 
HETATM   23  C   UNK N   1      24.015  11.484   4.593  0.00  0.00     0.010 A 
HETATM   24  C   UNK N   1      22.538  11.334   6.776  0.00  0.00     0.054 A 
HETATM   25  C   UNK N   1      24.273  12.184   3.438  0.00  0.00     0.077 A 
HETATM   26  C   UNK N   1      24.871  10.414   4.592  0.00  0.00    -0.033 A 
HETATM   27  N   UNK N   1      25.247  11.601   2.721  0.00  0.00    -0.362 N 
HETATM   28  C   UNK N   1      23.568  13.339   3.109  0.00  0.00     0.095 A 
HETATM   29  C   UNK N   1      25.626  10.507   3.428  0.00  0.00     0.096 A 
HETATM   30  H   UNK N   1      25.612  11.904   1.859  0.00  0.00     0.165 HD
HETATM   31  C   UNK N   1      24.995   9.355   5.626  0.00  0.00     0.050 C 
HETATM   32  O   UNK N   1      19.890  14.707   7.184  0.00  0.00    -0.265 OA
BRANCH  28  33
HETATM   33  O   UNK N   1      23.808  14.015   1.972  0.00  0.00    -0.358 OA
HETATM   34  H   UNK N   1      23.883  13.554   1.161  0.00  0.00     0.217 HD
ENDBRANCH  28  33
BRANCH  24  35
HETATM   35  C   UNK N   1      23.650  11.315   7.804  0.00  0.00     0.125 C 
HETATM   36 Cl   UNK N   1      22.944  11.489   9.427  0.00  0.00    -0.130 Cl
ENDBRANCH  24  35
ENDBRANCH  12  17
ENDBRANCH   1   7
BRANCH   4  37
HETATM   37  C   UNK N   1      24.889  18.618   3.959  0.00  0.00     0.037 A 
HETATM   38  C   UNK N   1      24.747  17.276   3.529  0.00  0.00     0.032 A 
HETATM   39  C   UNK N   1      25.843  16.404   3.539  0.00  0.00     0.032 A 
HETATM   40  C   UNK N   1      27.061  16.934   3.929  0.00  0.00     0.039 A 
HETATM   41  C   UNK N   1      27.207  18.252   4.239  0.00  0.00    -0.009 A 
HETATM   42  N   UNK N   1      28.164  16.248   4.244  0.00  0.00    -0.373 N 
HETATM   43  C   UNK N   1      26.148  19.136   4.271  0.00  0.00     0.043 A 
HETATM   44  C   UNK N   1      28.458  18.438   4.715  0.00  0.00     0.021 A 
HETATM   45  C   UNK N   1      29.018  17.161   4.766  0.00  0.00     0.199 A 
HETATM   46  H   UNK N   1      28.321  15.283   4.122  0.00  0.00     0.161 HD
BRANCH  45  47
HETATM   47  C   UNK N   1      29.673  16.821   6.036  0.00  0.00     0.251 C 
HETATM   48  O   UNK N   1      29.040  16.820   7.080  0.00  0.00    -0.270 OA
HETATM   49  N   UNK N   1      31.022  16.530   6.010  0.00  0.00    -0.315 N 
HETATM   50  C   UNK N   1      31.843  16.627   4.805  0.00  0.00     0.142 A 
HETATM   51  C   UNK N   1      31.806  16.076   7.062  0.00  0.00     0.047 A 
HETATM   52  C   UNK N   1      33.226  16.051   5.162  0.00  0.00     0.054 A 
HETATM   53  C   UNK N   1      33.060  15.749   6.611  0.00  0.00    -0.011 A 
HETATM   54  C   UNK N   1      33.980  15.200   7.488  0.00  0.00     0.010 A 
HETATM   55  C   UNK N   1      33.648  15.011   8.800  0.00  0.00     0.077 A 
HETATM   56  C   UNK N   1      35.268  14.752   7.332  0.00  0.00    -0.033 A 
HETATM   57  C   UNK N   1      32.380  15.360   9.300  0.00  0.00     0.095 A 
HETATM   58  N   UNK N   1      34.675  14.466   9.479  0.00  0.00    -0.362 N 
HETATM   59  C   UNK N   1      31.428  15.894   8.407  0.00  0.00     0.069 A 
HETATM   60  C   UNK N   1      35.679  14.299   8.578  0.00  0.00     0.096 A 
HETATM   61  H   UNK N   1      34.695  14.236  10.436  0.00  0.00     0.165 HD
HETATM   62  C   UNK N   1      36.080  14.729   6.083  0.00  0.00     0.050 C 
BRANCH  52  63
HETATM   63  C   UNK N   1      33.477  14.791   4.350  0.00  0.00     0.125 C 
HETATM   64 Cl   UNK N   1      33.802  15.224   2.652  0.00  0.00    -0.130 Cl
ENDBRANCH  52  63
BRANCH  57  65
HETATM   65  O   UNK N   1      32.074  15.181  10.595  0.00  0.00    -0.358 OA
HETATM   66  H   UNK N   1      31.222  15.403  10.917  0.00  0.00     0.217 HD
ENDBRANCH  57  65
ENDBRANCH  45  47
ENDBRANCH   4  37
TORSDOF 8
ENDMDL
MODEL 4
REMARK VINA RESULT:     -10.6      3.377     15.957
REMARK  8 active torsions:
REMARK  status: ('A' for Active; 'I' for Inactive)
REMARK    1  A    between atoms: C_10  and  O_11 
REMARK       I    between atoms: N_12  and  C_17 
REMARK    2  A    between atoms: C_14  and  C_15 
REMARK    3  A    between atoms: C_17  and  C_19 
REMARK    4  A    between atoms: C_23  and  N_28 
REMARK       I    between atoms: N_28  and  C_29 
REMARK       I    between atoms: C_29  and  N_31 
REMARK    5  A    between atoms: N_31  and  C_32 
REMARK    6  A    between atoms: C_39  and  C_41 
REMARK       I    between atoms: C_41  and  N_43 
REMARK    7  A    between atoms: C_45  and  C_57 
REMARK    8  A    between atoms: C_49  and  O_56 
ROOT
HETATM    1  N   UNK N   1      31.025  17.729   9.060  0.00  0.00    -0.309 N 
HETATM    2  C   UNK N   1      29.776  17.691   8.497  0.00  0.00     0.325 C 
HETATM    3  O   UNK N   1      28.780  17.772   9.196  0.00  0.00    -0.247 OA
HETATM    4  N   UNK N   1      29.683  17.452   7.164  0.00  0.00    -0.309 N 
HETATM    5  H   UNK N   1      31.168  18.124   9.950  0.00  0.00     0.170 HD
HETATM    6  H   UNK N   1      30.470  17.761   6.659  0.00  0.00     0.170 HD
ENDROOT
BRANCH   1   7
HETATM    7  C   UNK N   1      32.117  17.178   8.316  0.00  0.00     0.037 C 
HETATM    8  C   UNK N   1      32.240  15.765   8.230  0.00  0.00     0.043 C 
HETATM    9  C   UNK N   1      33.495  15.207   8.302  0.00  0.00    -0.005 A 
HETATM   10  C   UNK N   1      33.871  13.886   8.399  0.00  0.00     0.049 A 
HETATM   11  C   UNK N   1      34.613  15.978   8.337  0.00  0.00     0.043 A 
HETATM   12  C   UNK N   1      35.258  13.939   8.507  0.00  0.00     0.102 A 
HETATM   13  N   UNK N   1      35.708  15.218   8.426  0.00  0.00    -0.351 N 
HETATM   14  H   UNK N   1      36.645  15.521   8.430  0.00  0.00     0.166 HD
HETATM   15  C   UNK N   1      34.560  17.364   8.250  0.00  0.00     0.033 C 
HETATM   16  C   UNK N   1      33.291  17.965   8.283  0.00  0.00     0.032 C 
BRANCH  12  17
HETATM   17  C   UNK N   1      36.137  12.816   8.182  0.00  0.00     0.275 C 
HETATM   18  N   UNK N   1      36.749  12.137   9.199  0.00  0.00    -0.311 N 
HETATM   19  C   UNK N   1      36.747  12.526  10.549  0.00  0.00     0.048 A 
HETATM   20  C   UNK N   1      37.449  10.878   9.037  0.00  0.00     0.143 A 
HETATM   21  C   UNK N   1      37.301  11.570  11.336  0.00  0.00    -0.011 A 
HETATM   22  C   UNK N   1      36.274  13.740  11.097  0.00  0.00     0.069 A 
HETATM   23  C   UNK N   1      37.342  11.778  12.722  0.00  0.00     0.010 A 
HETATM   24  C   UNK N   1      37.784  10.421  10.502  0.00  0.00     0.054 A 
HETATM   25  C   UNK N   1      36.860  12.946  13.267  0.00  0.00     0.077 A 
HETATM   26  C   UNK N   1      37.792  11.023  13.772  0.00  0.00    -0.033 A 
HETATM   27  N   UNK N   1      36.990  12.950  14.604  0.00  0.00    -0.362 N 
HETATM   28  C   UNK N   1      36.328  13.959  12.474  0.00  0.00     0.095 A 
HETATM   29  C   UNK N   1      37.563  11.764  14.927  0.00  0.00     0.096 A 
HETATM   30  H   UNK N   1      36.724  13.667  15.223  0.00  0.00     0.165 HD
HETATM   31  C   UNK N   1      38.400   9.669  13.716  0.00  0.00     0.050 C 
HETATM   32  O   UNK N   1      36.255  12.449   7.022  0.00  0.00    -0.265 OA
BRANCH  28  33
HETATM   33  O   UNK N   1      35.872  15.107  13.003  0.00  0.00    -0.358 OA
HETATM   34  H   UNK N   1      36.334  15.908  12.854  0.00  0.00     0.217 HD
ENDBRANCH  28  33
BRANCH  24  35
HETATM   35  C   UNK N   1      37.018   9.160  10.848  0.00  0.00     0.125 C 
HETATM   36 Cl   UNK N   1      35.276   9.514  10.823  0.00  0.00    -0.130 Cl
ENDBRANCH  24  35
ENDBRANCH  12  17
ENDBRANCH   1   7
BRANCH   4  37
HETATM   37  C   UNK N   1      28.712  16.863   6.359  0.00  0.00     0.037 A 
HETATM   38  C   UNK N   1      29.138  16.209   5.177  0.00  0.00     0.032 A 
HETATM   39  C   UNK N   1      28.220  15.526   4.369  0.00  0.00     0.032 A 
HETATM   40  C   UNK N   1      26.910  15.478   4.813  0.00  0.00     0.039 A 
HETATM   41  C   UNK N   1      26.533  16.019   6.004  0.00  0.00    -0.009 A 
HETATM   42  N   UNK N   1      25.842  15.104   4.101  0.00  0.00    -0.373 N 
HETATM   43  C   UNK N   1      27.398  16.725   6.814  0.00  0.00     0.043 A 
HETATM   44  C   UNK N   1      25.186  15.944   6.094  0.00  0.00     0.021 A 
HETATM   45  C   UNK N   1      24.771  15.423   4.868  0.00  0.00     0.199 A 
HETATM   46  H   UNK N   1      25.836  14.685   3.210  0.00  0.00     0.161 HD
BRANCH  45  47
HETATM   47  C   UNK N   1      23.675  16.156   4.221  0.00  0.00     0.251 C 
HETATM   48  O   UNK N   1      23.613  17.374   4.298  0.00  0.00    -0.270 OA
HETATM   49  N   UNK N   1      22.714  15.426   3.553  0.00  0.00    -0.315 N 
HETATM   50  C   UNK N   1      22.685  13.965   3.530  0.00  0.00     0.142 A 
HETATM   51  C   UNK N   1      21.668  15.917   2.783  0.00  0.00     0.047 A 
HETATM   52  C   UNK N   1      21.576  13.558   2.541  0.00  0.00     0.054 A 
HETATM   53  C   UNK N   1      21.019  14.884   2.152  0.00  0.00    -0.011 A 
HETATM   54  C   UNK N   1      19.989  15.162   1.270  0.00  0.00     0.010 A 
HETATM   55  C   UNK N   1      19.603  16.454   1.052  0.00  0.00     0.077 A 
HETATM   56  C   UNK N   1      19.193  14.367   0.484  0.00  0.00    -0.033 A 
HETATM   57  C   UNK N   1      20.229  17.533   1.703  0.00  0.00     0.095 A 
HETATM   58  N   UNK N   1      18.594  16.507   0.163  0.00  0.00    -0.362 N 
HETATM   59  C   UNK N   1      21.298  17.261   2.582  0.00  0.00     0.069 A 
HETATM   60  C   UNK N   1      18.337  15.222  -0.196  0.00  0.00     0.096 A 
HETATM   61  H   UNK N   1      18.133  17.315  -0.161  0.00  0.00     0.165 HD
HETATM   62  C   UNK N   1      19.231  12.883   0.354  0.00  0.00     0.050 C 
BRANCH  52  63
HETATM   63  C   UNK N   1      22.194  12.838   1.354  0.00  0.00     0.125 C 
HETATM   64 Cl   UNK N   1      23.361  13.911   0.539  0.00  0.00    -0.130 Cl
ENDBRANCH  52  63
BRANCH  57  65
HETATM   65  O   UNK N   1      19.829  18.796   1.489  0.00  0.00    -0.358 OA
HETATM   66  H   UNK N   1      20.289  19.513   1.878  0.00  0.00     0.217 HD
ENDBRANCH  57  65
ENDBRANCH  45  47
ENDBRANCH   4  37
TORSDOF 8
ENDMDL
MODEL 5
REMARK VINA RESULT:     -10.5      3.028     14.853
REMARK  8 active torsions:
REMARK  status: ('A' for Active; 'I' for Inactive)
REMARK    1  A    between atoms: C_10  and  O_11 
REMARK       I    between atoms: N_12  and  C_17 
REMARK    2  A    between atoms: C_14  and  C_15 
REMARK    3  A    between atoms: C_17  and  C_19 
REMARK    4  A    between atoms: C_23  and  N_28 
REMARK       I    between atoms: N_28  and  C_29 
REMARK       I    between atoms: C_29  and  N_31 
REMARK    5  A    between atoms: N_31  and  C_32 
REMARK    6  A    between atoms: C_39  and  C_41 
REMARK       I    between atoms: C_41  and  N_43 
REMARK    7  A    between atoms: C_45  and  C_57 
REMARK    8  A    between atoms: C_49  and  O_56 
ROOT
HETATM    1  N   UNK N   1      34.562  17.193   6.228  0.00  0.00    -0.309 N 
HETATM    2  C   UNK N   1      33.485  17.093   5.387  0.00  0.00     0.325 C 
HETATM    3  O   UNK N   1      33.294  17.932   4.523  0.00  0.00    -0.247 OA
HETATM    4  N   UNK N   1      32.586  16.102   5.617  0.00  0.00    -0.309 N 
HETATM    5  H   UNK N   1      35.352  17.725   5.978  0.00  0.00     0.170 HD
HETATM    6  H   UNK N   1      32.983  15.311   6.047  0.00  0.00     0.170 HD
ENDROOT
BRANCH   1   7
HETATM    7  C   UNK N   1      34.508  16.502   7.480  0.00  0.00     0.037 C 
HETATM    8  C   UNK N   1      35.106  15.216   7.575  0.00  0.00     0.043 C 
HETATM    9  C   UNK N   1      34.465  14.244   8.308  0.00  0.00    -0.005 A 
HETATM   10  C   UNK N   1      34.743  12.901   8.429  0.00  0.00     0.049 A 
HETATM   11  C   UNK N   1      33.346  14.520   9.027  0.00  0.00     0.043 A 
HETATM   12  C   UNK N   1      33.719  12.418   9.240  0.00  0.00     0.102 A 
HETATM   13  N   UNK N   1      32.893  13.420   9.637  0.00  0.00    -0.351 N 
HETATM   14  H   UNK N   1      32.123  13.352  10.246  0.00  0.00     0.166 HD
HETATM   15  C   UNK N   1      32.815  15.802   9.108  0.00  0.00     0.033 C 
HETATM   16  C   UNK N   1      33.384  16.790   8.287  0.00  0.00     0.032 C 
BRANCH  12  17
HETATM   17  C   UNK N   1      33.818  11.181  10.014  0.00  0.00     0.275 C 
HETATM   18  N   UNK N   1      34.367  11.225  11.266  0.00  0.00    -0.311 N 
HETATM   19  C   UNK N   1      35.011  12.339  11.830  0.00  0.00     0.048 A 
HETATM   20  C   UNK N   1      34.315  10.136  12.221  0.00  0.00     0.143 A 
HETATM   21  C   UNK N   1      35.306  12.126  13.137  0.00  0.00    -0.011 A 
HETATM   22  C   UNK N   1      35.363  13.548  11.189  0.00  0.00     0.069 A 
HETATM   23  C   UNK N   1      35.916  13.157  13.867  0.00  0.00     0.010 A 
HETATM   24  C   UNK N   1      34.892  10.745  13.548  0.00  0.00     0.054 A 
HETATM   25  C   UNK N   1      36.239  14.347  13.257  0.00  0.00     0.077 A 
HETATM   26  C   UNK N   1      36.308  13.277  15.174  0.00  0.00    -0.033 A 
HETATM   27  N   UNK N   1      36.813  15.199  14.123  0.00  0.00    -0.362 N 
HETATM   28  C   UNK N   1      35.985  14.570  11.906  0.00  0.00     0.095 A 
HETATM   29  C   UNK N   1      36.857  14.547  15.312  0.00  0.00     0.096 A 
HETATM   30  H   UNK N   1      37.134  16.109  13.934  0.00  0.00     0.165 HD
HETATM   31  C   UNK N   1      36.174  12.266  16.254  0.00  0.00     0.050 C 
HETATM   32  O   UNK N   1      33.346  10.144   9.573  0.00  0.00    -0.265 OA
BRANCH  28  33
HETATM   33  O   UNK N   1      36.316  15.727  11.306  0.00  0.00    -0.358 OA
HETATM   34  H   UNK N   1      35.756  16.090  10.649  0.00  0.00     0.217 HD
ENDBRANCH  28  33
BRANCH  24  35
HETATM   35  C   UNK N   1      33.812  10.812  14.610  0.00  0.00     0.125 C 
HETATM   36 Cl   UNK N   1      34.306   9.825  16.003  0.00  0.00    -0.130 Cl
ENDBRANCH  24  35
ENDBRANCH  12  17
ENDBRANCH   1   7
BRANCH   4  37
HETATM   37  C   UNK N   1      31.222  15.967   5.373  0.00  0.00     0.037 A 
HETATM   38  C   UNK N   1      30.809  14.983   4.443  0.00  0.00     0.032 A 
HETATM   39  C   UNK N   1      29.448  14.741   4.215  0.00  0.00     0.032 A 
HETATM   40  C   UNK N   1      28.548  15.465   4.978  0.00  0.00     0.039 A 
HETATM   41  C   UNK N   1      28.957  16.332   5.945  0.00  0.00    -0.009 A 
HETATM   42  N   UNK N   1      27.234  15.577   4.765  0.00  0.00    -0.373 N 
HETATM   43  C   UNK N   1      30.286  16.620   6.180  0.00  0.00     0.043 A 
HETATM   44  C   UNK N   1      27.871  16.986   6.412  0.00  0.00     0.021 A 
HETATM   45  C   UNK N   1      26.813  16.542   5.618  0.00  0.00     0.199 A 
HETATM   46  H   UNK N   1      26.687  15.067   4.123  0.00  0.00     0.161 HD
BRANCH  45  47
HETATM   47  C   UNK N   1      25.962  17.605   5.067  0.00  0.00     0.251 C 
HETATM   48  O   UNK N   1      26.441  18.685   4.757  0.00  0.00    -0.270 OA
HETATM   49  N   UNK N   1      24.612  17.351   4.937  0.00  0.00    -0.315 N 
HETATM   50  C   UNK N   1      23.978  16.117   5.397  0.00  0.00     0.142 A 
HETATM   51  C   UNK N   1      23.656  18.161   4.339  0.00  0.00     0.047 A 
HETATM   52  C   UNK N   1      22.518  16.158   4.907  0.00  0.00     0.054 A 
HETATM   53  C   UNK N   1      22.456  17.499   4.263  0.00  0.00    -0.011 A 
HETATM   54  C   UNK N   1      21.383  18.102   3.628  0.00  0.00     0.010 A 
HETATM   55  C   UNK N   1      21.513  19.358   3.107  0.00  0.00     0.077 A 
HETATM   56  C   UNK N   1      20.099  17.691   3.370  0.00  0.00    -0.033 A 
HETATM   57  C   UNK N   1      22.721  20.074   3.192  0.00  0.00     0.095 A 
HETATM   58  N   UNK N   1      20.362  19.758   2.533  0.00  0.00    -0.362 N 
HETATM   59  C   UNK N   1      23.827  19.455   3.813  0.00  0.00     0.069 A 
HETATM   60  C   UNK N   1      19.485  18.732   2.688  0.00  0.00     0.096 A 
HETATM   61  H   UNK N   1      20.191  20.621   2.092  0.00  0.00     0.165 HD
HETATM   62  C   UNK N   1      19.471  16.387   3.723  0.00  0.00     0.050 C 
BRANCH  52  63
HETATM   63  C   UNK N   1      22.289  15.040   3.903  0.00  0.00     0.125 C 
HETATM   64 Cl   UNK N   1      21.605  13.618   4.731  0.00  0.00    -0.130 Cl
ENDBRANCH  52  63
BRANCH  57  65
HETATM   65  O   UNK N   1      22.828  21.313   2.687  0.00  0.00    -0.358 OA
HETATM   66  H   UNK N   1      22.123  21.924   2.773  0.00  0.00     0.217 HD
ENDBRANCH  57  65
ENDBRANCH  45  47
ENDBRANCH   4  37
TORSDOF 8
ENDMDL
MODEL 6
REMARK VINA RESULT:     -10.4      3.237     16.021
REMARK  8 active torsions:
REMARK  status: ('A' for Active; 'I' for Inactive)
REMARK    1  A    between atoms: C_10  and  O_11 
REMARK       I    between atoms: N_12  and  C_17 
REMARK    2  A    between atoms: C_14  and  C_15 
REMARK    3  A    between atoms: C_17  and  C_19 
REMARK    4  A    between atoms: C_23  and  N_28 
REMARK       I    between atoms: N_28  and  C_29 
REMARK       I    between atoms: C_29  and  N_31 
REMARK    5  A    between atoms: N_31  and  C_32 
REMARK    6  A    between atoms: C_39  and  C_41 
REMARK       I    between atoms: C_41  and  N_43 
REMARK    7  A    between atoms: C_45  and  C_57 
REMARK    8  A    between atoms: C_49  and  O_56 
ROOT
HETATM    1  N   UNK N   1      31.635  17.128   6.440  0.00  0.00    -0.309 N 
HETATM    2  C   UNK N   1      30.448  17.187   5.756  0.00  0.00     0.325 C 
HETATM    3  O   UNK N   1      29.517  17.845   6.189  0.00  0.00    -0.247 OA
HETATM    4  N   UNK N   1      30.307  16.407   4.654  0.00  0.00    -0.309 N 
HETATM    5  H   UNK N   1      31.881  17.827   7.088  0.00  0.00     0.170 HD
HETATM    6  H   UNK N   1      31.160  16.224   4.197  0.00  0.00     0.170 HD
ENDROOT
BRANCH   1   7
HETATM    7  C   UNK N   1      32.509  16.025   6.182  0.00  0.00     0.037 C 
HETATM    8  C   UNK N   1      32.299  14.810   6.888  0.00  0.00     0.043 C 
HETATM    9  C   UNK N   1      33.396  14.104   7.326  0.00  0.00    -0.005 A 
HETATM   10  C   UNK N   1      33.469  13.003   8.150  0.00  0.00     0.049 A 
HETATM   11  C   UNK N   1      34.660  14.482   6.998  0.00  0.00     0.043 A 
HETATM   12  C   UNK N   1      34.836  12.779   8.291  0.00  0.00     0.102 A 
HETATM   13  N   UNK N   1      35.557  13.660   7.551  0.00  0.00    -0.351 N 
HETATM   14  H   UNK N   1      36.535  13.687   7.443  0.00  0.00     0.166 HD
HETATM   15  C   UNK N   1      34.916  15.565   6.166  0.00  0.00     0.033 C 
HETATM   16  C   UNK N   1      33.824  16.366   5.792  0.00  0.00     0.032 C 
BRANCH  12  17
HETATM   17  C   UNK N   1      35.406  11.491   8.683  0.00  0.00     0.275 C 
HETATM   18  N   UNK N   1      35.893  11.340   9.952  0.00  0.00    -0.311 N 
HETATM   19  C   UNK N   1      36.053  12.377  10.887  0.00  0.00     0.048 A 
HETATM   20  C   UNK N   1      36.266  10.068  10.539  0.00  0.00     0.143 A 
HETATM   21  C   UNK N   1      36.405  11.890  12.103  0.00  0.00    -0.011 A 
HETATM   22  C   UNK N   1      35.910  13.765  10.669  0.00  0.00     0.069 A 
HETATM   23  C   UNK N   1      36.567  12.789  13.168  0.00  0.00     0.010 A 
HETATM   24  C   UNK N   1      36.560  10.399  12.046  0.00  0.00     0.054 A 
HETATM   25  C   UNK N   1      36.404  14.140  12.970  0.00  0.00     0.077 A 
HETATM   26  C   UNK N   1      36.880  12.630  14.491  0.00  0.00    -0.033 A 
HETATM   27  N   UNK N   1      36.600  14.827  14.108  0.00  0.00    -0.362 N 
HETATM   28  C   UNK N   1      36.085  14.665  11.720  0.00  0.00     0.095 A 
HETATM   29  C   UNK N   1      36.893  13.901  15.056  0.00  0.00     0.096 A 
HETATM   30  H   UNK N   1      36.544  15.801  14.230  0.00  0.00     0.165 HD
HETATM   31  C   UNK N   1      37.148  11.358  15.210  0.00  0.00     0.050 C 
HETATM   32  O   UNK N   1      35.374  10.547   7.907  0.00  0.00    -0.265 OA
BRANCH  28  33
HETATM   33  O   UNK N   1      35.942  15.987  11.523  0.00  0.00    -0.358 OA
HETATM   34  H   UNK N   1      35.567  16.522  12.193  0.00  0.00     0.217 HD
ENDBRANCH  28  33
BRANCH  24  35
HETATM   35  C   UNK N   1      35.537   9.729  12.941  0.00  0.00     0.125 C 
HETATM   36 Cl   UNK N   1      33.939  10.445  12.633  0.00  0.00    -0.130 Cl
ENDBRANCH  24  35
ENDBRANCH  12  17
ENDBRANCH   1   7
BRANCH   4  37
HETATM   37  C   UNK N   1      29.213  15.812   4.033  0.00  0.00     0.037 A 
HETATM   38  C   UNK N   1      29.409  15.238   2.753  0.00  0.00     0.032 A 
HETATM   39  C   UNK N   1      28.370  14.551   2.112  0.00  0.00     0.032 A 
HETATM   40  C   UNK N   1      27.183  14.418   2.811  0.00  0.00     0.039 A 
HETATM   41  C   UNK N   1      27.040  14.882   4.083  0.00  0.00    -0.009 A 
HETATM   42  N   UNK N   1      26.005  14.029   2.313  0.00  0.00    -0.373 N 
HETATM   43  C   UNK N   1      28.028  15.589   4.738  0.00  0.00     0.043 A 
HETATM   44  C   UNK N   1      25.746  14.738   4.443  0.00  0.00     0.021 A 
HETATM   45  C   UNK N   1      25.105  14.258   3.299  0.00  0.00     0.199 A 
HETATM   46  H   UNK N   1      25.830  13.654   1.419  0.00  0.00     0.161 HD
BRANCH  45  47
HETATM   47  C   UNK N   1      23.873  14.969   2.934  0.00  0.00     0.251 C 
HETATM   48  O   UNK N   1      23.796  16.181   3.059  0.00  0.00    -0.270 OA
HETATM   49  N   UNK N   1      22.807  14.222   2.475  0.00  0.00    -0.315 N 
HETATM   50  C   UNK N   1      22.814  12.762   2.415  0.00  0.00     0.142 A 
HETATM   51  C   UNK N   1      21.603  14.694   1.971  0.00  0.00     0.047 A 
HETATM   52  C   UNK N   1      21.525  12.340   1.685  0.00  0.00     0.054 A 
HETATM   53  C   UNK N   1      20.859  13.655   1.470  0.00  0.00    -0.011 A 
HETATM   54  C   UNK N   1      19.651  13.917   0.847  0.00  0.00     0.010 A 
HETATM   55  C   UNK N   1      19.191  15.201   0.758  0.00  0.00     0.077 A 
HETATM   56  C   UNK N   1      18.722  13.114   0.234  0.00  0.00    -0.033 A 
HETATM   57  C   UNK N   1      19.915  16.285   1.285  0.00  0.00     0.095 A 
HETATM   58  N   UNK N   1      18.007  15.239   0.117  0.00  0.00    -0.362 N 
HETATM   59  C   UNK N   1      21.160  16.029   1.897  0.00  0.00     0.069 A 
HETATM   60  C   UNK N   1      17.713  13.955  -0.214  0.00  0.00     0.096 A 
HETATM   61  H   UNK N   1      17.464  16.039  -0.073  0.00  0.00     0.165 HD
HETATM   62  C   UNK N   1      18.771  11.636   0.055  0.00  0.00     0.050 C 
BRANCH  52  63
HETATM   63  C   UNK N   1      21.883  11.668   0.370  0.00  0.00     0.125 C 
HETATM   64 Cl   UNK N   1      23.322  12.450  -0.334  0.00  0.00    -0.130 Cl
ENDBRANCH  52  63
BRANCH  57  65
HETATM   65  O   UNK N   1      19.442  17.539   1.202  0.00  0.00    -0.358 OA
HETATM   66  H   UNK N   1      19.989  18.233   0.892  0.00  0.00     0.217 HD
ENDBRANCH  57  65
ENDBRANCH  45  47
ENDBRANCH   4  37
TORSDOF 8
ENDMDL
MODEL 7
REMARK VINA RESULT:     -10.3      2.366      3.579
REMARK  8 active torsions:
REMARK  status: ('A' for Active; 'I' for Inactive)
REMARK    1  A    between atoms: C_10  and  O_11 
REMARK       I    between atoms: N_12  and  C_17 
REMARK    2  A    between atoms: C_14  and  C_15 
REMARK    3  A    between atoms: C_17  and  C_19 
REMARK    4  A    between atoms: C_23  and  N_28 
REMARK       I    between atoms: N_28  and  C_29 
REMARK       I    between atoms: C_29  and  N_31 
REMARK    5  A    between atoms: N_31  and  C_32 
REMARK    6  A    between atoms: C_39  and  C_41 
REMARK       I    between atoms: C_41  and  N_43 
REMARK    7  A    between atoms: C_45  and  C_57 
REMARK    8  A    between atoms: C_49  and  O_56 
ROOT
HETATM    1  N   UNK N   1      31.661  16.534   4.942  0.00  0.00    -0.309 N 
HETATM    2  C   UNK N   1      32.952  16.306   5.345  0.00  0.00     0.325 C 
HETATM    3  O   UNK N   1      33.844  16.186   4.523  0.00  0.00    -0.247 OA
HETATM    4  N   UNK N   1      33.182  16.110   6.668  0.00  0.00    -0.309 N 
HETATM    5  H   UNK N   1      31.468  16.911   4.054  0.00  0.00     0.170 HD
HETATM    6  H   UNK N   1      32.532  16.569   7.247  0.00  0.00     0.170 HD
ENDROOT
BRANCH   1   7
HETATM    7  C   UNK N   1      30.604  16.210   5.850  0.00  0.00     0.037 C 
HETATM    8  C   UNK N   1      29.543  15.382   5.395  0.00  0.00     0.043 C 
HETATM    9  C   UNK N   1      28.259  15.676   5.793  0.00  0.00    -0.005 A 
HETATM   10  C   UNK N   1      27.060  15.141   5.380  0.00  0.00     0.049 A 
HETATM   11  C   UNK N   1      28.005  16.659   6.696  0.00  0.00     0.043 A 
HETATM   12  C   UNK N   1      26.106  15.876   6.078  0.00  0.00     0.102 A 
HETATM   13  N   UNK N   1      26.691  16.774   6.912  0.00  0.00    -0.351 N 
HETATM   14  H   UNK N   1      26.242  17.380   7.544  0.00  0.00     0.166 HD
HETATM   15  C   UNK N   1      29.021  17.387   7.305  0.00  0.00     0.033 C 
HETATM   16  C   UNK N   1      30.330  17.183   6.839  0.00  0.00     0.032 C 
BRANCH  12  17
HETATM   17  C   UNK N   1      24.745  15.401   6.328  0.00  0.00     0.275 C 
HETATM   18  N   UNK N   1      23.695  16.067   5.758  0.00  0.00    -0.311 N 
HETATM   19  C   UNK N   1      23.788  17.290   5.073  0.00  0.00     0.048 A 
HETATM   20  C   UNK N   1      22.333  15.575   5.730  0.00  0.00     0.143 A 
HETATM   21  C   UNK N   1      22.608  17.615   4.487  0.00  0.00    -0.011 A 
HETATM   22  C   UNK N   1      24.911  18.142   4.976  0.00  0.00     0.069 A 
HETATM   23  C   UNK N   1      22.535  18.790   3.725  0.00  0.00     0.010 A 
HETATM   24  C   UNK N   1      21.566  16.583   4.802  0.00  0.00     0.054 A 
HETATM   25  C   UNK N   1      23.631  19.612   3.604  0.00  0.00     0.077 A 
HETATM   26  C   UNK N   1      21.534  19.377   2.998  0.00  0.00    -0.033 A 
HETATM   27  N   UNK N   1      23.357  20.681   2.837  0.00  0.00    -0.362 N 
HETATM   28  C   UNK N   1      24.839  19.321   4.233  0.00  0.00     0.095 A 
HETATM   29  C   UNK N   1      22.063  20.542   2.454  0.00  0.00     0.096 A 
HETATM   30  H   UNK N   1      23.969  21.413   2.600  0.00  0.00     0.165 HD
HETATM   31  C   UNK N   1      20.148  18.879   2.803  0.00  0.00     0.050 C 
HETATM   32  O   UNK N   1      24.564  14.379   6.974  0.00  0.00    -0.265 OA
BRANCH  28  33
HETATM   33  O   UNK N   1      25.905  20.132   4.129  0.00  0.00    -0.358 OA
HETATM   34  H   UNK N   1      26.270  20.321   3.287  0.00  0.00     0.217 HD
ENDBRANCH  28  33
BRANCH  24  35
HETATM   35  C   UNK N   1      21.112  15.890   3.533  0.00  0.00     0.125 C 
HETATM   36 Cl   UNK N   1      19.496  15.196   3.798  0.00  0.00    -0.130 Cl
ENDBRANCH  24  35
ENDBRANCH  12  17
ENDBRANCH   1   7
BRANCH   4  37
HETATM   37  C   UNK N   1      34.143  15.396   7.380  0.00  0.00     0.037 A 
HETATM   38  C   UNK N   1      35.232  14.849   6.657  0.00  0.00     0.032 A 
HETATM   39  C   UNK N   1      36.273  14.192   7.324  0.00  0.00     0.032 A 
HETATM   40  C   UNK N   1      36.209  14.159   8.706  0.00  0.00     0.039 A 
HETATM   41  C   UNK N   1      35.212  14.780   9.396  0.00  0.00    -0.009 A 
HETATM   42  N   UNK N   1      36.943  13.394   9.519  0.00  0.00    -0.373 N 
HETATM   43  C   UNK N   1      34.152  15.411   8.776  0.00  0.00     0.043 A 
HETATM   44  C   UNK N   1      35.335  14.454  10.701  0.00  0.00     0.021 A 
HETATM   45  C   UNK N   1      36.388  13.539  10.747  0.00  0.00     0.199 A 
HETATM   46  H   UNK N   1      37.722  12.842   9.277  0.00  0.00     0.161 HD
BRANCH  45  47
HETATM   47  C   UNK N   1      36.112  12.314  11.510  0.00  0.00     0.251 C 
HETATM   48  O   UNK N   1      36.118  11.225  10.958  0.00  0.00    -0.270 OA
HETATM   49  N   UNK N   1      35.824  12.441  12.854  0.00  0.00    -0.315 N 
HETATM   50  C   UNK N   1      35.697  13.729  13.531  0.00  0.00     0.142 A 
HETATM   51  C   UNK N   1      35.650  11.419  13.778  0.00  0.00     0.047 A 
HETATM   52  C   UNK N   1      35.553  13.429  15.035  0.00  0.00     0.054 A 
HETATM   53  C   UNK N   1      35.535  11.939  15.043  0.00  0.00    -0.011 A 
HETATM   54  C   UNK N   1      35.432  11.084  16.126  0.00  0.00     0.010 A 
HETATM   55  C   UNK N   1      35.415   9.731  15.932  0.00  0.00     0.077 A 
HETATM   56  C   UNK N   1      35.339  11.296  17.479  0.00  0.00    -0.033 A 
HETATM   57  C   UNK N   1      35.504   9.167  14.647  0.00  0.00     0.095 A 
HETATM   58  N   UNK N   1      35.312   9.082  17.107  0.00  0.00    -0.362 N 
HETATM   59  C   UNK N   1      35.638  10.031  13.540  0.00  0.00     0.069 A 
HETATM   60  C   UNK N   1      35.269  10.042  18.068  0.00  0.00     0.096 A 
HETATM   61  H   UNK N   1      35.275   8.107  17.242  0.00  0.00     0.165 HD
HETATM   62  C   UNK N   1      35.330  12.601  18.198  0.00  0.00     0.050 C 
BRANCH  52  63
HETATM   63  C   UNK N   1      36.757  13.981  15.780  0.00  0.00     0.125 C 
HETATM   64 Cl   UNK N   1      37.180  15.587  15.135  0.00  0.00    -0.130 Cl
ENDBRANCH  52  63
BRANCH  57  65
HETATM   65  O   UNK N   1      35.472   7.836  14.472  0.00  0.00    -0.358 OA
HETATM   66  H   UNK N   1      34.741   7.334  14.774  0.00  0.00     0.217 HD
ENDBRANCH  57  65
ENDBRANCH  45  47
ENDBRANCH   4  37
TORSDOF 8
ENDMDL
MODEL 8
REMARK VINA RESULT:     -10.3      3.059     15.646
REMARK  8 active torsions:
REMARK  status: ('A' for Active; 'I' for Inactive)
REMARK    1  A    between atoms: C_10  and  O_11 
REMARK       I    between atoms: N_12  and  C_17 
REMARK    2  A    between atoms: C_14  and  C_15 
REMARK    3  A    between atoms: C_17  and  C_19 
REMARK    4  A    between atoms: C_23  and  N_28 
REMARK       I    between atoms: N_28  and  C_29 
REMARK       I    between atoms: C_29  and  N_31 
REMARK    5  A    between atoms: N_31  and  C_32 
REMARK    6  A    between atoms: C_39  and  C_41 
REMARK       I    between atoms: C_41  and  N_43 
REMARK    7  A    between atoms: C_45  and  C_57 
REMARK    8  A    between atoms: C_49  and  O_56 
ROOT
HETATM    1  N   UNK N   1      32.909  16.797   9.346  0.00  0.00    -0.309 N 
HETATM    2  C   UNK N   1      31.948  17.377   8.558  0.00  0.00     0.325 C 
HETATM    3  O   UNK N   1      31.020  17.986   9.062  0.00  0.00    -0.247 OA
HETATM    4  N   UNK N   1      32.003  17.159   7.219  0.00  0.00    -0.309 N 
HETATM    5  H   UNK N   1      33.060  17.105  10.269  0.00  0.00     0.170 HD
HETATM    6  H   UNK N   1      32.916  17.000   6.890  0.00  0.00     0.170 HD
ENDROOT
BRANCH   1   7
HETATM    7  C   UNK N   1      33.687  15.734   8.788  0.00  0.00     0.037 C 
HETATM    8  C   UNK N   1      33.416  14.402   9.200  0.00  0.00     0.043 C 
HETATM    9  C   UNK N   1      34.474  13.545   9.398  0.00  0.00    -0.005 A 
HETATM   10  C   UNK N   1      34.497  12.277   9.935  0.00  0.00     0.049 A 
HETATM   11  C   UNK N   1      35.748  13.910   9.098  0.00  0.00     0.043 A 
HETATM   12  C   UNK N   1      35.848  11.941   9.944  0.00  0.00     0.102 A 
HETATM   13  N   UNK N   1      36.603  12.926   9.392  0.00  0.00    -0.351 N 
HETATM   14  H   UNK N   1      37.575  12.916   9.239  0.00  0.00     0.166 HD
HETATM   15  C   UNK N   1      36.051  15.141   8.530  0.00  0.00     0.033 C 
HETATM   16  C   UNK N   1      35.008  16.075   8.417  0.00  0.00     0.032 C 
BRANCH  12  17
HETATM   17  C   UNK N   1      36.337  10.563   9.990  0.00  0.00     0.275 C 
HETATM   18  N   UNK N   1      36.518   9.964  11.206  0.00  0.00    -0.311 N 
HETATM   19  C   UNK N   1      36.436  10.614  12.449  0.00  0.00     0.048 A 
HETATM   20  C   UNK N   1      36.768   8.549  11.392  0.00  0.00     0.143 A 
HETATM   21  C   UNK N   1      36.504   9.726  13.472  0.00  0.00    -0.011 A 
HETATM   22  C   UNK N   1      36.320  12.001  12.692  0.00  0.00     0.069 A 
HETATM   23  C   UNK N   1      36.396  10.203  14.787  0.00  0.00     0.010 A 
HETATM   24  C   UNK N   1      36.697   8.335  12.946  0.00  0.00     0.054 A 
HETATM   25  C   UNK N   1      36.257  11.549  15.031  0.00  0.00     0.077 A 
HETATM   26  C   UNK N   1      36.396   9.589  16.011  0.00  0.00    -0.033 A 
HETATM   27  N   UNK N   1      36.170  11.799  16.348  0.00  0.00    -0.362 N 
HETATM   28  C   UNK N   1      36.228  12.482  13.998  0.00  0.00     0.095 A 
HETATM   29  C   UNK N   1      36.252  10.593  16.963  0.00  0.00     0.096 A 
HETATM   30  H   UNK N   1      36.068  12.677  16.779  0.00  0.00     0.165 HD
HETATM   31  C   UNK N   1      36.513   8.135  16.293  0.00  0.00     0.050 C 
HETATM   32  O   UNK N   1      36.504   9.939   8.952  0.00  0.00    -0.265 OA
BRANCH  28  33
HETATM   33  O   UNK N   1      36.109  13.799  14.237  0.00  0.00    -0.358 OA
HETATM   34  H   UNK N   1      35.976  14.107  15.111  0.00  0.00     0.217 HD
ENDBRANCH  28  33
BRANCH  24  35
HETATM   35  C   UNK N   1      35.507   7.467  13.304  0.00  0.00     0.125 C 
HETATM   36 Cl   UNK N   1      34.571   7.130  11.830  0.00  0.00    -0.130 Cl
ENDBRANCH  24  35
ENDBRANCH  12  17
ENDBRANCH   1   7
BRANCH   4  37
HETATM   37  C   UNK N   1      31.041  17.112   6.214  0.00  0.00     0.037 A 
HETATM   38  C   UNK N   1      31.488  17.084   4.871  0.00  0.00     0.032 A 
HETATM   39  C   UNK N   1      30.574  16.954   3.817  0.00  0.00     0.032 A 
HETATM   40  C   UNK N   1      29.242  16.798   4.160  0.00  0.00     0.039 A 
HETATM   41  C   UNK N   1      28.836  16.719   5.457  0.00  0.00    -0.009 A 
HETATM   42  N   UNK N   1      28.192  16.901   3.340  0.00  0.00    -0.373 N 
HETATM   43  C   UNK N   1      29.700  16.873   6.523  0.00  0.00     0.043 A 
HETATM   44  C   UNK N   1      27.485  16.715   5.478  0.00  0.00     0.021 A 
HETATM   45  C   UNK N   1      27.103  16.889   4.147  0.00  0.00     0.199 A 
HETATM   46  H   UNK N   1      28.207  16.970   2.357  0.00  0.00     0.161 HD
BRANCH  45  47
HETATM   47  C   UNK N   1      26.089  17.927   3.924  0.00  0.00     0.251 C 
HETATM   48  O   UNK N   1      26.420  19.087   3.728  0.00  0.00    -0.270 OA
HETATM   49  N   UNK N   1      24.761  17.554   3.969  0.00  0.00    -0.315 N 
HETATM   50  C   UNK N   1      24.316  16.205   4.309  0.00  0.00     0.142 A 
HETATM   51  C   UNK N   1      23.655  18.340   3.674  0.00  0.00     0.047 A 
HETATM   52  C   UNK N   1      22.795  16.164   4.071  0.00  0.00     0.054 A 
HETATM   53  C   UNK N   1      22.516  17.574   3.679  0.00  0.00    -0.011 A 
HETATM   54  C   UNK N   1      21.304  18.149   3.333  0.00  0.00     0.010 A 
HETATM   55  C   UNK N   1      21.242  19.477   3.017  0.00  0.00     0.077 A 
HETATM   56  C   UNK N   1      20.032  17.648   3.216  0.00  0.00    -0.033 A 
HETATM   57  C   UNK N   1      22.386  20.295   3.029  0.00  0.00     0.095 A 
HETATM   58  N   UNK N   1      19.982  19.835   2.709  0.00  0.00    -0.362 N 
HETATM   59  C   UNK N   1      23.629  19.711   3.353  0.00  0.00     0.069 A 
HETATM   60  C   UNK N   1      19.228  18.710   2.825  0.00  0.00     0.096 A 
HETATM   61  H   UNK N   1      19.668  20.733   2.451  0.00  0.00     0.165 HD
HETATM   62  C   UNK N   1      19.580  16.247   3.441  0.00  0.00     0.050 C 
BRANCH  52  63
HETATM   63  C   UNK N   1      22.483  15.195   2.943  0.00  0.00     0.125 C 
HETATM   64 Cl   UNK N   1      23.951  14.907   1.973  0.00  0.00    -0.130 Cl
ENDBRANCH  52  63
BRANCH  57  65
HETATM   65  O   UNK N   1      22.306  21.601   2.729  0.00  0.00    -0.358 OA
HETATM   66  H   UNK N   1      21.612  22.127   3.075  0.00  0.00     0.217 HD
ENDBRANCH  57  65
ENDBRANCH  45  47
ENDBRANCH   4  37
TORSDOF 8
ENDMDL
MODEL 9
REMARK VINA RESULT:     -10.3      6.142     13.285
REMARK  8 active torsions:
REMARK  status: ('A' for Active; 'I' for Inactive)
REMARK    1  A    between atoms: C_10  and  O_11 
REMARK       I    between atoms: N_12  and  C_17 
REMARK    2  A    between atoms: C_14  and  C_15 
REMARK    3  A    between atoms: C_17  and  C_19 
REMARK    4  A    between atoms: C_23  and  N_28 
REMARK       I    between atoms: N_28  and  C_29 
REMARK       I    between atoms: C_29  and  N_31 
REMARK    5  A    between atoms: N_31  and  C_32 
REMARK    6  A    between atoms: C_39  and  C_41 
REMARK       I    between atoms: C_41  and  N_43 
REMARK    7  A    between atoms: C_45  and  C_57 
REMARK    8  A    between atoms: C_49  and  O_56 
ROOT
HETATM    1  N   UNK N   1      33.471  17.403   9.176  0.00  0.00    -0.309 N 
HETATM    2  C   UNK N   1      32.464  17.892   8.384  0.00  0.00     0.325 C 
HETATM    3  O   UNK N   1      31.608  18.624   8.853  0.00  0.00    -0.247 OA
HETATM    4  N   UNK N   1      32.388  17.450   7.103  0.00  0.00    -0.309 N 
HETATM    5  H   UNK N   1      33.716  17.853  10.017  0.00  0.00     0.170 HD
HETATM    6  H   UNK N   1      33.261  17.191   6.730  0.00  0.00     0.170 HD
ENDROOT
BRANCH   1   7
HETATM    7  C   UNK N   1      34.155  16.223   8.746  0.00  0.00     0.037 C 
HETATM    8  C   UNK N   1      34.628  16.159   7.408  0.00  0.00     0.043 C 
HETATM    9  C   UNK N   1      34.519  14.969   6.726  0.00  0.00    -0.005 A 
HETATM   10  C   UNK N   1      34.752  14.685   5.399  0.00  0.00     0.049 A 
HETATM   11  C   UNK N   1      34.081  13.838   7.339  0.00  0.00     0.043 A 
HETATM   12  C   UNK N   1      34.410  13.341   5.278  0.00  0.00     0.102 A 
HETATM   13  N   UNK N   1      34.041  12.819   6.477  0.00  0.00    -0.351 N 
HETATM   14  H   UNK N   1      33.797  11.885   6.669  0.00  0.00     0.166 HD
HETATM   15  C   UNK N   1      33.767  13.804   8.692  0.00  0.00     0.033 C 
HETATM   16  C   UNK N   1      33.766  15.024   9.387  0.00  0.00     0.032 C 
BRANCH  12  17
HETATM   17  C   UNK N   1      34.901  12.476   4.206  0.00  0.00     0.275 C 
HETATM   18  N   UNK N   1      34.038  12.088   3.219  0.00  0.00    -0.311 N 
HETATM   19  C   UNK N   1      32.650  12.309   3.223  0.00  0.00     0.048 A 
HETATM   20  C   UNK N   1      34.441  11.435   1.989  0.00  0.00     0.143 A 
HETATM   21  C   UNK N   1      32.093  11.953   2.039  0.00  0.00    -0.011 A 
HETATM   22  C   UNK N   1      31.859  12.810   4.281  0.00  0.00     0.069 A 
HETATM   23  C   UNK N   1      30.716  12.147   1.856  0.00  0.00     0.010 A 
HETATM   24  C   UNK N   1      33.135  11.387   1.119  0.00  0.00     0.054 A 
HETATM   25  C   UNK N   1      29.943  12.658   2.872  0.00  0.00     0.077 A 
HETATM   26  C   UNK N   1      29.869  11.928   0.802  0.00  0.00    -0.033 A 
HETATM   27  N   UNK N   1      28.657  12.767   2.499  0.00  0.00    -0.362 N 
HETATM   28  C   UNK N   1      30.487  12.990   4.110  0.00  0.00     0.095 A 
HETATM   29  C   UNK N   1      28.602  12.321   1.219  0.00  0.00     0.096 A 
HETATM   30  H   UNK N   1      27.909  13.102   3.042  0.00  0.00     0.165 HD
HETATM   31  C   UNK N   1      30.214  11.388  -0.538  0.00  0.00     0.050 C 
HETATM   32  O   UNK N   1      36.084  12.173   4.160  0.00  0.00    -0.265 OA
BRANCH  28  33
HETATM   33  O   UNK N   1      29.729  13.474   5.109  0.00  0.00    -0.358 OA
HETATM   34  H   UNK N   1      29.809  13.120   5.972  0.00  0.00     0.217 HD
ENDBRANCH  28  33
BRANCH  24  35
HETATM   35  C   UNK N   1      33.287  12.264  -0.107  0.00  0.00     0.125 C 
HETATM   36 Cl   UNK N   1      34.902  13.006  -0.093  0.00  0.00    -0.130 Cl
ENDBRANCH  24  35
ENDBRANCH  12  17
ENDBRANCH   1   7
BRANCH   4  37
HETATM   37  C   UNK N   1      31.337  17.285   6.205  0.00  0.00     0.037 A 
HETATM   38  C   UNK N   1      31.659  17.025   4.850  0.00  0.00     0.032 A 
HETATM   39  C   UNK N   1      30.649  16.768   3.914  0.00  0.00     0.032 A 
HETATM   40  C   UNK N   1      29.350  16.725   4.390  0.00  0.00     0.039 A 
HETATM   41  C   UNK N   1      29.063  16.871   5.713  0.00  0.00    -0.009 A 
HETATM   42  N   UNK N   1      28.233  16.741   3.657  0.00  0.00    -0.373 N 
HETATM   43  C   UNK N   1      30.024  17.155   6.662  0.00  0.00     0.043 A 
HETATM   44  C   UNK N   1      27.720  16.927   5.850  0.00  0.00     0.021 A 
HETATM   45  C   UNK N   1      27.223  16.904   4.546  0.00  0.00     0.199 A 
HETATM   46  H   UNK N   1      28.160  16.653   2.679  0.00  0.00     0.161 HD
BRANCH  45  47
HETATM   47  C   UNK N   1      26.221  17.936   4.245  0.00  0.00     0.251 C 
HETATM   48  O   UNK N   1      26.562  19.091   4.043  0.00  0.00    -0.270 OA
HETATM   49  N   UNK N   1      24.894  17.562   4.227  0.00  0.00    -0.315 N 
HETATM   50  C   UNK N   1      24.431  16.220   4.572  0.00  0.00     0.142 A 
HETATM   51  C   UNK N   1      23.805  18.340   3.856  0.00  0.00     0.047 A 
HETATM   52  C   UNK N   1      22.925  16.172   4.252  0.00  0.00     0.054 A 
HETATM   53  C   UNK N   1      22.667  17.573   3.816  0.00  0.00    -0.011 A 
HETATM   54  C   UNK N   1      21.476  18.138   3.392  0.00  0.00     0.010 A 
HETATM   55  C   UNK N   1      21.431  19.459   3.044  0.00  0.00     0.077 A 
HETATM   56  C   UNK N   1      20.212  17.634   3.218  0.00  0.00    -0.033 A 
HETATM   57  C   UNK N   1      22.573  20.279   3.099  0.00  0.00     0.095 A 
HETATM   58  N   UNK N   1      20.189  19.809   2.660  0.00  0.00    -0.362 N 
HETATM   59  C   UNK N   1      23.796  19.703   3.503  0.00  0.00     0.069 A 
HETATM   60  C   UNK N   1      19.430  18.685   2.760  0.00  0.00     0.096 A 
HETATM   61  H   UNK N   1      19.890  20.700   2.366  0.00  0.00     0.165 HD
HETATM   62  C   UNK N   1      19.748  16.237   3.448  0.00  0.00     0.050 C 
BRANCH  52  63
HETATM   63  C   UNK N   1      22.675  15.178   3.131  0.00  0.00     0.125 C 
HETATM   64 Cl   UNK N   1      24.193  14.870   2.250  0.00  0.00    -0.130 Cl
ENDBRANCH  52  63
BRANCH  57  65
HETATM   65  O   UNK N   1      22.509  21.578   2.767  0.00  0.00    -0.358 OA
HETATM   66  H   UNK N   1      21.977  22.169   3.262  0.00  0.00     0.217 HD
ENDBRANCH  57  65
ENDBRANCH  45  47
ENDBRANCH   4  37
TORSDOF 8
ENDMDL
