MODEL 1
REMARK VINA RESULT:      -7.8      0.000      0.000
REMARK  8 active torsions:
REMARK  status: ('A' for Active; 'I' for Inactive)
REMARK    1  A    between atoms: C_11  and  C_8 
REMARK    2  A    between atoms: C_20  and  C_8 
REMARK    3  A    between atoms: C_23  and  C_11 
REMARK    4  A    between atoms: C_22  and  C_17 
REMARK    5  A    between atoms: C_24  and  C_18 
REMARK    6  A    between atoms: N_28  and  C_19 
REMARK    7  A    between atoms: N_29  and  C_21 
REMARK    8  A    between atoms: O_31  and  C_23 
REMARK       I    between atoms: N_25  and  C_24 
ROOT
HETATM    1  C   UNK N   1      30.746  17.848   8.683  0.00  0.00     0.028 A 
HETATM    2  C   UNK N   1      29.597  18.314   8.085  0.00  0.00     0.033 A 
HETATM    3  C   UNK N   1      31.324  16.941   7.809  0.00  0.00     0.018 A 
HETATM    4  C   UNK N   1      29.495  17.652   6.885  0.00  0.00     0.050 A 
HETATM    5  N   UNK N   1      30.551  16.805   6.694  0.00  0.00    -0.314 N 
ENDROOT
BRANCH   4   6
HETATM    6  C   UNK N   1      28.396  17.868   5.923  0.00  0.00    -0.009 A 
HETATM    7  C   UNK N   1      28.421  18.971   5.061  0.00  0.00     0.016 A 
HETATM    8  C   UNK N   1      27.278  19.343   4.362  0.00  0.00     0.031 A 
HETATM    9  C   UNK N   1      26.090  18.621   4.523  0.00  0.00     0.039 A 
HETATM   10  C   UNK N   1      26.084  17.469   5.327  0.00  0.00     0.031 A 
HETATM   11  C   UNK N   1      27.238  17.089   6.020  0.00  0.00     0.016 A 
BRANCH   9  12
HETATM   12  N   UNK N   1      24.874  19.115   3.941  0.00  0.00    -0.317 N 
HETATM   13  C   UNK N   1      23.639  18.614   4.111  0.00  0.00     0.115 A 
HETATM   14  C   UNK N   1      22.759  19.438   3.437  0.00  0.00     0.106 A 
HETATM   15  N   UNK N   1      23.459  20.440   2.866  0.00  0.00    -0.360 N 
HETATM   16  C   UNK N   1      24.748  20.224   3.191  0.00  0.00     0.188 A 
ATOM     17  HN  UNK N   1      23.088  21.205   2.303  1.00  0.00     0.166 HD
ENDBRANCH   9  12
ENDBRANCH   4   6
BRANCH   5  18
HETATM   18  C   UNK N   1      30.764  16.012   5.479  0.00  0.00     0.045 A 
HETATM   19  C   UNK N   1      30.311  14.678   5.463  0.00  0.00     0.031 A 
HETATM   20  C   UNK N   1      30.643  13.791   4.450  0.00  0.00     0.019 A 
HETATM   21  C   UNK N   1      31.428  14.215   3.384  0.00  0.00     0.032 A 
HETATM   22  C   UNK N   1      31.821  15.561   3.318  0.00  0.00     0.026 A 
HETATM   23  C   UNK N   1      31.491  16.467   4.343  0.00  0.00    -0.034 A 
HETATM   24  C   UNK N   1      32.063  17.835   4.239  0.00  0.00     0.050 C 
BRANCH  21  25
HETATM   25  C   UNK N   1      31.900  13.230   2.385  0.00  0.00     0.249 C 
HETATM   26  N   UNK N   1      33.085  13.399   1.764  0.00  0.00    -0.366 N 
HETATM   27  H   UNK N   1      33.637  14.210   1.850  0.00  0.00     0.159 HD
HETATM   28  H   UNK N   1      33.418  12.670   1.192  0.00  0.00     0.159 HD
HETATM   29  O   UNK N   1      31.242  12.225   2.155  0.00  0.00    -0.268 OA
ENDBRANCH  21  25
ENDBRANCH   5  18
BRANCH   3  30
HETATM   30  C   UNK N   1      32.685  16.334   8.026  0.00  0.00     0.068 C 
BRANCH  30  31
HETATM   31  C   UNK N   1      33.667  17.221   8.808  0.00  0.00     0.116 C 
BRANCH  31  32
HETATM   32  C   UNK N   1      34.497  18.130   7.941  0.00  0.00     0.139 C 
HETATM   33  O   UNK N   1      34.490  18.012   6.727  0.00  0.00    -0.650 OA
BRANCH  32  34
HETATM   34  O   UNK N   1      35.201  19.128   8.504  0.00  0.00    -0.776 OA
HETATM   35  H   UNK N   1      35.211  19.495   9.366  0.00  0.00     0.167 HD
ENDBRANCH  32  34
ENDBRANCH  31  32
ENDBRANCH  30  31
ENDBRANCH   3  30
TORSDOF 8
ENDMDL
MODEL 2
REMARK VINA RESULT:      -7.3     11.226     14.566
REMARK  8 active torsions:
REMARK  status: ('A' for Active; 'I' for Inactive)
REMARK    1  A    between atoms: C_11  and  C_8 
REMARK    2  A    between atoms: C_20  and  C_8 
REMARK    3  A    between atoms: C_23  and  C_11 
REMARK    4  A    between atoms: C_22  and  C_17 
REMARK    5  A    between atoms: C_24  and  C_18 
REMARK    6  A    between atoms: N_28  and  C_19 
REMARK    7  A    between atoms: N_29  and  C_21 
REMARK    8  A    between atoms: O_31  and  C_23 
REMARK       I    between atoms: N_25  and  C_24 
ROOT
HETATM    1  C   UNK N   1      29.047  28.427  -4.739  0.00  0.00     0.028 A 
HETATM    2  C   UNK N   1      30.066  27.651  -4.234  0.00  0.00     0.033 A 
HETATM    3  C   UNK N   1      28.177  27.578  -5.405  0.00  0.00     0.018 A 
HETATM    4  C   UNK N   1      29.802  26.364  -4.636  0.00  0.00     0.050 A 
HETATM    5  N   UNK N   1      28.641  26.297  -5.356  0.00  0.00    -0.314 N 
ENDROOT
BRANCH   4   6
HETATM    6  C   UNK N   1      30.657  25.210  -4.295  0.00  0.00    -0.009 A 
HETATM    7  C   UNK N   1      31.750  24.878  -5.107  0.00  0.00     0.016 A 
HETATM    8  C   UNK N   1      32.382  23.648  -4.965  0.00  0.00     0.031 A 
HETATM    9  C   UNK N   1      31.924  22.727  -4.016  0.00  0.00     0.039 A 
HETATM   10  C   UNK N   1      30.879  23.089  -3.149  0.00  0.00     0.031 A 
HETATM   11  C   UNK N   1      30.252  24.332  -3.284  0.00  0.00     0.016 A 
BRANCH   9  12
HETATM   12  N   UNK N   1      32.463  21.397  -3.997  0.00  0.00    -0.317 N 
HETATM   13  C   UNK N   1      32.127  20.381  -4.808  0.00  0.00     0.115 A 
HETATM   14  C   UNK N   1      32.942  19.311  -4.496  0.00  0.00     0.106 A 
HETATM   15  N   UNK N   1      33.776  19.680  -3.502  0.00  0.00    -0.360 N 
HETATM   16  C   UNK N   1      33.467  20.960  -3.217  0.00  0.00     0.188 A 
ATOM     17  HN  UNK N   1      34.493  19.108  -3.057  1.00  0.00     0.166 HD
ENDBRANCH   9  12
ENDBRANCH   4   6
BRANCH   5  18
HETATM   18  C   UNK N   1      28.055  25.052  -5.863  0.00  0.00     0.045 A 
HETATM   19  C   UNK N   1      28.352  24.664  -7.185  0.00  0.00     0.031 A 
HETATM   20  C   UNK N   1      27.690  23.623  -7.821  0.00  0.00     0.019 A 
HETATM   21  C   UNK N   1      26.715  22.901  -7.143  0.00  0.00     0.032 A 
HETATM   22  C   UNK N   1      26.458  23.199  -5.795  0.00  0.00     0.026 A 
HETATM   23  C   UNK N   1      27.121  24.254  -5.143  0.00  0.00    -0.034 A 
HETATM   24  C   UNK N   1      26.685  24.567  -3.758  0.00  0.00     0.050 C 
BRANCH  21  25
HETATM   25  C   UNK N   1      25.913  21.892  -7.871  0.00  0.00     0.249 C 
HETATM   26  N   UNK N   1      24.568  21.983  -7.906  0.00  0.00    -0.366 N 
HETATM   27  H   UNK N   1      24.050  22.635  -7.380  0.00  0.00     0.159 HD
HETATM   28  H   UNK N   1      24.077  21.362  -8.491  0.00  0.00     0.159 HD
HETATM   29  O   UNK N   1      26.469  20.997  -8.491  0.00  0.00    -0.268 OA
ENDBRANCH  21  25
ENDBRANCH   5  18
BRANCH   3  30
HETATM   30  C   UNK N   1      26.848  28.021  -5.956  0.00  0.00     0.068 C 
BRANCH  30  31
HETATM   31  C   UNK N   1      25.652  27.779  -5.021  0.00  0.00     0.116 C 
BRANCH  31  32
HETATM   32  C   UNK N   1      25.796  28.411  -3.663  0.00  0.00     0.139 C 
HETATM   33  O   UNK N   1      25.863  27.724  -2.658  0.00  0.00    -0.650 OA
BRANCH  32  34
HETATM   34  O   UNK N   1      25.921  29.746  -3.560  0.00  0.00    -0.776 OA
HETATM   35  H   UNK N   1      26.080  30.318  -2.834  0.00  0.00     0.167 HD
ENDBRANCH  32  34
ENDBRANCH  31  32
ENDBRANCH  30  31
ENDBRANCH   3  30
TORSDOF 8
ENDMDL
MODEL 3
REMARK VINA RESULT:      -7.2     12.058     15.604
REMARK  8 active torsions:
REMARK  status: ('A' for Active; 'I' for Inactive)
REMARK    1  A    between atoms: C_11  and  C_8 
REMARK    2  A    between atoms: C_20  and  C_8 
REMARK    3  A    between atoms: C_23  and  C_11 
REMARK    4  A    between atoms: C_22  and  C_17 
REMARK    5  A    between atoms: C_24  and  C_18 
REMARK    6  A    between atoms: N_28  and  C_19 
REMARK    7  A    between atoms: N_29  and  C_21 
REMARK    8  A    between atoms: O_31  and  C_23 
REMARK       I    between atoms: N_25  and  C_24 
ROOT
HETATM    1  C   UNK N   1      25.764  24.481  -9.875  0.00  0.00     0.028 A 
HETATM    2  C   UNK N   1      25.614  25.727  -9.310  0.00  0.00     0.033 A 
HETATM    3  C   UNK N   1      26.570  23.740  -9.025  0.00  0.00     0.018 A 
HETATM    4  C   UNK N   1      26.360  25.717  -8.156  0.00  0.00     0.050 A 
HETATM    5  N   UNK N   1      26.954  24.500  -7.960  0.00  0.00    -0.314 N 
ENDROOT
BRANCH   4   6
HETATM    6  C   UNK N   1      26.465  26.870  -7.240  0.00  0.00    -0.009 A 
HETATM    7  C   UNK N   1      27.602  27.688  -7.265  0.00  0.00     0.016 A 
HETATM    8  C   UNK N   1      27.841  28.588  -6.233  0.00  0.00     0.031 A 
HETATM    9  C   UNK N   1      26.952  28.678  -5.157  0.00  0.00     0.039 A 
HETATM   10  C   UNK N   1      25.772  27.915  -5.169  0.00  0.00     0.031 A 
HETATM   11  C   UNK N   1      25.525  27.018  -6.214  0.00  0.00     0.016 A 
BRANCH   9  12
HETATM   12  N   UNK N   1      27.295  29.475  -4.014  0.00  0.00    -0.317 N 
HETATM   13  C   UNK N   1      28.445  29.437  -3.322  0.00  0.00     0.115 A 
HETATM   14  C   UNK N   1      28.383  30.421  -2.355  0.00  0.00     0.106 A 
HETATM   15  N   UNK N   1      27.200  31.060  -2.466  0.00  0.00    -0.360 N 
HETATM   16  C   UNK N   1      26.555  30.468  -3.489  0.00  0.00     0.188 A 
ATOM     17  HN  UNK N   1      26.863  31.834  -1.894  1.00  0.00     0.166 HD
ENDBRANCH   9  12
ENDBRANCH   4   6
BRANCH   5  18
HETATM   18  C   UNK N   1      27.755  24.154  -6.781  0.00  0.00     0.045 A 
HETATM   19  C   UNK N   1      27.084  23.916  -5.564  0.00  0.00     0.031 A 
HETATM   20  C   UNK N   1      27.757  23.786  -4.358  0.00  0.00     0.019 A 
HETATM   21  C   UNK N   1      29.144  23.861  -4.323  0.00  0.00     0.032 A 
HETATM   22  C   UNK N   1      29.851  24.004  -5.527  0.00  0.00     0.026 A 
HETATM   23  C   UNK N   1      29.178  24.140  -6.755  0.00  0.00    -0.034 A 
HETATM   24  C   UNK N   1      30.014  24.414  -7.953  0.00  0.00     0.050 C 
BRANCH  21  25
HETATM   25  C   UNK N   1      29.844  23.868  -3.019  0.00  0.00     0.249 C 
HETATM   26  N   UNK N   1      29.417  23.082  -2.010  0.00  0.00    -0.366 N 
HETATM   27  H   UNK N   1      28.583  22.559  -2.038  0.00  0.00     0.159 HD
HETATM   28  H   UNK N   1      29.972  23.028  -1.198  0.00  0.00     0.159 HD
HETATM   29  O   UNK N   1      30.849  24.547  -2.865  0.00  0.00    -0.268 OA
ENDBRANCH  21  25
ENDBRANCH   5  18
BRANCH   3  30
HETATM   30  C   UNK N   1      26.834  22.269  -9.207  0.00  0.00     0.068 C 
BRANCH  30  31
HETATM   31  C   UNK N   1      25.585  21.376  -9.118  0.00  0.00     0.116 C 
BRANCH  31  32
HETATM   32  C   UNK N   1      24.711  21.660  -7.926  0.00  0.00     0.139 C 
HETATM   33  O   UNK N   1      25.161  21.601  -6.794  0.00  0.00    -0.650 OA
BRANCH  32  34
HETATM   34  O   UNK N   1      23.438  22.050  -8.111  0.00  0.00    -0.776 OA
HETATM   35  H   UNK N   1      22.731  21.703  -8.620  0.00  0.00     0.167 HD
ENDBRANCH  32  34
ENDBRANCH  31  32
ENDBRANCH  30  31
ENDBRANCH   3  30
TORSDOF 8
ENDMDL
MODEL 4
REMARK VINA RESULT:      -7.1      8.201     10.924
REMARK  8 active torsions:
REMARK  status: ('A' for Active; 'I' for Inactive)
REMARK    1  A    between atoms: C_11  and  C_8 
REMARK    2  A    between atoms: C_20  and  C_8 
REMARK    3  A    between atoms: C_23  and  C_11 
REMARK    4  A    between atoms: C_22  and  C_17 
REMARK    5  A    between atoms: C_24  and  C_18 
REMARK    6  A    between atoms: N_28  and  C_19 
REMARK    7  A    between atoms: N_29  and  C_21 
REMARK    8  A    between atoms: O_31  and  C_23 
REMARK       I    between atoms: N_25  and  C_24 
ROOT
HETATM    1  C   UNK N   1      21.815  18.721   4.725  0.00  0.00     0.028 A 
HETATM    2  C   UNK N   1      22.218  18.001   5.827  0.00  0.00     0.033 A 
HETATM    3  C   UNK N   1      21.275  17.819   3.822  0.00  0.00     0.018 A 
HETATM    4  C   UNK N   1      21.942  16.685   5.547  0.00  0.00     0.050 A 
HETATM    5  N   UNK N   1      21.357  16.551   4.318  0.00  0.00    -0.314 N 
ENDROOT
BRANCH   4   6
HETATM    6  C   UNK N   1      22.217  15.575   6.481  0.00  0.00    -0.009 A 
HETATM    7  C   UNK N   1      21.350  15.323   7.552  0.00  0.00     0.016 A 
HETATM    8  C   UNK N   1      21.739  14.482   8.588  0.00  0.00     0.031 A 
HETATM    9  C   UNK N   1      23.005  13.886   8.572  0.00  0.00     0.039 A 
HETATM   10  C   UNK N   1      23.844  14.075   7.461  0.00  0.00     0.031 A 
HETATM   11  C   UNK N   1      23.447  14.912   6.413  0.00  0.00     0.016 A 
BRANCH   9  12
HETATM   12  N   UNK N   1      23.467  13.166   9.724  0.00  0.00    -0.317 N 
HETATM   13  C   UNK N   1      22.710  12.524  10.629  0.00  0.00     0.115 A 
HETATM   14  C   UNK N   1      23.563  11.905  11.522  0.00  0.00     0.106 A 
HETATM   15  N   UNK N   1      24.835  12.167  11.155  0.00  0.00    -0.360 N 
HETATM   16  C   UNK N   1      24.750  12.935  10.052  0.00  0.00     0.188 A 
ATOM     17  HN  UNK N   1      25.686  11.847  11.617  1.00  0.00     0.166 HD
ENDBRANCH   9  12
ENDBRANCH   4   6
BRANCH   5  18
HETATM   18  C   UNK N   1      20.880  15.279   3.765  0.00  0.00     0.045 A 
HETATM   19  C   UNK N   1      21.688  14.619   2.817  0.00  0.00     0.031 A 
HETATM   20  C   UNK N   1      21.238  13.527   2.088  0.00  0.00     0.019 A 
HETATM   21  C   UNK N   1      19.957  13.029   2.300  0.00  0.00     0.032 A 
HETATM   22  C   UNK N   1      19.158  13.603   3.301  0.00  0.00     0.026 A 
HETATM   23  C   UNK N   1      19.605  14.712   4.043  0.00  0.00    -0.034 A 
HETATM   24  C   UNK N   1      18.634  15.322   4.988  0.00  0.00     0.050 C 
BRANCH  21  25
HETATM   25  C   UNK N   1      19.433  11.961   1.420  0.00  0.00     0.249 C 
HETATM   26  N   UNK N   1      18.989  12.254   0.181  0.00  0.00    -0.366 N 
HETATM   27  H   UNK N   1      18.886  13.171  -0.161  0.00  0.00     0.159 HD
HETATM   28  H   UNK N   1      18.753  11.507  -0.416  0.00  0.00     0.159 HD
HETATM   29  O   UNK N   1      19.449  10.796   1.791  0.00  0.00    -0.268 OA
ENDBRANCH  21  25
ENDBRANCH   5  18
BRANCH   3  30
HETATM   30  C   UNK N   1      20.570  18.234   2.558  0.00  0.00     0.068 C 
BRANCH  30  31
HETATM   31  C   UNK N   1      20.093  19.696   2.539  0.00  0.00     0.116 C 
BRANCH  31  32
HETATM   32  C   UNK N   1      21.035  20.640   1.841  0.00  0.00     0.139 C 
HETATM   33  O   UNK N   1      21.137  20.635   0.625  0.00  0.00    -0.650 OA
BRANCH  32  34
HETATM   34  O   UNK N   1      21.723  21.546   2.558  0.00  0.00    -0.776 OA
HETATM   35  H   UNK N   1      21.636  21.867   3.434  0.00  0.00     0.167 HD
ENDBRANCH  32  34
ENDBRANCH  31  32
ENDBRANCH  30  31
ENDBRANCH   3  30
TORSDOF 8
ENDMDL
MODEL 5
REMARK VINA RESULT:      -7.1      4.192      8.111
REMARK  8 active torsions:
REMARK  status: ('A' for Active; 'I' for Inactive)
REMARK    1  A    between atoms: C_11  and  C_8 
REMARK    2  A    between atoms: C_20  and  C_8 
REMARK    3  A    between atoms: C_23  and  C_11 
REMARK    4  A    between atoms: C_22  and  C_17 
REMARK    5  A    between atoms: C_24  and  C_18 
REMARK    6  A    between atoms: N_28  and  C_19 
REMARK    7  A    between atoms: N_29  and  C_21 
REMARK    8  A    between atoms: O_31  and  C_23 
REMARK       I    between atoms: N_25  and  C_24 
ROOT
HETATM    1  C   UNK N   1      26.809  20.389   3.960  0.00  0.00     0.028 A 
HETATM    2  C   UNK N   1      27.911  20.094   4.729  0.00  0.00     0.033 A 
HETATM    3  C   UNK N   1      26.063  19.227   3.849  0.00  0.00     0.018 A 
HETATM    4  C   UNK N   1      27.819  18.756   5.032  0.00  0.00     0.050 A 
HETATM    5  N   UNK N   1      26.686  18.204   4.502  0.00  0.00    -0.314 N 
ENDROOT
BRANCH   4   6
HETATM    6  C   UNK N   1      28.810  18.034   5.854  0.00  0.00    -0.009 A 
HETATM    7  C   UNK N   1      28.728  18.072   7.252  0.00  0.00     0.016 A 
HETATM    8  C   UNK N   1      29.798  17.645   8.030  0.00  0.00     0.031 A 
HETATM    9  C   UNK N   1      30.969  17.182   7.422  0.00  0.00     0.039 A 
HETATM   10  C   UNK N   1      31.024  17.070   6.022  0.00  0.00     0.031 A 
HETATM   11  C   UNK N   1      29.943  17.488   5.240  0.00  0.00     0.016 A 
BRANCH   9  12
HETATM   12  N   UNK N   1      32.129  16.913   8.223  0.00  0.00    -0.317 N 
HETATM   13  C   UNK N   1      32.562  15.711   8.637  0.00  0.00     0.115 A 
HETATM   14  C   UNK N   1      33.750  15.906   9.313  0.00  0.00     0.106 A 
HETATM   15  N   UNK N   1      34.041  17.223   9.303  0.00  0.00    -0.360 N 
HETATM   16  C   UNK N   1      33.038  17.818   8.628  0.00  0.00     0.188 A 
ATOM     17  HN  UNK N   1      34.853  17.676   9.721  1.00  0.00     0.166 HD
ENDBRANCH   9  12
ENDBRANCH   4   6
BRANCH   5  18
HETATM   18  C   UNK N   1      26.270  16.813   4.710  0.00  0.00     0.045 A 
HETATM   19  C   UNK N   1      25.438  16.523   5.809  0.00  0.00     0.031 A 
HETATM   20  C   UNK N   1      25.161  15.223   6.209  0.00  0.00     0.019 A 
HETATM   21  C   UNK N   1      25.687  14.150   5.500  0.00  0.00     0.032 A 
HETATM   22  C   UNK N   1      26.444  14.400   4.345  0.00  0.00     0.026 A 
HETATM   23  C   UNK N   1      26.734  15.714   3.934  0.00  0.00    -0.034 A 
HETATM   24  C   UNK N   1      27.648  15.868   2.773  0.00  0.00     0.050 C 
BRANCH  21  25
HETATM   25  C   UNK N   1      25.508  12.774   6.016  0.00  0.00     0.249 C 
HETATM   26  N   UNK N   1      25.893  11.712   5.279  0.00  0.00    -0.366 N 
HETATM   27  H   UNK N   1      26.201  11.777   4.346  0.00  0.00     0.159 HD
HETATM   28  H   UNK N   1      25.864  10.822   5.698  0.00  0.00     0.159 HD
HETATM   29  O   UNK N   1      25.060  12.592   7.139  0.00  0.00    -0.268 OA
ENDBRANCH  21  25
ENDBRANCH   5  18
BRANCH   3  30
HETATM   30  C   UNK N   1      24.695  19.177   3.221  0.00  0.00     0.068 C 
BRANCH  30  31
HETATM   31  C   UNK N   1      24.066  20.552   2.942  0.00  0.00     0.116 C 
BRANCH  31  32
HETATM   32  C   UNK N   1      22.565  20.532   2.842  0.00  0.00     0.139 C 
HETATM   33  O   UNK N   1      21.944  19.492   2.985  0.00  0.00    -0.650 OA
BRANCH  32  34
HETATM   34  O   UNK N   1      21.893  21.683   2.661  0.00  0.00    -0.776 OA
HETATM   35  H   UNK N   1      21.015  21.874   2.395  0.00  0.00     0.167 HD
ENDBRANCH  32  34
ENDBRANCH  31  32
ENDBRANCH  30  31
ENDBRANCH   3  30
TORSDOF 8
ENDMDL
MODEL 6
REMARK VINA RESULT:      -7.1      3.314      7.705
REMARK  8 active torsions:
REMARK  status: ('A' for Active; 'I' for Inactive)
REMARK    1  A    between atoms: C_11  and  C_8 
REMARK    2  A    between atoms: C_20  and  C_8 
REMARK    3  A    between atoms: C_23  and  C_11 
REMARK    4  A    between atoms: C_22  and  C_17 
REMARK    5  A    between atoms: C_24  and  C_18 
REMARK    6  A    between atoms: N_28  and  C_19 
REMARK    7  A    between atoms: N_29  and  C_21 
REMARK    8  A    between atoms: O_31  and  C_23 
REMARK       I    between atoms: N_25  and  C_24 
ROOT
HETATM    1  C   UNK N   1      28.449  18.398   6.677  0.00  0.00     0.028 A 
HETATM    2  C   UNK N   1      29.283  18.205   7.755  0.00  0.00     0.033 A 
HETATM    3  C   UNK N   1      29.053  17.803   5.580  0.00  0.00     0.018 A 
HETATM    4  C   UNK N   1      30.380  17.532   7.275  0.00  0.00     0.050 A 
HETATM    5  N   UNK N   1      30.257  17.271   5.938  0.00  0.00    -0.314 N 
ENDROOT
BRANCH   4   6
HETATM    6  C   UNK N   1      31.520  17.121   8.117  0.00  0.00    -0.009 A 
HETATM    7  C   UNK N   1      32.665  17.925   8.197  0.00  0.00     0.016 A 
HETATM    8  C   UNK N   1      33.839  17.423   8.746  0.00  0.00     0.031 A 
HETATM    9  C   UNK N   1      33.889  16.107   9.217  0.00  0.00     0.039 A 
HETATM   10  C   UNK N   1      32.722  15.325   9.209  0.00  0.00     0.031 A 
HETATM   11  C   UNK N   1      31.537  15.834   8.668  0.00  0.00     0.016 A 
BRANCH   9  12
HETATM   12  N   UNK N   1      35.146  15.541   9.615  0.00  0.00    -0.317 N 
HETATM   13  C   UNK N   1      35.834  14.578   8.980  0.00  0.00     0.115 A 
HETATM   14  C   UNK N   1      37.020  14.393   9.662  0.00  0.00     0.106 A 
HETATM   15  N   UNK N   1      37.055  15.248  10.705  0.00  0.00    -0.360 N 
HETATM   16  C   UNK N   1      35.902  15.941  10.653  0.00  0.00     0.188 A 
ATOM     17  HN  UNK N   1      37.802  15.349  11.392  1.00  0.00     0.166 HD
ENDBRANCH   9  12
ENDBRANCH   4   6
BRANCH   5  18
HETATM   18  C   UNK N   1      31.231  16.506   5.153  0.00  0.00     0.045 A 
HETATM   19  C   UNK N   1      32.316  17.197   4.578  0.00  0.00     0.031 A 
HETATM   20  C   UNK N   1      33.170  16.607   3.657  0.00  0.00     0.019 A 
HETATM   21  C   UNK N   1      32.987  15.279   3.289  0.00  0.00     0.032 A 
HETATM   22  C   UNK N   1      31.973  14.533   3.910  0.00  0.00     0.026 A 
HETATM   23  C   UNK N   1      31.101  15.123   4.843  0.00  0.00    -0.034 A 
HETATM   24  C   UNK N   1      29.984  14.280   5.344  0.00  0.00     0.050 C 
BRANCH  21  25
HETATM   25  C   UNK N   1      33.807  14.701   2.201  0.00  0.00     0.249 C 
HETATM   26  N   UNK N   1      33.598  13.435   1.787  0.00  0.00    -0.366 N 
HETATM   27  H   UNK N   1      32.990  12.806   2.237  0.00  0.00     0.159 HD
HETATM   28  H   UNK N   1      34.083  13.123   0.988  0.00  0.00     0.159 HD
HETATM   29  O   UNK N   1      34.644  15.388   1.632  0.00  0.00    -0.268 OA
ENDBRANCH  21  25
ENDBRANCH   5  18
BRANCH   3  30
HETATM   30  C   UNK N   1      28.378  17.653   4.243  0.00  0.00     0.068 C 
BRANCH  30  31
HETATM   31  C   UNK N   1      26.871  17.958   4.247  0.00  0.00     0.116 C 
BRANCH  31  32
HETATM   32  C   UNK N   1      26.512  19.290   3.645  0.00  0.00     0.139 C 
HETATM   33  O   UNK N   1      25.352  19.569   3.390  0.00  0.00    -0.650 OA
BRANCH  32  34
HETATM   34  O   UNK N   1      27.471  20.213   3.447  0.00  0.00    -0.776 OA
HETATM   35  H   UNK N   1      27.445  21.127   3.243  0.00  0.00     0.167 HD
ENDBRANCH  32  34
ENDBRANCH  31  32
ENDBRANCH  30  31
ENDBRANCH   3  30
TORSDOF 8
ENDMDL
MODEL 7
REMARK VINA RESULT:      -7.0      3.788      7.608
REMARK  8 active torsions:
REMARK  status: ('A' for Active; 'I' for Inactive)
REMARK    1  A    between atoms: C_11  and  C_8 
REMARK    2  A    between atoms: C_20  and  C_8 
REMARK    3  A    between atoms: C_23  and  C_11 
REMARK    4  A    between atoms: C_22  and  C_17 
REMARK    5  A    between atoms: C_24  and  C_18 
REMARK    6  A    between atoms: N_28  and  C_19 
REMARK    7  A    between atoms: N_29  and  C_21 
REMARK    8  A    between atoms: O_31  and  C_23 
REMARK       I    between atoms: N_25  and  C_24 
ROOT
HETATM    1  C   UNK N   1      26.563  19.851   5.325  0.00  0.00     0.028 A 
HETATM    2  C   UNK N   1      27.618  19.604   6.174  0.00  0.00     0.033 A 
HETATM    3  C   UNK N   1      26.407  18.728   4.528  0.00  0.00     0.018 A 
HETATM    4  C   UNK N   1      28.090  18.356   5.845  0.00  0.00     0.050 A 
HETATM    5  N   UNK N   1      27.355  17.798   4.835  0.00  0.00    -0.314 N 
ENDROOT
BRANCH   4   6
HETATM    6  C   UNK N   1      29.225  17.704   6.529  0.00  0.00    -0.009 A 
HETATM    7  C   UNK N   1      29.233  17.587   7.924  0.00  0.00     0.016 A 
HETATM    8  C   UNK N   1      30.402  17.242   8.593  0.00  0.00     0.031 A 
HETATM    9  C   UNK N   1      31.582  17.018   7.876  0.00  0.00     0.039 A 
HETATM   10  C   UNK N   1      31.557  17.059   6.472  0.00  0.00     0.031 A 
HETATM   11  C   UNK N   1      30.377  17.394   5.799  0.00  0.00     0.016 A 
BRANCH   9  12
HETATM   12  N   UNK N   1      32.820  16.840   8.581  0.00  0.00    -0.317 N 
HETATM   13  C   UNK N   1      33.268  15.708   9.148  0.00  0.00     0.115 A 
HETATM   14  C   UNK N   1      34.531  15.962   9.646  0.00  0.00     0.106 A 
HETATM   15  N   UNK N   1      34.850  17.245   9.375  0.00  0.00    -0.360 N 
HETATM   16  C   UNK N   1      33.791  17.759   8.721  0.00  0.00     0.188 A 
ATOM     17  HN  UNK N   1      35.715  17.727   9.616  1.00  0.00     0.166 HD
ENDBRANCH   9  12
ENDBRANCH   4   6
BRANCH   5  18
HETATM   18  C   UNK N   1      27.568  16.445   4.310  0.00  0.00     0.045 A 
HETATM   19  C   UNK N   1      28.282  16.302   3.104  0.00  0.00     0.031 A 
HETATM   20  C   UNK N   1      28.358  15.095   2.423  0.00  0.00     0.019 A 
HETATM   21  C   UNK N   1      27.740  13.963   2.943  0.00  0.00     0.032 A 
HETATM   22  C   UNK N   1      27.099  14.046   4.189  0.00  0.00     0.026 A 
HETATM   23  C   UNK N   1      27.014  15.266   4.884  0.00  0.00    -0.034 A 
HETATM   24  C   UNK N   1      26.205  15.274   6.130  0.00  0.00     0.050 C 
BRANCH  21  25
HETATM   25  C   UNK N   1      27.701  12.718   2.143  0.00  0.00     0.249 C 
HETATM   26  N   UNK N   1      28.835  12.201   1.628  0.00  0.00    -0.366 N 
HETATM   27  H   UNK N   1      29.707  12.657   1.657  0.00  0.00     0.159 HD
HETATM   28  H   UNK N   1      28.787  11.316   1.199  0.00  0.00     0.159 HD
HETATM   29  O   UNK N   1      26.646  12.121   1.988  0.00  0.00    -0.268 OA
ENDBRANCH  21  25
ENDBRANCH   5  18
BRANCH   3  30
HETATM   30  C   UNK N   1      25.252  18.539   3.580  0.00  0.00     0.068 C 
BRANCH  30  31
HETATM   31  C   UNK N   1      24.042  19.449   3.852  0.00  0.00     0.116 C 
BRANCH  31  32
HETATM   32  C   UNK N   1      23.908  20.597   2.889  0.00  0.00     0.139 C 
HETATM   33  O   UNK N   1      24.850  20.943   2.195  0.00  0.00    -0.650 OA
BRANCH  32  34
HETATM   34  O   UNK N   1      22.718  21.205   2.738  0.00  0.00    -0.776 OA
HETATM   35  H   UNK N   1      21.884  20.909   2.430  0.00  0.00     0.167 HD
ENDBRANCH  32  34
ENDBRANCH  31  32
ENDBRANCH  30  31
ENDBRANCH   3  30
TORSDOF 8
ENDMDL
MODEL 8
REMARK VINA RESULT:      -6.9      8.198     12.183
REMARK  8 active torsions:
REMARK  status: ('A' for Active; 'I' for Inactive)
REMARK    1  A    between atoms: C_11  and  C_8 
REMARK    2  A    between atoms: C_20  and  C_8 
REMARK    3  A    between atoms: C_23  and  C_11 
REMARK    4  A    between atoms: C_22  and  C_17 
REMARK    5  A    between atoms: C_24  and  C_18 
REMARK    6  A    between atoms: N_28  and  C_19 
REMARK    7  A    between atoms: N_29  and  C_21 
REMARK    8  A    between atoms: O_31  and  C_23 
REMARK       I    between atoms: N_25  and  C_24 
ROOT
HETATM    1  C   UNK N   1      37.088   9.877  11.705  0.00  0.00     0.028 A 
HETATM    2  C   UNK N   1      36.719  10.965  10.947  0.00  0.00     0.033 A 
HETATM    3  C   UNK N   1      36.869  10.210  13.033  0.00  0.00     0.018 A 
HETATM    4  C   UNK N   1      36.321  11.934  11.836  0.00  0.00     0.050 A 
HETATM    5  N   UNK N   1      36.402  11.487  13.126  0.00  0.00    -0.314 N 
ENDROOT
BRANCH   4   6
HETATM    6  C   UNK N   1      35.837  13.268  11.429  0.00  0.00    -0.009 A 
HETATM    7  C   UNK N   1      34.464  13.540  11.397  0.00  0.00     0.016 A 
HETATM    8  C   UNK N   1      33.988  14.676  10.753  0.00  0.00     0.031 A 
HETATM    9  C   UNK N   1      34.878  15.553  10.123  0.00  0.00     0.039 A 
HETATM   10  C   UNK N   1      36.261  15.323  10.221  0.00  0.00     0.031 A 
HETATM   11  C   UNK N   1      36.740  14.186  10.881  0.00  0.00     0.016 A 
BRANCH   9  12
HETATM   12  N   UNK N   1      34.370  16.622   9.312  0.00  0.00    -0.317 N 
HETATM   13  C   UNK N   1      33.151  16.700   8.754  0.00  0.00     0.115 A 
HETATM   14  C   UNK N   1      33.057  17.927   8.126  0.00  0.00     0.106 A 
HETATM   15  N   UNK N   1      34.216  18.593   8.308  0.00  0.00    -0.360 N 
HETATM   16  C   UNK N   1      35.001  17.778   9.038  0.00  0.00     0.188 A 
ATOM     17  HN  UNK N   1      34.450  19.524   7.964  1.00  0.00     0.166 HD
ENDBRANCH   9  12
ENDBRANCH   4   6
BRANCH   5  18
HETATM   18  C   UNK N   1      35.980  12.264  14.296  0.00  0.00     0.045 A 
HETATM   19  C   UNK N   1      36.868  13.228  14.813  0.00  0.00     0.031 A 
HETATM   20  C   UNK N   1      36.652  13.864  16.028  0.00  0.00     0.019 A 
HETATM   21  C   UNK N   1      35.511  13.578  16.769  0.00  0.00     0.032 A 
HETATM   22  C   UNK N   1      34.559  12.692  16.242  0.00  0.00     0.026 A 
HETATM   23  C   UNK N   1      34.771  12.040  15.013  0.00  0.00    -0.034 A 
HETATM   24  C   UNK N   1      33.762  11.028  14.607  0.00  0.00     0.050 C 
BRANCH  21  25
HETATM   25  C   UNK N   1      35.359  14.147  18.127  0.00  0.00     0.249 C 
HETATM   26  N   UNK N   1      35.059  13.351  19.172  0.00  0.00    -0.366 N 
HETATM   27  H   UNK N   1      34.823  12.399  19.085  0.00  0.00     0.159 HD
HETATM   28  H   UNK N   1      35.077  13.743  20.075  0.00  0.00     0.159 HD
HETATM   29  O   UNK N   1      35.559  15.338  18.319  0.00  0.00    -0.268 OA
ENDBRANCH  21  25
ENDBRANCH   5  18
BRANCH   3  30
HETATM   30  C   UNK N   1      36.995   9.224  14.165  0.00  0.00     0.068 C 
BRANCH  30  31
HETATM   31  C   UNK N   1      37.605   9.800  15.453  0.00  0.00     0.116 C 
BRANCH  31  32
HETATM   32  C   UNK N   1      36.818   9.490  16.697  0.00  0.00     0.139 C 
HETATM   33  O   UNK N   1      36.717  10.313  17.593  0.00  0.00    -0.650 OA
BRANCH  32  34
HETATM   34  O   UNK N   1      36.161   8.321  16.797  0.00  0.00    -0.776 OA
HETATM   35  H   UNK N   1      36.447   7.432  16.869  0.00  0.00     0.167 HD
ENDBRANCH  32  34
ENDBRANCH  31  32
ENDBRANCH  30  31
ENDBRANCH   3  30
TORSDOF 8
ENDMDL
MODEL 9
REMARK VINA RESULT:      -6.8      1.605      1.703
REMARK  8 active torsions:
REMARK  status: ('A' for Active; 'I' for Inactive)
REMARK    1  A    between atoms: C_11  and  C_8 
REMARK    2  A    between atoms: C_20  and  C_8 
REMARK    3  A    between atoms: C_23  and  C_11 
REMARK    4  A    between atoms: C_22  and  C_17 
REMARK    5  A    between atoms: C_24  and  C_18 
REMARK    6  A    between atoms: N_28  and  C_19 
REMARK    7  A    between atoms: N_29  and  C_21 
REMARK    8  A    between atoms: O_31  and  C_23 
REMARK       I    between atoms: N_25  and  C_24 
ROOT
HETATM    1  C   UNK N   1      31.318  17.297   8.714  0.00  0.00     0.028 A 
HETATM    2  C   UNK N   1      30.153  17.785   8.167  0.00  0.00     0.033 A 
HETATM    3  C   UNK N   1      31.893  16.460   7.771  0.00  0.00     0.018 A 
HETATM    4  C   UNK N   1      30.039  17.205   6.927  0.00  0.00     0.050 A 
HETATM    5  N   UNK N   1      31.104  16.388   6.662  0.00  0.00    -0.314 N 
ENDROOT
BRANCH   4   6
HETATM    6  C   UNK N   1      28.922  17.470   6.000  0.00  0.00    -0.009 A 
HETATM    7  C   UNK N   1      29.007  18.518   5.073  0.00  0.00     0.016 A 
HETATM    8  C   UNK N   1      27.872  18.956   4.401  0.00  0.00     0.031 A 
HETATM    9  C   UNK N   1      26.632  18.358   4.652  0.00  0.00     0.039 A 
HETATM   10  C   UNK N   1      26.558  17.258   5.522  0.00  0.00     0.031 A 
HETATM   11  C   UNK N   1      27.703  16.809   6.189  0.00  0.00     0.016 A 
BRANCH   9  12
HETATM   12  N   UNK N   1      25.441  18.930   4.093  0.00  0.00    -0.317 N 
HETATM   13  C   UNK N   1      24.178  18.515   4.290  0.00  0.00     0.115 A 
HETATM   14  C   UNK N   1      23.342  19.394   3.630  0.00  0.00     0.106 A 
HETATM   15  N   UNK N   1      24.096  20.345   3.040  0.00  0.00    -0.360 N 
HETATM   16  C   UNK N   1      25.374  20.043   3.340  0.00  0.00     0.188 A 
ATOM     17  HN  UNK N   1      23.767  21.131   2.481  1.00  0.00     0.166 HD
ENDBRANCH   9  12
ENDBRANCH   4   6
BRANCH   5  18
HETATM   18  C   UNK N   1      31.306  15.683   5.392  0.00  0.00     0.045 A 
HETATM   19  C   UNK N   1      30.862  14.349   5.291  0.00  0.00     0.031 A 
HETATM   20  C   UNK N   1      31.188  13.536   4.214  0.00  0.00     0.019 A 
HETATM   21  C   UNK N   1      31.956  14.039   3.170  0.00  0.00     0.032 A 
HETATM   22  C   UNK N   1      32.338  15.390   3.192  0.00  0.00     0.026 A 
HETATM   23  C   UNK N   1      32.015  16.220   4.281  0.00  0.00    -0.034 A 
HETATM   24  C   UNK N   1      32.575  17.596   4.264  0.00  0.00     0.050 C 
BRANCH  21  25
HETATM   25  C   UNK N   1      32.421  13.129   2.100  0.00  0.00     0.249 C 
HETATM   26  N   UNK N   1      31.725  12.014   1.800  0.00  0.00    -0.366 N 
HETATM   27  H   UNK N   1      30.958  11.690   2.325  0.00  0.00     0.159 HD
HETATM   28  H   UNK N   1      32.000  11.493   1.011  0.00  0.00     0.159 HD
HETATM   29  O   UNK N   1      33.413  13.410   1.442  0.00  0.00    -0.268 OA
ENDBRANCH  21  25
ENDBRANCH   5  18
BRANCH   3  30
HETATM   30  C   UNK N   1      33.265  15.858   7.925  0.00  0.00     0.068 C 
BRANCH  30  31
HETATM   31  C   UNK N   1      34.030  16.315   9.178  0.00  0.00     0.116 C 
BRANCH  31  32
HETATM   32  C   UNK N   1      34.078  15.288  10.276  0.00  0.00     0.139 C 
HETATM   33  O   UNK N   1      35.127  14.739  10.573  0.00  0.00    -0.650 OA
BRANCH  32  34
HETATM   34  O   UNK N   1      32.969  15.020  10.987  0.00  0.00    -0.776 OA
HETATM   35  H   UNK N   1      32.708  15.221  11.865  0.00  0.00     0.167 HD
ENDBRANCH  32  34
ENDBRANCH  31  32
ENDBRANCH  30  31
ENDBRANCH   3  30
TORSDOF 8
ENDMDL
