MODEL 1
REMARK VINA RESULT:      -8.5      0.000      0.000
REMARK  23 active torsions:
REMARK  status: ('A' for Active; 'I' for Inactive)
REMARK    1  A    between atoms: C_2  and  C_3 
REMARK    2  A    between atoms: C_45  and  C_2 
REMARK    3  A    between atoms: C_3  and  C_4 
REMARK    4  A    between atoms: C_4  and  C_5 
REMARK       I    between atoms: C_5  and  N_7 
REMARK    5  A    between atoms: C_8  and  N_7 
REMARK    6  A    between atoms: C_8  and  C_9 
REMARK    7  A    between atoms: C_8  and  C_42 
REMARK    8  A    between atoms: C_9  and  C_10 
REMARK    9  A    between atoms: C_10  and  C_11 
REMARK   10  A    between atoms: C_11  and  C_12 
REMARK   11  A    between atoms: C_12  and  N_13 
REMARK   12  A    between atoms: N_13  and  C_14 
REMARK   13  A    between atoms: C_14  and  N_16 
REMARK   14  A    between atoms: N_16  and  C_17 
REMARK   15  A    between atoms: C_20  and  C_26 
REMARK   16  A    between atoms: C_21  and  C_23 
REMARK   17  A    between atoms: C_23  and  O_25 
REMARK   18  A    between atoms: C_30  and  O_41 
REMARK   19  A    between atoms: C_38  and  O_40 
REMARK   20  A    between atoms: C_42  and  O_44 
REMARK   21  A    between atoms: C_50  and  O_65 
REMARK   22  A    between atoms: C_54  and  O_64 
REMARK   23  A    between atoms: C_60  and  O_62 
ROOT
HETATM    1  C   UNK N   1      22.802  12.208  10.148  0.00  0.00     0.182 C 
ENDROOT
BRANCH   1   2
HETATM    2  N   UNK N   1      22.275  13.475   9.794  0.00  0.00    -0.347 N 
HETATM    3  C   UNK N   1      20.945  13.715   9.842  0.00  0.00     0.218 C 
HETATM    4  O   UNK N   1      20.208  13.035  10.537  0.00  0.00    -0.274 OA
HETATM    5  H   UNK N   1      22.887  14.191   9.510  0.00  0.00     0.163 HD
BRANCH   3   6
HETATM    6  C   UNK N   1      20.350  14.712   8.909  0.00  0.00     0.103 C 
BRANCH   6   7
HETATM    7  C   UNK N   1      21.385  15.576   8.172  0.00  0.00     0.014 C 
BRANCH   7   8
HETATM    8  C   UNK N   1      20.846  16.396   6.992  0.00  0.00    -0.013 C 
HETATM    9  C   UNK N   1      20.742  17.854   7.386  0.00  0.00     0.010 C 
BRANCH   8  10
HETATM   10  C   UNK N   1      21.535  16.262   5.621  0.00  0.00     0.000 C 
HETATM   11  C   UNK N   1      23.025  16.524   5.546  0.00  0.00     0.006 C 
HETATM   12  C   UNK N   1      23.336  16.500   4.043  0.00  0.00     0.006 C 
HETATM   13  C   UNK N   1      22.049  16.061   3.323  0.00  0.00     0.003 C 
HETATM   14  C   UNK N   1      20.931  16.542   4.243  0.00  0.00    -0.010 C 
HETATM   15  C   UNK N   1      22.115  14.540   3.072  0.00  0.00     0.024 C 
HETATM   16  C   UNK N   1      19.634  15.767   3.981  0.00  0.00     0.127 C 
HETATM   17  C   UNK N   1      20.767  18.020   3.911  0.00  0.00     0.018 C 
HETATM   18  C   UNK N   1      19.872  14.313   4.319  0.00  0.00     0.038 C 
HETATM   19  C   UNK N   1      20.784  13.750   3.242  0.00  0.00     0.003 C 
HETATM   20  C   UNK N   1      20.002  13.357   1.971  0.00  0.00    -0.036 C 
HETATM   21  C   UNK N   1      20.948  12.808   0.871  0.00  0.00    -0.001 C 
HETATM   22  C   UNK N   1      18.990  12.288   2.424  0.00  0.00     0.012 C 
HETATM   23  C   UNK N   1      19.256  14.542   1.362  0.00  0.00     0.016 C 
HETATM   24  C   UNK N   1      22.449  12.921   1.151  0.00  0.00     0.037 C 
HETATM   25  C   UNK N   1      20.521  11.477   0.252  0.00  0.00     0.037 C 
HETATM   26  C   UNK N   1      22.723  14.322   1.678  0.00  0.00     0.123 C 
HETATM   27  C   UNK N   1      19.016  11.511  -0.006  0.00  0.00     0.118 C 
HETATM   28  C   UNK N   1      18.211  11.625   1.289  0.00  0.00     0.032 C 
BRANCH  16  29
HETATM   29  O   UNK N   1      18.523  16.244   4.668  0.00  0.00    -0.395 OA
HETATM   30  H   UNK N   1      18.111  17.086   4.418  0.00  0.00     0.210 HD
ENDBRANCH  16  29
BRANCH  26  31
HETATM   31  O   UNK N   1      24.089  14.603   1.674  0.00  0.00    -0.395 OA
HETATM   32  H   UNK N   1      24.665  14.254   2.372  0.00  0.00     0.210 HD
ENDBRANCH  26  31
BRANCH  27  33
HETATM   33  O   UNK N   1      18.617  10.369  -0.692  0.00  0.00    -0.396 OA
HETATM   34  H   UNK N   1      18.088  10.425  -1.503  0.00  0.00     0.210 HD
ENDBRANCH  27  33
ENDBRANCH   8  10
ENDBRANCH   7   8
ENDBRANCH   6   7
ENDBRANCH   3   6
ENDBRANCH   1   2
BRANCH   1  35
HETATM   35  C   UNK N   1      23.550  11.739   8.913  0.00  0.00     0.036 C 
BRANCH  35  36
HETATM   36  C   UNK N   1      23.761  12.912   7.933  0.00  0.00     0.004 C 
BRANCH  36  37
HETATM   37  C   UNK N   1      23.316  12.692   6.455  0.00  0.00     0.020 C 
BRANCH  37  38
HETATM   38  C   UNK N   1      23.933  11.514   5.645  0.00  0.00     0.122 C 
BRANCH  38  39
HETATM   39  N   UNK N   1      23.972  11.793   4.227  0.00  0.00    -0.367 N 
HETATM   40  H   UNK N   1      23.141  11.832   3.701  0.00  0.00     0.161 HD
BRANCH  39  41
HETATM   41  C   UNK N   1      25.218  12.008   3.615  0.00  0.00     0.172 C 
HETATM   42  S   UNK N   1      25.857  10.950   2.871  0.00  0.00    -0.041 SA
BRANCH  41  43
HETATM   43  N   UNK N   1      25.719  13.339   3.580  0.00  0.00    -0.333 N 
HETATM   44  H   UNK N   1      25.368  14.001   2.941  0.00  0.00     0.168 HD
BRANCH  43  45
HETATM   45  C   UNK N   1      26.729  13.671   4.487  0.00  0.00     0.035 C 
HETATM   46  C   UNK N   1      26.319  14.376   5.618  0.00  0.00     0.030 C 
HETATM   47  C   UNK N   1      26.924  15.564   5.923  0.00  0.00     0.011 C 
HETATM   48  C   UNK N   1      27.956  16.060   5.113  0.00  0.00    -0.028 C 
HETATM   49  C   UNK N   1      28.542  15.188   4.143  0.00  0.00     0.047 C 
HETATM   50  C   UNK N   1      27.911  13.985   3.871  0.00  0.00     0.048 C 
BRANCH  48  51
HETATM   51  C   UNK N   1      28.311  17.528   5.273  0.00  0.00     0.091 A 
HETATM   52  C   UNK N   1      28.716  17.857   6.679  0.00  0.00    -0.011 A 
HETATM   53  C   UNK N   1      29.798  17.198   7.265  0.00  0.00     0.014 A 
HETATM   54  C   UNK N   1      28.035  18.850   7.409  0.00  0.00     0.086 A 
HETATM   55  C   UNK N   1      30.224  17.511   8.545  0.00  0.00     0.037 A 
HETATM   56  C   UNK N   1      29.560  18.497   9.265  0.00  0.00     0.068 A 
HETATM   57  C   UNK N   1      28.464  19.162   8.704  0.00  0.00     0.074 A 
HETATM   58  O   UNK N   1      26.987  19.521   6.878  0.00  0.00    -0.309 OA
HETATM   59  C   UNK N   1      26.565  19.361   5.602  0.00  0.00     0.086 A 
HETATM   60  C   UNK N   1      27.190  18.433   4.749  0.00  0.00    -0.011 A 
HETATM   61  C   UNK N   1      25.494  20.133   5.133  0.00  0.00     0.074 A 
HETATM   62  C   UNK N   1      26.737  18.311   3.420  0.00  0.00     0.014 A 
HETATM   63  C   UNK N   1      25.665  19.085   2.960  0.00  0.00     0.037 A 
HETATM   64  C   UNK N   1      25.040  19.991   3.819  0.00  0.00     0.068 A 
BRANCH  56  65
HETATM   65  O   UNK N   1      29.979  18.811  10.499  0.00  0.00    -0.361 OA
HETATM   66  H   UNK N   1      30.200  19.690  10.738  0.00  0.00     0.217 HD
ENDBRANCH  56  65
BRANCH  64  67
HETATM   67  O   UNK N   1      24.004  20.728   3.384  0.00  0.00    -0.361 OA
HETATM   68  H   UNK N   1      24.088  21.657   3.296  0.00  0.00     0.217 HD
ENDBRANCH  64  67
ENDBRANCH  48  51
BRANCH  49  69
HETATM   69  C   UNK N   1      29.649  15.498   3.212  0.00  0.00     0.176 C 
HETATM   70  O   UNK N   1      30.447  14.631   2.907  0.00  0.00    -0.646 OA
BRANCH  69  71
HETATM   71  O   UNK N   1      29.726  16.702   2.614  0.00  0.00    -0.773 OA
HETATM   72  H   UNK N   1      29.298  17.535   2.567  0.00  0.00     0.167 HD
ENDBRANCH  69  71
ENDBRANCH  49  69
ENDBRANCH  43  45
ENDBRANCH  41  43
ENDBRANCH  39  41
ENDBRANCH  38  39
ENDBRANCH  37  38
ENDBRANCH  36  37
ENDBRANCH  35  36
ENDBRANCH   1  35
BRANCH   1  73
HETATM   73  C   UNK N   1      23.667  12.230  11.366  0.00  0.00     0.163 C 
HETATM   74  O   UNK N   1      23.181  11.947  12.449  0.00  0.00    -0.648 OA
BRANCH  73  75
HETATM   75  O   UNK N   1      24.981  12.505  11.274  0.00  0.00    -0.775 OA
HETATM   76  H   UNK N   1      25.906  12.413  11.397  0.00  0.00     0.167 HD
ENDBRANCH  73  75
ENDBRANCH   1  73
TORSDOF 23
ENDMDL
MODEL 2
REMARK VINA RESULT:      -8.4      7.721     14.103
REMARK  23 active torsions:
REMARK  status: ('A' for Active; 'I' for Inactive)
REMARK    1  A    between atoms: C_2  and  C_3 
REMARK    2  A    between atoms: C_45  and  C_2 
REMARK    3  A    between atoms: C_3  and  C_4 
REMARK    4  A    between atoms: C_4  and  C_5 
REMARK       I    between atoms: C_5  and  N_7 
REMARK    5  A    between atoms: C_8  and  N_7 
REMARK    6  A    between atoms: C_8  and  C_9 
REMARK    7  A    between atoms: C_8  and  C_42 
REMARK    8  A    between atoms: C_9  and  C_10 
REMARK    9  A    between atoms: C_10  and  C_11 
REMARK   10  A    between atoms: C_11  and  C_12 
REMARK   11  A    between atoms: C_12  and  N_13 
REMARK   12  A    between atoms: N_13  and  C_14 
REMARK   13  A    between atoms: C_14  and  N_16 
REMARK   14  A    between atoms: N_16  and  C_17 
REMARK   15  A    between atoms: C_20  and  C_26 
REMARK   16  A    between atoms: C_21  and  C_23 
REMARK   17  A    between atoms: C_23  and  O_25 
REMARK   18  A    between atoms: C_30  and  O_41 
REMARK   19  A    between atoms: C_38  and  O_40 
REMARK   20  A    between atoms: C_42  and  O_44 
REMARK   21  A    between atoms: C_50  and  O_65 
REMARK   22  A    between atoms: C_54  and  O_64 
REMARK   23  A    between atoms: C_60  and  O_62 
ROOT
HETATM    1  C   UNK N   1      35.586  15.199   9.358  0.00  0.00     0.182 C 
ENDROOT
BRANCH   1   2
HETATM    2  N   UNK N   1      36.521  14.767  10.332  0.00  0.00    -0.347 N 
HETATM    3  C   UNK N   1      37.634  14.087   9.976  0.00  0.00     0.218 C 
HETATM    4  O   UNK N   1      38.078  14.156   8.841  0.00  0.00    -0.274 OA
HETATM    5  H   UNK N   1      36.358  14.967  11.281  0.00  0.00     0.163 HD
BRANCH   3   6
HETATM    6  C   UNK N   1      38.229  13.110  10.931  0.00  0.00     0.103 C 
BRANCH   6   7
HETATM    7  C   UNK N   1      38.076  11.642  10.503  0.00  0.00     0.014 C 
BRANCH   7   8
HETATM    8  C   UNK N   1      36.636  11.117  10.435  0.00  0.00    -0.013 C 
HETATM    9  C   UNK N   1      36.397  10.451   9.096  0.00  0.00     0.010 C 
BRANCH   8  10
HETATM   10  C   UNK N   1      36.118  10.222  11.575  0.00  0.00     0.000 C 
HETATM   11  C   UNK N   1      36.430   8.741  11.513  0.00  0.00     0.006 C 
HETATM   12  C   UNK N   1      35.618   8.137  12.666  0.00  0.00     0.006 C 
HETATM   13  C   UNK N   1      35.004   9.311  13.450  0.00  0.00     0.003 C 
HETATM   14  C   UNK N   1      34.844  10.407  12.401  0.00  0.00    -0.010 C 
HETATM   15  C   UNK N   1      35.920   9.643  14.645  0.00  0.00     0.024 C 
HETATM   16  C   UNK N   1      34.746  11.787  13.063  0.00  0.00     0.127 C 
HETATM   17  C   UNK N   1      33.555  10.054  11.667  0.00  0.00     0.018 C 
HETATM   18  C   UNK N   1      36.047  12.066  13.779  0.00  0.00     0.038 C 
HETATM   19  C   UNK N   1      36.091  11.151  14.991  0.00  0.00     0.003 C 
HETATM   20  C   UNK N   1      35.283  11.724  16.175  0.00  0.00    -0.036 C 
HETATM   21  C   UNK N   1      35.316  10.768  17.397  0.00  0.00    -0.001 C 
HETATM   22  C   UNK N   1      35.940  13.077  16.505  0.00  0.00     0.012 C 
HETATM   23  C   UNK N   1      33.814  11.940  15.822  0.00  0.00     0.016 C 
HETATM   24  C   UNK N   1      35.956   9.397  17.167  0.00  0.00     0.037 C 
HETATM   25  C   UNK N   1      35.693  11.425  18.726  0.00  0.00     0.037 C 
HETATM   26  C   UNK N   1      35.418   8.842  15.857  0.00  0.00     0.123 C 
HETATM   27  C   UNK N   1      34.963  12.761  18.841  0.00  0.00     0.118 C 
HETATM   28  C   UNK N   1      35.405  13.755  17.765  0.00  0.00     0.032 C 
BRANCH  16  29
HETATM   29  O   UNK N   1      34.445  12.829  12.192  0.00  0.00    -0.395 OA
HETATM   30  H   UNK N   1      33.954  13.606  12.501  0.00  0.00     0.210 HD
ENDBRANCH  16  29
BRANCH  26  31
HETATM   31  O   UNK N   1      35.715   7.486  15.724  0.00  0.00    -0.395 OA
HETATM   32  H   UNK N   1      35.237   6.824  16.247  0.00  0.00     0.210 HD
ENDBRANCH  26  31
BRANCH  27  33
HETATM   33  O   UNK N   1      35.178  13.322  20.096  0.00  0.00    -0.396 OA
HETATM   34  H   UNK N   1      34.447  13.467  20.717  0.00  0.00     0.210 HD
ENDBRANCH  27  33
ENDBRANCH   8  10
ENDBRANCH   7   8
ENDBRANCH   6   7
ENDBRANCH   3   6
ENDBRANCH   1   2
BRANCH   1  35
HETATM   35  C   UNK N   1      34.588  14.060   9.246  0.00  0.00     0.036 C 
BRANCH  35  36
HETATM   36  C   UNK N   1      34.646  13.429   7.839  0.00  0.00     0.004 C 
BRANCH  36  37
HETATM   37  C   UNK N   1      33.892  14.174   6.695  0.00  0.00     0.020 C 
BRANCH  37  38
HETATM   38  C   UNK N   1      34.657  15.231   5.847  0.00  0.00     0.122 C 
BRANCH  38  39
HETATM   39  N   UNK N   1      34.149  16.568   6.061  0.00  0.00    -0.367 N 
HETATM   40  H   UNK N   1      34.523  17.138   6.770  0.00  0.00     0.161 HD
BRANCH  39  41
HETATM   41  C   UNK N   1      33.112  17.037   5.237  0.00  0.00     0.172 C 
HETATM   42  S   UNK N   1      33.132  16.772   3.818  0.00  0.00    -0.041 SA
BRANCH  41  43
HETATM   43  N   UNK N   1      31.963  17.590   5.866  0.00  0.00    -0.333 N 
HETATM   44  H   UNK N   1      31.828  18.564   5.920  0.00  0.00     0.168 HD
BRANCH  43  45
HETATM   45  C   UNK N   1      31.032  16.698   6.405  0.00  0.00     0.035 C 
HETATM   46  C   UNK N   1      30.230  16.029   5.482  0.00  0.00     0.030 C 
HETATM   47  C   UNK N   1      28.870  16.088   5.608  0.00  0.00     0.011 C 
HETATM   48  C   UNK N   1      28.289  16.804   6.665  0.00  0.00    -0.028 C 
HETATM   49  C   UNK N   1      29.126  17.230   7.744  0.00  0.00     0.047 C 
HETATM   50  C   UNK N   1      30.499  17.140   7.587  0.00  0.00     0.048 C 
BRANCH  48  51
HETATM   51  C   UNK N   1      26.816  17.151   6.534  0.00  0.00     0.091 A 
HETATM   52  C   UNK N   1      25.967  15.930   6.335  0.00  0.00    -0.011 A 
HETATM   53  C   UNK N   1      25.976  14.913   7.291  0.00  0.00     0.014 A 
HETATM   54  C   UNK N   1      25.135  15.809   5.206  0.00  0.00     0.086 A 
HETATM   55  C   UNK N   1      25.170  13.794   7.158  0.00  0.00     0.037 A 
HETATM   56  C   UNK N   1      24.340  13.676   6.050  0.00  0.00     0.068 A 
HETATM   57  C   UNK N   1      24.326  14.676   5.071  0.00  0.00     0.074 A 
HETATM   58  O   UNK N   1      25.089  16.774   4.259  0.00  0.00    -0.309 OA
HETATM   59  C   UNK N   1      25.756  17.948   4.352  0.00  0.00     0.086 A 
HETATM   60  C   UNK N   1      26.587  18.216   5.455  0.00  0.00    -0.011 A 
HETATM   61  C   UNK N   1      25.611  18.901   3.336  0.00  0.00     0.074 A 
HETATM   62  C   UNK N   1      27.249  19.459   5.528  0.00  0.00     0.014 A 
HETATM   63  C   UNK N   1      27.100  20.405   4.508  0.00  0.00     0.037 A 
HETATM   64  C   UNK N   1      26.286  20.123   3.409  0.00  0.00     0.068 A 
BRANCH  56  65
HETATM   65  O   UNK N   1      23.550  12.601   5.926  0.00  0.00    -0.361 OA
HETATM   66  H   UNK N   1      23.154  12.368   5.109  0.00  0.00     0.217 HD
ENDBRANCH  56  65
BRANCH  64  67
HETATM   67  O   UNK N   1      26.148  21.025   2.422  0.00  0.00    -0.361 OA
HETATM   68  H   UNK N   1      25.643  20.820   1.661  0.00  0.00     0.217 HD
ENDBRANCH  64  67
ENDBRANCH  48  51
BRANCH  49  69
HETATM   69  C   UNK N   1      28.716  17.968   8.958  0.00  0.00     0.176 C 
HETATM   70  O   UNK N   1      29.516  18.683   9.532  0.00  0.00    -0.646 OA
BRANCH  69  71
HETATM   71  O   UNK N   1      27.437  17.943   9.378  0.00  0.00    -0.773 OA
HETATM   72  H   UNK N   1      26.605  17.553   9.195  0.00  0.00     0.167 HD
ENDBRANCH  69  71
ENDBRANCH  49  69
ENDBRANCH  43  45
ENDBRANCH  41  43
ENDBRANCH  39  41
ENDBRANCH  38  39
ENDBRANCH  37  38
ENDBRANCH  36  37
ENDBRANCH  35  36
ENDBRANCH   1  35
BRANCH   1  73
HETATM   73  C   UNK N   1      34.932  16.502   9.681  0.00  0.00     0.163 C 
HETATM   74  O   UNK N   1      35.575  17.368  10.251  0.00  0.00    -0.648 OA
BRANCH  73  75
HETATM   75  O   UNK N   1      33.663  16.750   9.305  0.00  0.00    -0.775 OA
HETATM   76  H   UNK N   1      32.918  16.842   8.744  0.00  0.00     0.167 HD
ENDBRANCH  73  75
ENDBRANCH   1  73
TORSDOF 23
ENDMDL
MODEL 3
REMARK VINA RESULT:      -8.1      7.669     14.152
REMARK  23 active torsions:
REMARK  status: ('A' for Active; 'I' for Inactive)
REMARK    1  A    between atoms: C_2  and  C_3 
REMARK    2  A    between atoms: C_45  and  C_2 
REMARK    3  A    between atoms: C_3  and  C_4 
REMARK    4  A    between atoms: C_4  and  C_5 
REMARK       I    between atoms: C_5  and  N_7 
REMARK    5  A    between atoms: C_8  and  N_7 
REMARK    6  A    between atoms: C_8  and  C_9 
REMARK    7  A    between atoms: C_8  and  C_42 
REMARK    8  A    between atoms: C_9  and  C_10 
REMARK    9  A    between atoms: C_10  and  C_11 
REMARK   10  A    between atoms: C_11  and  C_12 
REMARK   11  A    between atoms: C_12  and  N_13 
REMARK   12  A    between atoms: N_13  and  C_14 
REMARK   13  A    between atoms: C_14  and  N_16 
REMARK   14  A    between atoms: N_16  and  C_17 
REMARK   15  A    between atoms: C_20  and  C_26 
REMARK   16  A    between atoms: C_21  and  C_23 
REMARK   17  A    between atoms: C_23  and  O_25 
REMARK   18  A    between atoms: C_30  and  O_41 
REMARK   19  A    between atoms: C_38  and  O_40 
REMARK   20  A    between atoms: C_42  and  O_44 
REMARK   21  A    between atoms: C_50  and  O_65 
REMARK   22  A    between atoms: C_54  and  O_64 
REMARK   23  A    between atoms: C_60  and  O_62 
ROOT
HETATM    1  C   UNK N   1      36.200  15.268   9.804  0.00  0.00     0.182 C 
ENDROOT
BRANCH   1   2
HETATM    2  N   UNK N   1      37.054  14.508  10.641  0.00  0.00    -0.347 N 
HETATM    3  C   UNK N   1      38.147  13.888  10.143  0.00  0.00     0.218 C 
HETATM    4  O   UNK N   1      38.658  14.256   9.098  0.00  0.00    -0.274 OA
HETATM    5  H   UNK N   1      36.848  14.432  11.600  0.00  0.00     0.163 HD
BRANCH   3   6
HETATM    6  C   UNK N   1      38.634  12.636  10.789  0.00  0.00     0.103 C 
BRANCH   6   7
HETATM    7  C   UNK N   1      38.202  11.350  10.067  0.00  0.00     0.014 C 
BRANCH   7   8
HETATM    8  C   UNK N   1      36.702  11.030  10.124  0.00  0.00    -0.013 C 
HETATM    9  C   UNK N   1      36.249  10.462   8.794  0.00  0.00     0.010 C 
BRANCH   8  10
HETATM   10  C   UNK N   1      36.172  10.163  11.281  0.00  0.00     0.000 C 
HETATM   11  C   UNK N   1      36.465   8.677  11.248  0.00  0.00     0.006 C 
HETATM   12  C   UNK N   1      35.644   8.106  12.412  0.00  0.00     0.006 C 
HETATM   13  C   UNK N   1      35.045   9.302  13.172  0.00  0.00     0.003 C 
HETATM   14  C   UNK N   1      34.899  10.380  12.102  0.00  0.00    -0.010 C 
HETATM   15  C   UNK N   1      35.965   9.646  14.361  0.00  0.00     0.024 C 
HETATM   16  C   UNK N   1      34.818  11.774  12.737  0.00  0.00     0.127 C 
HETATM   17  C   UNK N   1      33.607  10.029  11.373  0.00  0.00     0.018 C 
HETATM   18  C   UNK N   1      36.123  12.050  13.448  0.00  0.00     0.038 C 
HETATM   19  C   UNK N   1      36.154  11.158  14.678  0.00  0.00     0.003 C 
HETATM   20  C   UNK N   1      35.353  11.764  15.850  0.00  0.00    -0.036 C 
HETATM   21  C   UNK N   1      35.372  10.832  17.090  0.00  0.00    -0.001 C 
HETATM   22  C   UNK N   1      36.026  13.115  16.154  0.00  0.00     0.012 C 
HETATM   23  C   UNK N   1      33.887  11.992  15.491  0.00  0.00     0.016 C 
HETATM   24  C   UNK N   1      35.995   9.448  16.888  0.00  0.00     0.037 C 
HETATM   25  C   UNK N   1      35.756  11.509  18.406  0.00  0.00     0.037 C 
HETATM   26  C   UNK N   1      35.451   8.875  15.587  0.00  0.00     0.123 C 
HETATM   27  C   UNK N   1      35.043  12.857  18.495  0.00  0.00     0.118 C 
HETATM   28  C   UNK N   1      35.498  13.824  17.401  0.00  0.00     0.032 C 
BRANCH  16  29
HETATM   29  O   UNK N   1      34.532  12.802  11.845  0.00  0.00    -0.395 OA
HETATM   30  H   UNK N   1      33.742  13.354  11.964  0.00  0.00     0.210 HD
ENDBRANCH  16  29
BRANCH  26  31
HETATM   31  O   UNK N   1      35.731   7.513  15.481  0.00  0.00    -0.395 OA
HETATM   32  H   UNK N   1      35.852   6.972  16.277  0.00  0.00     0.210 HD
ENDBRANCH  26  31
BRANCH  27  33
HETATM   33  O   UNK N   1      35.264  13.439  19.739  0.00  0.00    -0.396 OA
HETATM   34  H   UNK N   1      34.579  13.439  20.426  0.00  0.00     0.210 HD
ENDBRANCH  27  33
ENDBRANCH   8  10
ENDBRANCH   7   8
ENDBRANCH   6   7
ENDBRANCH   3   6
ENDBRANCH   1   2
BRANCH   1  35
HETATM   35  C   UNK N   1      35.447  14.239   8.980  0.00  0.00     0.036 C 
BRANCH  35  36
HETATM   36  C   UNK N   1      35.090  14.814   7.594  0.00  0.00     0.004 C 
BRANCH  36  37
HETATM   37  C   UNK N   1      33.605  15.229   7.358  0.00  0.00     0.020 C 
BRANCH  37  38
HETATM   38  C   UNK N   1      33.132  16.640   7.815  0.00  0.00     0.122 C 
BRANCH  38  39
HETATM   39  N   UNK N   1      32.095  16.565   8.820  0.00  0.00    -0.367 N 
HETATM   40  H   UNK N   1      32.230  16.036   9.640  0.00  0.00     0.161 HD
BRANCH  39  41
HETATM   41  C   UNK N   1      30.894  17.261   8.606  0.00  0.00     0.172 C 
HETATM   42  S   UNK N   1      30.690  18.562   9.196  0.00  0.00    -0.041 SA
BRANCH  41  43
HETATM   43  N   UNK N   1      29.989  16.740   7.640  0.00  0.00    -0.333 N 
HETATM   44  H   UNK N   1      29.723  15.792   7.646  0.00  0.00     0.168 HD
BRANCH  43  45
HETATM   45  C   UNK N   1      29.492  17.627   6.681  0.00  0.00     0.035 C 
HETATM   46  C   UNK N   1      28.259  18.208   6.976  0.00  0.00     0.030 C 
HETATM   47  C   UNK N   1      27.236  18.104   6.075  0.00  0.00     0.011 C 
HETATM   48  C   UNK N   1      27.430  17.432   4.859  0.00  0.00    -0.028 C 
HETATM   49  C   UNK N   1      28.766  17.104   4.466  0.00  0.00     0.047 C 
HETATM   50  C   UNK N   1      29.780  17.237   5.400  0.00  0.00     0.048 C 
BRANCH  48  51
HETATM   51  C   UNK N   1      26.185  17.021   4.093  0.00  0.00     0.091 A 
HETATM   52  C   UNK N   1      25.310  18.197   3.774  0.00  0.00    -0.011 A 
HETATM   53  C   UNK N   1      25.817  19.259   3.022  0.00  0.00     0.014 A 
HETATM   54  C   UNK N   1      23.968  18.231   4.199  0.00  0.00     0.086 A 
HETATM   55  C   UNK N   1      25.020  20.338   2.674  0.00  0.00     0.037 A 
HETATM   56  C   UNK N   1      23.693  20.370   3.083  0.00  0.00     0.068 A 
HETATM   57  C   UNK N   1      23.167  19.323   3.850  0.00  0.00     0.074 A 
HETATM   58  O   UNK N   1      23.433  17.220   4.921  0.00  0.00    -0.309 OA
HETATM   59  C   UNK N   1      24.097  16.079   5.220  0.00  0.00     0.086 A 
HETATM   60  C   UNK N   1      25.432  15.897   4.813  0.00  0.00    -0.011 A 
HETATM   61  C   UNK N   1      23.441  15.073   5.941  0.00  0.00     0.074 A 
HETATM   62  C   UNK N   1      26.083  14.687   5.124  0.00  0.00     0.014 A 
HETATM   63  C   UNK N   1      25.421  13.687   5.846  0.00  0.00     0.037 A 
HETATM   64  C   UNK N   1      24.102  13.884   6.259  0.00  0.00     0.068 A 
BRANCH  56  65
HETATM   65  O   UNK N   1      22.918  21.405   2.735  0.00  0.00    -0.361 OA
HETATM   66  H   UNK N   1      23.103  21.932   1.983  0.00  0.00     0.217 HD
ENDBRANCH  56  65
BRANCH  64  67
HETATM   67  O   UNK N   1      23.466  12.930   6.961  0.00  0.00    -0.361 OA
HETATM   68  H   UNK N   1      23.349  12.075   6.600  0.00  0.00     0.217 HD
ENDBRANCH  64  67
ENDBRANCH  48  51
BRANCH  49  69
HETATM   69  C   UNK N   1      29.192  16.424   3.223  0.00  0.00     0.176 C 
HETATM   70  O   UNK N   1      28.662  15.381   2.890  0.00  0.00    -0.646 OA
BRANCH  69  71
HETATM   71  O   UNK N   1      30.087  16.999   2.398  0.00  0.00    -0.773 OA
HETATM   72  H   UNK N   1      30.933  16.867   2.015  0.00  0.00     0.167 HD
ENDBRANCH  69  71
ENDBRANCH  49  69
ENDBRANCH  43  45
ENDBRANCH  41  43
ENDBRANCH  39  41
ENDBRANCH  38  39
ENDBRANCH  37  38
ENDBRANCH  36  37
ENDBRANCH  35  36
ENDBRANCH   1  35
BRANCH   1  73
HETATM   73  C   UNK N   1      35.286  16.188  10.545  0.00  0.00     0.163 C 
HETATM   74  O   UNK N   1      35.542  17.380  10.585  0.00  0.00    -0.648 OA
BRANCH  73  75
HETATM   75  O   UNK N   1      34.160  15.726  11.121  0.00  0.00    -0.775 OA
HETATM   76  H   UNK N   1      33.600  15.351  11.772  0.00  0.00     0.167 HD
ENDBRANCH  73  75
ENDBRANCH   1  73
TORSDOF 23
ENDMDL
MODEL 4
REMARK VINA RESULT:      -8.1      2.673      6.174
REMARK  23 active torsions:
REMARK  status: ('A' for Active; 'I' for Inactive)
REMARK    1  A    between atoms: C_2  and  C_3 
REMARK    2  A    between atoms: C_45  and  C_2 
REMARK    3  A    between atoms: C_3  and  C_4 
REMARK    4  A    between atoms: C_4  and  C_5 
REMARK       I    between atoms: C_5  and  N_7 
REMARK    5  A    between atoms: C_8  and  N_7 
REMARK    6  A    between atoms: C_8  and  C_9 
REMARK    7  A    between atoms: C_8  and  C_42 
REMARK    8  A    between atoms: C_9  and  C_10 
REMARK    9  A    between atoms: C_10  and  C_11 
REMARK   10  A    between atoms: C_11  and  C_12 
REMARK   11  A    between atoms: C_12  and  N_13 
REMARK   12  A    between atoms: N_13  and  C_14 
REMARK   13  A    between atoms: C_14  and  N_16 
REMARK   14  A    between atoms: N_16  and  C_17 
REMARK   15  A    between atoms: C_20  and  C_26 
REMARK   16  A    between atoms: C_21  and  C_23 
REMARK   17  A    between atoms: C_23  and  O_25 
REMARK   18  A    between atoms: C_30  and  O_41 
REMARK   19  A    between atoms: C_38  and  O_40 
REMARK   20  A    between atoms: C_42  and  O_44 
REMARK   21  A    between atoms: C_50  and  O_65 
REMARK   22  A    between atoms: C_54  and  O_64 
REMARK   23  A    between atoms: C_60  and  O_62 
ROOT
HETATM    1  C   UNK N   1      25.015  18.789   4.590  0.00  0.00     0.182 C 
ENDROOT
BRANCH   1   2
HETATM    2  N   UNK N   1      23.753  19.201   4.095  0.00  0.00    -0.347 N 
HETATM    3  C   UNK N   1      22.617  18.576   4.479  0.00  0.00     0.218 C 
HETATM    4  O   UNK N   1      22.570  17.934   5.515  0.00  0.00    -0.274 OA
HETATM    5  H   UNK N   1      23.703  19.954   3.464  0.00  0.00     0.163 HD
BRANCH   3   6
HETATM    6  C   UNK N   1      21.457  18.532   3.543  0.00  0.00     0.103 C 
BRANCH   6   7
HETATM    7  C   UNK N   1      20.359  17.539   3.955  0.00  0.00     0.014 C 
BRANCH   7   8
HETATM    8  C   UNK N   1      20.327  16.222   3.167  0.00  0.00    -0.013 C 
HETATM    9  C   UNK N   1      20.216  16.514   1.685  0.00  0.00     0.010 C 
BRANCH   8  10
HETATM   10  C   UNK N   1      21.429  15.178   3.423  0.00  0.00     0.000 C 
HETATM   11  C   UNK N   1      22.616  15.152   2.482  0.00  0.00     0.006 C 
HETATM   12  C   UNK N   1      23.397  13.898   2.897  0.00  0.00     0.006 C 
HETATM   13  C   UNK N   1      22.723  13.345   4.166  0.00  0.00     0.003 C 
HETATM   14  C   UNK N   1      21.268  13.782   4.028  0.00  0.00    -0.010 C 
HETATM   15  C   UNK N   1      23.479  13.878   5.401  0.00  0.00     0.024 C 
HETATM   16  C   UNK N   1      20.567  13.789   5.392  0.00  0.00     0.127 C 
HETATM   17  C   UNK N   1      20.644  12.754   3.092  0.00  0.00     0.018 C 
HETATM   18  C   UNK N   1      21.242  14.818   6.269  0.00  0.00     0.038 C 
HETATM   19  C   UNK N   1      22.608  14.263   6.634  0.00  0.00     0.003 C 
HETATM   20  C   UNK N   1      22.531  13.268   7.811  0.00  0.00    -0.036 C 
HETATM   21  C   UNK N   1      23.929  12.690   8.156  0.00  0.00    -0.001 C 
HETATM   22  C   UNK N   1      21.950  14.069   8.990  0.00  0.00     0.012 C 
HETATM   23  C   UNK N   1      21.625  12.079   7.504  0.00  0.00     0.016 C 
HETATM   24  C   UNK N   1      25.065  13.044   7.193  0.00  0.00     0.037 C 
HETATM   25  C   UNK N   1      24.313  12.757   9.635  0.00  0.00     0.037 C 
HETATM   26  C   UNK N   1      24.555  12.847   5.773  0.00  0.00     0.123 C 
HETATM   27  C   UNK N   1      23.106  12.349  10.477  0.00  0.00     0.118 C 
HETATM   28  C   UNK N   1      21.939  13.324  10.324  0.00  0.00     0.032 C 
BRANCH  16  29
HETATM   29  O   UNK N   1      19.198  14.026   5.340  0.00  0.00    -0.395 OA
HETATM   30  H   UNK N   1      18.818  14.581   4.640  0.00  0.00     0.210 HD
ENDBRANCH  16  29
BRANCH  26  31
HETATM   31  O   UNK N   1      25.604  12.859   4.854  0.00  0.00    -0.395 OA
HETATM   32  H   UNK N   1      26.523  12.916   5.159  0.00  0.00     0.210 HD
ENDBRANCH  26  31
BRANCH  27  33
HETATM   33  O   UNK N   1      23.460  12.268  11.821  0.00  0.00    -0.396 OA
HETATM   34  H   UNK N   1      24.067  11.584  12.143  0.00  0.00     0.210 HD
ENDBRANCH  27  33
ENDBRANCH   8  10
ENDBRANCH   7   8
ENDBRANCH   6   7
ENDBRANCH   3   6
ENDBRANCH   1   2
BRANCH   1  35
HETATM   35  C   UNK N   1      25.660  18.043   3.435  0.00  0.00     0.036 C 
BRANCH  35  36
HETATM   36  C   UNK N   1      25.837  16.552   3.788  0.00  0.00     0.004 C 
BRANCH  36  37
HETATM   37  C   UNK N   1      26.428  15.625   2.681  0.00  0.00     0.020 C 
BRANCH  37  38
HETATM   38  C   UNK N   1      27.967  15.606   2.452  0.00  0.00     0.122 C 
BRANCH  38  39
HETATM   39  N   UNK N   1      28.359  14.604   1.486  0.00  0.00    -0.367 N 
HETATM   40  H   UNK N   1      28.306  14.791   0.521  0.00  0.00     0.161 HD
BRANCH  39  41
HETATM   41  C   UNK N   1      28.817  13.360   1.950  0.00  0.00     0.172 C 
HETATM   42  S   UNK N   1      29.203  12.330   1.015  0.00  0.00    -0.041 SA
BRANCH  41  43
HETATM   43  N   UNK N   1      29.080  13.226   3.342  0.00  0.00    -0.333 N 
HETATM   44  H   UNK N   1      28.351  13.084   3.988  0.00  0.00     0.168 HD
BRANCH  43  45
HETATM   45  C   UNK N   1      30.412  13.305   3.756  0.00  0.00     0.035 C 
HETATM   46  C   UNK N   1      30.636  13.101   5.117  0.00  0.00     0.030 C 
HETATM   47  C   UNK N   1      31.319  14.044   5.833  0.00  0.00     0.011 C 
HETATM   48  C   UNK N   1      31.802  15.199   5.201  0.00  0.00    -0.028 C 
HETATM   49  C   UNK N   1      31.810  15.241   3.771  0.00  0.00     0.047 C 
HETATM   50  C   UNK N   1      31.121  14.260   3.078  0.00  0.00     0.048 C 
BRANCH  48  51
HETATM   51  C   UNK N   1      32.199  16.360   6.096  0.00  0.00     0.091 A 
HETATM   52  C   UNK N   1      33.225  15.958   7.113  0.00  0.00    -0.011 A 
HETATM   53  C   UNK N   1      34.452  15.438   6.696  0.00  0.00     0.014 A 
HETATM   54  C   UNK N   1      32.979  16.128   8.488  0.00  0.00     0.086 A 
HETATM   55  C   UNK N   1      35.437  15.100   7.610  0.00  0.00     0.037 A 
HETATM   56  C   UNK N   1      35.201  15.276   8.968  0.00  0.00     0.068 A 
HETATM   57  C   UNK N   1      33.973  15.782   9.410  0.00  0.00     0.074 A 
HETATM   58  O   UNK N   1      31.808  16.638   8.936  0.00  0.00    -0.309 OA
HETATM   59  C   UNK N   1      30.829  17.095   8.122  0.00  0.00     0.086 A 
HETATM   60  C   UNK N   1      30.969  17.026   6.723  0.00  0.00    -0.011 A 
HETATM   61  C   UNK N   1      29.669  17.641   8.684  0.00  0.00     0.074 A 
HETATM   62  C   UNK N   1      29.937  17.532   5.906  0.00  0.00     0.014 A 
HETATM   63  C   UNK N   1      28.780  18.075   6.476  0.00  0.00     0.037 A 
HETATM   64  C   UNK N   1      28.644  18.123   7.866  0.00  0.00     0.068 A 
BRANCH  56  65
HETATM   65  O   UNK N   1      36.158  14.962   9.852  0.00  0.00    -0.361 OA
HETATM   66  H   UNK N   1      35.955  14.642  10.709  0.00  0.00     0.217 HD
ENDBRANCH  56  65
BRANCH  64  67
HETATM   67  O   UNK N   1      27.530  18.635   8.416  0.00  0.00    -0.361 OA
HETATM   68  H   UNK N   1      26.711  18.189   8.328  0.00  0.00     0.217 HD
ENDBRANCH  64  67
ENDBRANCH  48  51
BRANCH  49  69
HETATM   69  C   UNK N   1      32.296  16.343   2.910  0.00  0.00     0.176 C 
HETATM   70  O   UNK N   1      33.473  16.401   2.607  0.00  0.00    -0.646 OA
BRANCH  69  71
HETATM   71  O   UNK N   1      31.433  17.225   2.371  0.00  0.00    -0.773 OA
HETATM   72  H   UNK N   1      31.399  18.001   1.847  0.00  0.00     0.167 HD
ENDBRANCH  69  71
ENDBRANCH  49  69
ENDBRANCH  43  45
ENDBRANCH  41  43
ENDBRANCH  39  41
ENDBRANCH  38  39
ENDBRANCH  37  38
ENDBRANCH  36  37
ENDBRANCH  35  36
ENDBRANCH   1  35
BRANCH   1  73
HETATM   73  C   UNK N   1      25.865  19.910   5.092  0.00  0.00     0.163 C 
HETATM   74  O   UNK N   1      26.479  20.599   4.294  0.00  0.00    -0.648 OA
BRANCH  73  75
HETATM   75  O   UNK N   1      25.919  20.200   6.405  0.00  0.00    -0.775 OA
HETATM   76  H   UNK N   1      26.285  20.422   7.239  0.00  0.00     0.167 HD
ENDBRANCH  73  75
ENDBRANCH   1  73
TORSDOF 23
ENDMDL
MODEL 5
REMARK VINA RESULT:      -8.0      3.206      7.171
REMARK  23 active torsions:
REMARK  status: ('A' for Active; 'I' for Inactive)
REMARK    1  A    between atoms: C_2  and  C_3 
REMARK    2  A    between atoms: C_45  and  C_2 
REMARK    3  A    between atoms: C_3  and  C_4 
REMARK    4  A    between atoms: C_4  and  C_5 
REMARK       I    between atoms: C_5  and  N_7 
REMARK    5  A    between atoms: C_8  and  N_7 
REMARK    6  A    between atoms: C_8  and  C_9 
REMARK    7  A    between atoms: C_8  and  C_42 
REMARK    8  A    between atoms: C_9  and  C_10 
REMARK    9  A    between atoms: C_10  and  C_11 
REMARK   10  A    between atoms: C_11  and  C_12 
REMARK   11  A    between atoms: C_12  and  N_13 
REMARK   12  A    between atoms: N_13  and  C_14 
REMARK   13  A    between atoms: C_14  and  N_16 
REMARK   14  A    between atoms: N_16  and  C_17 
REMARK   15  A    between atoms: C_20  and  C_26 
REMARK   16  A    between atoms: C_21  and  C_23 
REMARK   17  A    between atoms: C_23  and  O_25 
REMARK   18  A    between atoms: C_30  and  O_41 
REMARK   19  A    between atoms: C_38  and  O_40 
REMARK   20  A    between atoms: C_42  and  O_44 
REMARK   21  A    between atoms: C_50  and  O_65 
REMARK   22  A    between atoms: C_54  and  O_64 
REMARK   23  A    between atoms: C_60  and  O_62 
ROOT
HETATM    1  C   UNK N   1      25.090  18.511   4.645  0.00  0.00     0.182 C 
ENDROOT
BRANCH   1   2
HETATM    2  N   UNK N   1      23.864  19.023   4.153  0.00  0.00    -0.347 N 
HETATM    3  C   UNK N   1      22.680  18.531   4.582  0.00  0.00     0.218 C 
HETATM    4  O   UNK N   1      22.593  17.942   5.648  0.00  0.00    -0.274 OA
HETATM    5  H   UNK N   1      23.874  19.749   3.488  0.00  0.00     0.163 HD
BRANCH   3   6
HETATM    6  C   UNK N   1      21.503  18.560   3.669  0.00  0.00     0.103 C 
BRANCH   6   7
HETATM    7  C   UNK N   1      20.396  17.561   4.043  0.00  0.00     0.014 C 
BRANCH   7   8
HETATM    8  C   UNK N   1      20.439  16.217   3.304  0.00  0.00    -0.013 C 
HETATM    9  C   UNK N   1      20.306  16.448   1.813  0.00  0.00     0.010 C 
BRANCH   8  10
HETATM   10  C   UNK N   1      21.601  15.249   3.592  0.00  0.00     0.000 C 
HETATM   11  C   UNK N   1      22.835  15.340   2.718  0.00  0.00     0.006 C 
HETATM   12  C   UNK N   1      23.686  14.135   3.140  0.00  0.00     0.006 C 
HETATM   13  C   UNK N   1      22.989  13.494   4.354  0.00  0.00     0.003 C 
HETATM   14  C   UNK N   1      21.514  13.826   4.148  0.00  0.00    -0.010 C 
HETATM   15  C   UNK N   1      23.635  14.042   5.643  0.00  0.00     0.024 C 
HETATM   16  C   UNK N   1      20.743  13.738   5.470  0.00  0.00     0.127 C 
HETATM   17  C   UNK N   1      21.020  12.785   3.150  0.00  0.00     0.018 C 
HETATM   18  C   UNK N   1      21.291  14.787   6.412  0.00  0.00     0.038 C 
HETATM   19  C   UNK N   1      22.674  14.323   6.836  0.00  0.00     0.003 C 
HETATM   20  C   UNK N   1      22.609  13.287   7.979  0.00  0.00    -0.036 C 
HETATM   21  C   UNK N   1      24.026  12.804   8.385  0.00  0.00    -0.001 C 
HETATM   22  C   UNK N   1      21.907  14.006   9.146  0.00  0.00     0.012 C 
HETATM   23  C   UNK N   1      21.812  12.045   7.590  0.00  0.00     0.016 C 
HETATM   24  C   UNK N   1      25.182  13.271   7.496  0.00  0.00     0.037 C 
HETATM   25  C   UNK N   1      24.325  12.851   9.884  0.00  0.00     0.037 C 
HETATM   26  C   UNK N   1      24.764  13.081   6.046  0.00  0.00     0.123 C 
HETATM   27  C   UNK N   1      23.109  12.330  10.647  0.00  0.00     0.118 C 
HETATM   28  C   UNK N   1      21.881  13.221  10.456  0.00  0.00     0.032 C 
BRANCH  16  29
HETATM   29  O   UNK N   1      19.364  13.876   5.349  0.00  0.00    -0.395 OA
HETATM   30  H   UNK N   1      18.777  13.635   6.082  0.00  0.00     0.210 HD
ENDBRANCH  16  29
BRANCH  26  31
HETATM   31  O   UNK N   1      25.857  13.199   5.187  0.00  0.00    -0.395 OA
HETATM   32  H   UNK N   1      26.754  13.013   5.505  0.00  0.00     0.210 HD
ENDBRANCH  26  31
BRANCH  27  33
HETATM   33  O   UNK N   1      23.396  12.233  12.005  0.00  0.00    -0.396 OA
HETATM   34  H   UNK N   1      23.449  11.373  12.451  0.00  0.00     0.210 HD
ENDBRANCH  27  33
ENDBRANCH   8  10
ENDBRANCH   7   8
ENDBRANCH   6   7
ENDBRANCH   3   6
ENDBRANCH   1   2
BRANCH   1  35
HETATM   35  C   UNK N   1      25.561  17.539   3.578  0.00  0.00     0.036 C 
BRANCH  35  36
HETATM   36  C   UNK N   1      26.817  16.782   4.056  0.00  0.00     0.004 C 
BRANCH  36  37
HETATM   37  C   UNK N   1      28.060  16.801   3.114  0.00  0.00     0.020 C 
BRANCH  37  38
HETATM   38  C   UNK N   1      29.446  16.373   3.680  0.00  0.00     0.122 C 
BRANCH  38  39
HETATM   39  N   UNK N   1      30.208  15.603   2.723  0.00  0.00    -0.367 N 
HETATM   40  H   UNK N   1      30.443  15.983   1.846  0.00  0.00     0.161 HD
BRANCH  39  41
HETATM   41  C   UNK N   1      30.608  14.301   3.068  0.00  0.00     0.172 C 
HETATM   42  S   UNK N   1      29.653  13.364   3.608  0.00  0.00    -0.041 SA
BRANCH  41  43
HETATM   43  N   UNK N   1      31.912  13.883   2.681  0.00  0.00    -0.333 N 
HETATM   44  H   UNK N   1      32.107  13.608   1.756  0.00  0.00     0.168 HD
BRANCH  43  45
HETATM   45  C   UNK N   1      32.904  13.878   3.665  0.00  0.00     0.035 C 
HETATM   46  C   UNK N   1      32.789  12.885   4.636  0.00  0.00     0.030 C 
HETATM   47  C   UNK N   1      32.772  13.238   5.957  0.00  0.00     0.011 C 
HETATM   48  C   UNK N   1      32.884  14.585   6.330  0.00  0.00    -0.028 C 
HETATM   49  C   UNK N   1      33.287  15.537   5.341  0.00  0.00     0.047 C 
HETATM   50  C   UNK N   1      33.308  15.140   4.014  0.00  0.00     0.048 C 
BRANCH  48  51
HETATM   51  C   UNK N   1      32.478  14.944   7.749  0.00  0.00     0.091 A 
HETATM   52  C   UNK N   1      31.494  16.076   7.782  0.00  0.00    -0.011 A 
HETATM   53  C   UNK N   1      30.272  15.955   7.116  0.00  0.00     0.014 A 
HETATM   54  C   UNK N   1      31.774  17.251   8.503  0.00  0.00     0.086 A 
HETATM   55  C   UNK N   1      29.325  16.965   7.165  0.00  0.00     0.037 A 
HETATM   56  C   UNK N   1      29.594  18.123   7.885  0.00  0.00     0.068 A 
HETATM   57  C   UNK N   1      30.818  18.271   8.548  0.00  0.00     0.074 A 
HETATM   58  O   UNK N   1      32.941  17.406   9.170  0.00  0.00    -0.309 OA
HETATM   59  C   UNK N   1      33.882  16.439   9.270  0.00  0.00     0.086 A 
HETATM   60  C   UNK N   1      33.704  15.196   8.634  0.00  0.00    -0.011 A 
HETATM   61  C   UNK N   1      35.041  16.684  10.017  0.00  0.00     0.074 A 
HETATM   62  C   UNK N   1      34.696  14.205   8.778  0.00  0.00     0.014 A 
HETATM   63  C   UNK N   1      35.852  14.458   9.526  0.00  0.00     0.037 A 
HETATM   64  C   UNK N   1      36.026  15.700  10.140  0.00  0.00     0.068 A 
BRANCH  56  65
HETATM   65  O   UNK N   1      28.674  19.094   7.944  0.00  0.00    -0.361 OA
HETATM   66  H   UNK N   1      28.907  20.001   7.902  0.00  0.00     0.217 HD
ENDBRANCH  56  65
BRANCH  64  67
HETATM   67  O   UNK N   1      37.139  15.951  10.850  0.00  0.00    -0.361 OA
HETATM   68  H   UNK N   1      37.788  16.539  10.520  0.00  0.00     0.217 HD
ENDBRANCH  64  67
ENDBRANCH  48  51
BRANCH  49  69
HETATM   69  C   UNK N   1      33.490  16.990   5.526  0.00  0.00     0.176 C 
HETATM   70  O   UNK N   1      32.678  17.778   5.078  0.00  0.00    -0.646 OA
BRANCH  69  71
HETATM   71  O   UNK N   1      34.509  17.452   6.276  0.00  0.00    -0.773 OA
HETATM   72  H   UNK N   1      34.804  18.213   6.737  0.00  0.00     0.167 HD
ENDBRANCH  69  71
ENDBRANCH  49  69
ENDBRANCH  43  45
ENDBRANCH  41  43
ENDBRANCH  39  41
ENDBRANCH  38  39
ENDBRANCH  37  38
ENDBRANCH  36  37
ENDBRANCH  35  36
ENDBRANCH   1  35
BRANCH   1  73
HETATM   73  C   UNK N   1      26.107  19.561   4.951  0.00  0.00     0.163 C 
HETATM   74  O   UNK N   1      26.581  20.217   4.038  0.00  0.00    -0.648 OA
BRANCH  73  75
HETATM   75  O   UNK N   1      26.464  19.828   6.221  0.00  0.00    -0.775 OA
HETATM   76  H   UNK N   1      26.770  19.679   7.094  0.00  0.00     0.167 HD
ENDBRANCH  73  75
ENDBRANCH   1  73
TORSDOF 23
ENDMDL
MODEL 6
REMARK VINA RESULT:      -7.9      1.715      5.437
REMARK  23 active torsions:
REMARK  status: ('A' for Active; 'I' for Inactive)
REMARK    1  A    between atoms: C_2  and  C_3 
REMARK    2  A    between atoms: C_45  and  C_2 
REMARK    3  A    between atoms: C_3  and  C_4 
REMARK    4  A    between atoms: C_4  and  C_5 
REMARK       I    between atoms: C_5  and  N_7 
REMARK    5  A    between atoms: C_8  and  N_7 
REMARK    6  A    between atoms: C_8  and  C_9 
REMARK    7  A    between atoms: C_8  and  C_42 
REMARK    8  A    between atoms: C_9  and  C_10 
REMARK    9  A    between atoms: C_10  and  C_11 
REMARK   10  A    between atoms: C_11  and  C_12 
REMARK   11  A    between atoms: C_12  and  N_13 
REMARK   12  A    between atoms: N_13  and  C_14 
REMARK   13  A    between atoms: C_14  and  N_16 
REMARK   14  A    between atoms: N_16  and  C_17 
REMARK   15  A    between atoms: C_20  and  C_26 
REMARK   16  A    between atoms: C_21  and  C_23 
REMARK   17  A    between atoms: C_23  and  O_25 
REMARK   18  A    between atoms: C_30  and  O_41 
REMARK   19  A    between atoms: C_38  and  O_40 
REMARK   20  A    between atoms: C_42  and  O_44 
REMARK   21  A    between atoms: C_50  and  O_65 
REMARK   22  A    between atoms: C_54  and  O_64 
REMARK   23  A    between atoms: C_60  and  O_62 
ROOT
HETATM    1  C   UNK N   1      22.085  10.220   1.592  0.00  0.00     0.182 C 
ENDROOT
BRANCH   1   2
HETATM    2  N   UNK N   1      21.319  11.151   0.847  0.00  0.00    -0.347 N 
HETATM    3  C   UNK N   1      21.642  12.464   0.830  0.00  0.00     0.218 C 
HETATM    4  O   UNK N   1      22.772  12.838   1.101  0.00  0.00    -0.274 OA
HETATM    5  H   UNK N   1      20.541  10.836   0.333  0.00  0.00     0.163 HD
BRANCH   3   6
HETATM    6  C   UNK N   1      20.566  13.477   0.642  0.00  0.00     0.103 C 
BRANCH   6   7
HETATM    7  C   UNK N   1      20.214  14.261   1.917  0.00  0.00     0.014 C 
BRANCH   7   8
HETATM    8  C   UNK N   1      20.885  15.634   2.057  0.00  0.00    -0.013 C 
HETATM    9  C   UNK N   1      20.245  16.617   1.100  0.00  0.00     0.010 C 
BRANCH   8  10
HETATM   10  C   UNK N   1      21.008  16.259   3.459  0.00  0.00     0.000 C 
HETATM   11  C   UNK N   1      20.207  17.510   3.753  0.00  0.00     0.006 C 
HETATM   12  C   UNK N   1      20.706  17.962   5.131  0.00  0.00     0.006 C 
HETATM   13  C   UNK N   1      21.651  16.864   5.651  0.00  0.00     0.003 C 
HETATM   14  C   UNK N   1      22.228  16.246   4.382  0.00  0.00    -0.010 C 
HETATM   15  C   UNK N   1      20.852  15.915   6.567  0.00  0.00     0.024 C 
HETATM   16  C   UNK N   1      22.767  14.837   4.656  0.00  0.00     0.127 C 
HETATM   17  C   UNK N   1      23.347  17.194   3.966  0.00  0.00     0.018 C 
HETATM   18  C   UNK N   1      21.611  13.957   5.073  0.00  0.00     0.038 C 
HETATM   19  C   UNK N   1      21.197  14.399   6.466  0.00  0.00     0.003 C 
HETATM   20  C   UNK N   1      22.098  13.783   7.558  0.00  0.00    -0.036 C 
HETATM   21  C   UNK N   1      21.681  14.263   8.973  0.00  0.00    -0.001 C 
HETATM   22  C   UNK N   1      21.936  12.259   7.413  0.00  0.00     0.012 C 
HETATM   23  C   UNK N   1      23.566  14.161   7.377  0.00  0.00     0.016 C 
HETATM   24  C   UNK N   1      20.618  15.362   9.029  0.00  0.00     0.037 C 
HETATM   25  C   UNK N   1      21.494  13.151  10.007  0.00  0.00     0.037 C 
HETATM   26  C   UNK N   1      20.990  16.428   8.009  0.00  0.00     0.123 C 
HETATM   27  C   UNK N   1      22.634  12.146   9.864  0.00  0.00     0.118 C 
HETATM   28  C   UNK N   1      22.613  11.438   8.509  0.00  0.00     0.032 C 
BRANCH  16  29
HETATM   29  O   UNK N   1      23.449  14.259   3.590  0.00  0.00    -0.395 OA
HETATM   30  H   UNK N   1      24.385  14.461   3.434  0.00  0.00     0.210 HD
ENDBRANCH  16  29
BRANCH  26  31
HETATM   31  O   UNK N   1      20.248  17.593   8.203  0.00  0.00    -0.395 OA
HETATM   32  H   UNK N   1      20.670  18.390   8.559  0.00  0.00     0.210 HD
ENDBRANCH  26  31
BRANCH  27  33
HETATM   33  O   UNK N   1      22.569  11.195  10.877  0.00  0.00    -0.396 OA
HETATM   34  H   UNK N   1      21.765  11.074  11.406  0.00  0.00     0.210 HD
ENDBRANCH  27  33
ENDBRANCH   8  10
ENDBRANCH   7   8
ENDBRANCH   6   7
ENDBRANCH   3   6
ENDBRANCH   1   2
BRANCH   1  35
HETATM   35  C   UNK N   1      21.395  10.141   2.942  0.00  0.00     0.036 C 
BRANCH  35  36
HETATM   36  C   UNK N   1      22.319  10.684   4.051  0.00  0.00     0.004 C 
BRANCH  36  37
HETATM   37  C   UNK N   1      23.639   9.900   4.325  0.00  0.00     0.020 C 
BRANCH  37  38
HETATM   38  C   UNK N   1      25.004  10.613   4.098  0.00  0.00     0.122 C 
BRANCH  38  39
HETATM   39  N   UNK N   1      24.868  11.796   3.278  0.00  0.00    -0.367 N 
HETATM   40  H   UNK N   1      23.997  12.246   3.189  0.00  0.00     0.161 HD
BRANCH  39  41
HETATM   41  C   UNK N   1      26.001  12.290   2.611  0.00  0.00     0.172 C 
HETATM   42  S   UNK N   1      26.645  11.503   1.587  0.00  0.00    -0.041 SA
BRANCH  41  43
HETATM   43  N   UNK N   1      26.360  13.649   2.830  0.00  0.00    -0.333 N 
HETATM   44  H   UNK N   1      26.044  14.364   2.232  0.00  0.00     0.168 HD
BRANCH  43  45
HETATM   45  C   UNK N   1      27.178  13.929   3.928  0.00  0.00     0.035 C 
HETATM   46  C   UNK N   1      26.553  14.561   5.003  0.00  0.00     0.030 C 
HETATM   47  C   UNK N   1      27.070  15.731   5.485  0.00  0.00     0.011 C 
HETATM   48  C   UNK N   1      28.226  16.282   4.914  0.00  0.00    -0.028 C 
HETATM   49  C   UNK N   1      28.997  15.475   4.019  0.00  0.00     0.047 C 
HETATM   50  C   UNK N   1      28.449  14.288   3.563  0.00  0.00     0.048 C 
BRANCH  48  51
HETATM   51  C   UNK N   1      28.520  17.739   5.224  0.00  0.00     0.091 A 
HETATM   52  C   UNK N   1      28.843  17.950   6.674  0.00  0.00    -0.011 A 
HETATM   53  C   UNK N   1      29.917  17.273   7.253  0.00  0.00     0.014 A 
HETATM   54  C   UNK N   1      28.092  18.849   7.454  0.00  0.00     0.086 A 
HETATM   55  C   UNK N   1      30.267  17.479   8.578  0.00  0.00     0.037 A 
HETATM   56  C   UNK N   1      29.534  18.374   9.349  0.00  0.00     0.068 A 
HETATM   57  C   UNK N   1      28.444  19.053   8.792  0.00  0.00     0.074 A 
HETATM   58  O   UNK N   1      27.048  19.533   6.931  0.00  0.00    -0.309 OA
HETATM   59  C   UNK N   1      26.695  19.480   5.626  0.00  0.00     0.086 A 
HETATM   60  C   UNK N   1      27.396  18.654   4.726  0.00  0.00    -0.011 A 
HETATM   61  C   UNK N   1      25.623  20.257   5.174  0.00  0.00     0.074 A 
HETATM   62  C   UNK N   1      27.013  18.641   3.369  0.00  0.00     0.014 A 
HETATM   63  C   UNK N   1      25.939  19.421   2.926  0.00  0.00     0.037 A 
HETATM   64  C   UNK N   1      25.240  20.224   3.829  0.00  0.00     0.068 A 
BRANCH  56  65
HETATM   65  O   UNK N   1      29.880  18.585  10.625  0.00  0.00    -0.361 OA
HETATM   66  H   UNK N   1      30.584  19.157  10.860  0.00  0.00     0.217 HD
ENDBRANCH  56  65
BRANCH  64  67
HETATM   67  O   UNK N   1      24.201  20.966   3.409  0.00  0.00    -0.361 OA
HETATM   68  H   UNK N   1      23.342  20.596   3.366  0.00  0.00     0.217 HD
ENDBRANCH  64  67
ENDBRANCH  48  51
BRANCH  49  69
HETATM   69  C   UNK N   1      30.252  15.849   3.331  0.00  0.00     0.176 C 
HETATM   70  O   UNK N   1      31.268  15.210   3.533  0.00  0.00    -0.646 OA
BRANCH  69  71
HETATM   71  O   UNK N   1      30.263  16.825   2.404  0.00  0.00    -0.773 OA
HETATM   72  H   UNK N   1      30.321  16.967   1.479  0.00  0.00     0.167 HD
ENDBRANCH  69  71
ENDBRANCH  49  69
ENDBRANCH  43  45
ENDBRANCH  41  43
ENDBRANCH  39  41
ENDBRANCH  38  39
ENDBRANCH  37  38
ENDBRANCH  36  37
ENDBRANCH  35  36
ENDBRANCH   1  35
BRANCH   1  73
HETATM   73  C   UNK N   1      22.218   8.883   0.938  0.00  0.00     0.163 C 
HETATM   74  O   UNK N   1      21.587   7.937   1.380  0.00  0.00    -0.648 OA
BRANCH  73  75
HETATM   75  O   UNK N   1      22.981   8.724  -0.159  0.00  0.00    -0.775 OA
HETATM   76  H   UNK N   1      23.210   8.516  -1.044  0.00  0.00     0.167 HD
ENDBRANCH  73  75
ENDBRANCH   1  73
TORSDOF 23
ENDMDL
MODEL 7
REMARK VINA RESULT:      -7.9      6.396     13.436
REMARK  23 active torsions:
REMARK  status: ('A' for Active; 'I' for Inactive)
REMARK    1  A    between atoms: C_2  and  C_3 
REMARK    2  A    between atoms: C_45  and  C_2 
REMARK    3  A    between atoms: C_3  and  C_4 
REMARK    4  A    between atoms: C_4  and  C_5 
REMARK       I    between atoms: C_5  and  N_7 
REMARK    5  A    between atoms: C_8  and  N_7 
REMARK    6  A    between atoms: C_8  and  C_9 
REMARK    7  A    between atoms: C_8  and  C_42 
REMARK    8  A    between atoms: C_9  and  C_10 
REMARK    9  A    between atoms: C_10  and  C_11 
REMARK   10  A    between atoms: C_11  and  C_12 
REMARK   11  A    between atoms: C_12  and  N_13 
REMARK   12  A    between atoms: N_13  and  C_14 
REMARK   13  A    between atoms: C_14  and  N_16 
REMARK   14  A    between atoms: N_16  and  C_17 
REMARK   15  A    between atoms: C_20  and  C_26 
REMARK   16  A    between atoms: C_21  and  C_23 
REMARK   17  A    between atoms: C_23  and  O_25 
REMARK   18  A    between atoms: C_30  and  O_41 
REMARK   19  A    between atoms: C_38  and  O_40 
REMARK   20  A    between atoms: C_42  and  O_44 
REMARK   21  A    between atoms: C_50  and  O_65 
REMARK   22  A    between atoms: C_54  and  O_64 
REMARK   23  A    between atoms: C_60  and  O_62 
ROOT
HETATM    1  C   UNK N   1      32.504  16.489   5.272  0.00  0.00     0.182 C 
ENDROOT
BRANCH   1   2
HETATM    2  N   UNK N   1      32.765  15.128   5.566  0.00  0.00    -0.347 N 
HETATM    3  C   UNK N   1      32.023  14.456   6.474  0.00  0.00     0.218 C 
HETATM    4  O   UNK N   1      30.901  14.834   6.774  0.00  0.00    -0.274 OA
HETATM    5  H   UNK N   1      33.498  14.664   5.101  0.00  0.00     0.163 HD
BRANCH   3   6
HETATM    6  C   UNK N   1      32.643  13.339   7.242  0.00  0.00     0.103 C 
BRANCH   6   7
HETATM    7  C   UNK N   1      33.271  13.770   8.577  0.00  0.00     0.014 C 
BRANCH   7   8
HETATM    8  C   UNK N   1      34.565  13.043   8.966  0.00  0.00    -0.013 C 
HETATM    9  C   UNK N   1      35.439  12.862   7.742  0.00  0.00     0.010 C 
BRANCH   8  10
HETATM   10  C   UNK N   1      35.398  13.590  10.140  0.00  0.00     0.000 C 
HETATM   11  C   UNK N   1      35.642  15.084  10.203  0.00  0.00     0.006 C 
HETATM   12  C   UNK N   1      36.645  15.253  11.352  0.00  0.00     0.006 C 
HETATM   13  C   UNK N   1      36.812  13.873  12.013  0.00  0.00     0.003 C 
HETATM   14  C   UNK N   1      36.540  12.889  10.880  0.00  0.00    -0.010 C 
HETATM   15  C   UNK N   1      35.866  13.788  13.229  0.00  0.00     0.024 C 
HETATM   16  C   UNK N   1      36.149  11.513  11.432  0.00  0.00     0.127 C 
HETATM   17  C   UNK N   1      37.850  12.820  10.105  0.00  0.00     0.018 C 
HETATM   18  C   UNK N   1      34.851  11.657  12.195  0.00  0.00     0.038 C 
HETATM   19  C   UNK N   1      35.170  12.416  13.472  0.00  0.00     0.003 C 
HETATM   20  C   UNK N   1      35.745  11.491  14.565  0.00  0.00    -0.036 C 
HETATM   21  C   UNK N   1      36.089  12.283  15.854  0.00  0.00    -0.001 C 
HETATM   22  C   UNK N   1      34.653  10.438  14.830  0.00  0.00     0.012 C 
HETATM   23  C   UNK N   1      37.028  10.795  14.118  0.00  0.00     0.016 C 
HETATM   24  C   UNK N   1      35.983  13.807  15.760  0.00  0.00     0.037 C 
HETATM   25  C   UNK N   1      35.533  11.691  17.149  0.00  0.00     0.037 C 
HETATM   26  C   UNK N   1      36.653  14.246  14.466  0.00  0.00     0.123 C 
HETATM   27  C   UNK N   1      35.733  10.177  17.127  0.00  0.00     0.118 C 
HETATM   28  C   UNK N   1      34.937   9.506  16.006  0.00  0.00     0.032 C 
BRANCH  16  29
HETATM   29  O   UNK N   1      36.032  10.513  10.472  0.00  0.00    -0.395 OA
HETATM   30  H   UNK N   1      36.491  10.589   9.621  0.00  0.00     0.210 HD
ENDBRANCH  16  29
BRANCH  26  31
HETATM   31  O   UNK N   1      36.862  15.625  14.449  0.00  0.00    -0.395 OA
HETATM   32  H   UNK N   1      37.327  16.060  15.181  0.00  0.00     0.210 HD
ENDBRANCH  26  31
BRANCH  27  33
HETATM   33  O   UNK N   1      35.361   9.622  18.347  0.00  0.00    -0.396 OA
HETATM   34  H   UNK N   1      35.443   8.671  18.515  0.00  0.00     0.210 HD
ENDBRANCH  27  33
ENDBRANCH   8  10
ENDBRANCH   7   8
ENDBRANCH   6   7
ENDBRANCH   3   6
ENDBRANCH   1   2
BRANCH   1  35
HETATM   35  C   UNK N   1      33.812  17.206   5.557  0.00  0.00     0.036 C 
BRANCH  35  36
HETATM   36  C   UNK N   1      34.396  16.745   6.908  0.00  0.00     0.004 C 
BRANCH  36  37
HETATM   37  C   UNK N   1      34.127  17.654   8.147  0.00  0.00     0.020 C 
BRANCH  37  38
HETATM   38  C   UNK N   1      32.727  18.312   8.312  0.00  0.00     0.122 C 
BRANCH  38  39
HETATM   39  N   UNK N   1      31.751  17.386   8.842  0.00  0.00    -0.367 N 
HETATM   40  H   UNK N   1      32.038  16.563   9.299  0.00  0.00     0.161 HD
BRANCH  39  41
HETATM   41  C   UNK N   1      30.386  17.683   8.694  0.00  0.00     0.172 C 
HETATM   42  S   UNK N   1      29.656  18.309   9.770  0.00  0.00    -0.041 SA
BRANCH  41  43
HETATM   43  N   UNK N   1      29.813  17.539   7.400  0.00  0.00    -0.333 N 
HETATM   44  H   UNK N   1      30.359  17.278   6.624  0.00  0.00     0.168 HD
BRANCH  43  45
HETATM   45  C   UNK N   1      28.442  17.783   7.273  0.00  0.00     0.035 C 
HETATM   46  C   UNK N   1      27.641  16.657   7.089  0.00  0.00     0.030 C 
HETATM   47  C   UNK N   1      26.797  16.604   6.015  0.00  0.00     0.011 C 
HETATM   48  C   UNK N   1      26.727  17.678   5.117  0.00  0.00    -0.028 C 
HETATM   49  C   UNK N   1      27.335  18.919   5.487  0.00  0.00     0.047 C 
HETATM   50  C   UNK N   1      28.172  18.940   6.590  0.00  0.00     0.048 C 
BRANCH  48  51
HETATM   51  C   UNK N   1      26.081  17.408   3.769  0.00  0.00     0.091 A 
HETATM   52  C   UNK N   1      24.585  17.345   3.866  0.00  0.00    -0.011 A 
HETATM   53  C   UNK N   1      23.873  18.444   4.352  0.00  0.00     0.014 A 
HETATM   54  C   UNK N   1      23.885  16.200   3.444  0.00  0.00     0.086 A 
HETATM   55  C   UNK N   1      22.489  18.433   4.412  0.00  0.00     0.037 A 
HETATM   56  C   UNK N   1      21.793  17.307   3.986  0.00  0.00     0.068 A 
HETATM   57  C   UNK N   1      22.488  16.189   3.509  0.00  0.00     0.074 A 
HETATM   58  O   UNK N   1      24.534  15.117   2.958  0.00  0.00    -0.309 OA
HETATM   59  C   UNK N   1      25.872  15.071   2.762  0.00  0.00     0.086 A 
HETATM   60  C   UNK N   1      26.686  16.169   3.098  0.00  0.00    -0.011 A 
HETATM   61  C   UNK N   1      26.445  13.916   2.216  0.00  0.00     0.074 A 
HETATM   62  C   UNK N   1      28.073  16.093   2.859  0.00  0.00     0.014 A 
HETATM   63  C   UNK N   1      28.638  14.934   2.315  0.00  0.00     0.037 A 
HETATM   64  C   UNK N   1      27.824  13.843   1.999  0.00  0.00     0.068 A 
BRANCH  56  65
HETATM   65  O   UNK N   1      20.454  17.300   4.031  0.00  0.00    -0.361 OA
HETATM   66  H   UNK N   1      19.937  16.959   3.329  0.00  0.00     0.217 HD
ENDBRANCH  56  65
BRANCH  64  67
HETATM   67  O   UNK N   1      28.365  12.725   1.486  0.00  0.00    -0.361 OA
HETATM   68  H   UNK N   1      29.261  12.715   1.212  0.00  0.00     0.217 HD
ENDBRANCH  64  67
ENDBRANCH  48  51
BRANCH  49  69
HETATM   69  C   UNK N   1      27.356  20.174   4.705  0.00  0.00     0.176 C 
HETATM   70  O   UNK N   1      27.049  21.225   5.236  0.00  0.00    -0.646 OA
BRANCH  69  71
HETATM   71  O   UNK N   1      27.812  20.187   3.438  0.00  0.00    -0.773 OA
HETATM   72  H   UNK N   1      28.218  20.745   2.802  0.00  0.00     0.167 HD
ENDBRANCH  69  71
ENDBRANCH  49  69
ENDBRANCH  43  45
ENDBRANCH  41  43
ENDBRANCH  39  41
ENDBRANCH  38  39
ENDBRANCH  37  38
ENDBRANCH  36  37
ENDBRANCH  35  36
ENDBRANCH   1  35
BRANCH   1  73
HETATM   73  C   UNK N   1      32.013  16.726   3.882  0.00  0.00     0.163 C 
HETATM   74  O   UNK N   1      31.978  15.795   3.094  0.00  0.00    -0.648 OA
BRANCH  73  75
HETATM   75  O   UNK N   1      31.562  17.937   3.506  0.00  0.00    -0.775 OA
HETATM   76  H   UNK N   1      31.580  18.820   3.191  0.00  0.00     0.167 HD
ENDBRANCH  73  75
ENDBRANCH   1  73
TORSDOF 23
ENDMDL
MODEL 8
REMARK VINA RESULT:      -7.8      8.315     14.100
REMARK  23 active torsions:
REMARK  status: ('A' for Active; 'I' for Inactive)
REMARK    1  A    between atoms: C_2  and  C_3 
REMARK    2  A    between atoms: C_45  and  C_2 
REMARK    3  A    between atoms: C_3  and  C_4 
REMARK    4  A    between atoms: C_4  and  C_5 
REMARK       I    between atoms: C_5  and  N_7 
REMARK    5  A    between atoms: C_8  and  N_7 
REMARK    6  A    between atoms: C_8  and  C_9 
REMARK    7  A    between atoms: C_8  and  C_42 
REMARK    8  A    between atoms: C_9  and  C_10 
REMARK    9  A    between atoms: C_10  and  C_11 
REMARK   10  A    between atoms: C_11  and  C_12 
REMARK   11  A    between atoms: C_12  and  N_13 
REMARK   12  A    between atoms: N_13  and  C_14 
REMARK   13  A    between atoms: C_14  and  N_16 
REMARK   14  A    between atoms: N_16  and  C_17 
REMARK   15  A    between atoms: C_20  and  C_26 
REMARK   16  A    between atoms: C_21  and  C_23 
REMARK   17  A    between atoms: C_23  and  O_25 
REMARK   18  A    between atoms: C_30  and  O_41 
REMARK   19  A    between atoms: C_38  and  O_40 
REMARK   20  A    between atoms: C_42  and  O_44 
REMARK   21  A    between atoms: C_50  and  O_65 
REMARK   22  A    between atoms: C_54  and  O_64 
REMARK   23  A    between atoms: C_60  and  O_62 
ROOT
HETATM    1  C   UNK N   1      32.248   8.938   7.103  0.00  0.00     0.182 C 
ENDROOT
BRANCH   1   2
HETATM    2  N   UNK N   1      32.342   8.427   8.421  0.00  0.00    -0.347 N 
HETATM    3  C   UNK N   1      32.371   9.255   9.489  0.00  0.00     0.218 C 
HETATM    4  O   UNK N   1      31.933  10.393   9.416  0.00  0.00    -0.274 OA
HETATM    5  H   UNK N   1      32.386   7.454   8.561  0.00  0.00     0.163 HD
BRANCH   3   6
HETATM    6  C   UNK N   1      33.096   8.833  10.721  0.00  0.00     0.103 C 
BRANCH   6   7
HETATM    7  C   UNK N   1      33.705   7.424  10.636  0.00  0.00     0.014 C 
BRANCH   7   8
HETATM    8  C   UNK N   1      35.230   7.370  10.474  0.00  0.00    -0.013 C 
HETATM    9  C   UNK N   1      35.580   6.877   9.085  0.00  0.00     0.010 C 
BRANCH   8  10
HETATM   10  C   UNK N   1      36.057   8.622  10.818  0.00  0.00     0.000 C 
HETATM   11  C   UNK N   1      36.464   9.540   9.684  0.00  0.00     0.006 C 
HETATM   12  C   UNK N   1      37.418  10.548  10.339  0.00  0.00     0.006 C 
HETATM   13  C   UNK N   1      37.394  10.274  11.854  0.00  0.00     0.003 C 
HETATM   14  C   UNK N   1      37.072   8.786  11.952  0.00  0.00    -0.010 C 
HETATM   15  C   UNK N   1      36.383  11.233  12.515  0.00  0.00     0.024 C 
HETATM   16  C   UNK N   1      36.500   8.440  13.332  0.00  0.00     0.127 C 
HETATM   17  C   UNK N   1      38.405   8.086  11.716  0.00  0.00     0.018 C 
HETATM   18  C   UNK N   1      35.189   9.174  13.503  0.00  0.00     0.038 C 
HETATM   19  C   UNK N   1      35.525  10.646  13.674  0.00  0.00     0.003 C 
HETATM   20  C   UNK N   1      35.934  10.979  15.124  0.00  0.00    -0.036 C 
HETATM   21  C   UNK N   1      36.297  12.479  15.280  0.00  0.00    -0.001 C 
HETATM   22  C   UNK N   1      34.717  10.605  15.991  0.00  0.00     0.012 C 
HETATM   23  C   UNK N   1      37.152  10.179  15.580  0.00  0.00     0.016 C 
HETATM   24  C   UNK N   1      36.368  13.295  13.987  0.00  0.00     0.037 C 
HETATM   25  C   UNK N   1      35.611  13.197  16.442  0.00  0.00     0.037 C 
HETATM   26  C   UNK N   1      37.150  12.486  12.963  0.00  0.00     0.123 C 
HETATM   27  C   UNK N   1      35.640  12.290  17.670  0.00  0.00     0.118 C 
HETATM   28  C   UNK N   1      34.832  11.009  17.460  0.00  0.00     0.032 C 
BRANCH  16  29
HETATM   29  O   UNK N   1      36.321   7.080  13.562  0.00  0.00    -0.395 OA
HETATM   30  H   UNK N   1      36.022   6.493  12.850  0.00  0.00     0.210 HD
ENDBRANCH  16  29
BRANCH  26  31
HETATM   31  O   UNK N   1      37.514  13.273  11.870  0.00  0.00    -0.395 OA
HETATM   32  H   UNK N   1      36.877  13.454  11.162  0.00  0.00     0.210 HD
ENDBRANCH  26  31
BRANCH  27  33
HETATM   33  O   UNK N   1      35.144  12.965  18.781  0.00  0.00    -0.396 OA
HETATM   34  H   UNK N   1      34.274  12.753  19.155  0.00  0.00     0.210 HD
ENDBRANCH  27  33
ENDBRANCH   8  10
ENDBRANCH   7   8
ENDBRANCH   6   7
ENDBRANCH   3   6
ENDBRANCH   1   2
BRANCH   1  35
HETATM   35  C   UNK N   1      33.413   8.311   6.358  0.00  0.00     0.036 C 
BRANCH  35  36
HETATM   36  C   UNK N   1      34.592   9.302   6.270  0.00  0.00     0.004 C 
BRANCH  36  37
HETATM   37  C   UNK N   1      34.285  10.800   6.577  0.00  0.00     0.020 C 
BRANCH  37  38
HETATM   38  C   UNK N   1      35.357  11.877   6.239  0.00  0.00     0.122 C 
BRANCH  38  39
HETATM   39  N   UNK N   1      35.200  13.069   7.041  0.00  0.00    -0.367 N 
HETATM   40  H   UNK N   1      34.592  13.788   6.757  0.00  0.00     0.161 HD
BRANCH  39  41
HETATM   41  C   UNK N   1      35.932  13.181   8.235  0.00  0.00     0.172 C 
HETATM   42  S   UNK N   1      37.265  13.733   8.224  0.00  0.00    -0.041 SA
BRANCH  41  43
HETATM   43  N   UNK N   1      35.250  12.929   9.458  0.00  0.00    -0.333 N 
HETATM   44  H   UNK N   1      35.470  12.147  10.014  0.00  0.00     0.168 HD
BRANCH  43  45
HETATM   45  C   UNK N   1      34.255  13.834   9.838  0.00  0.00     0.035 C 
HETATM   46  C   UNK N   1      33.015  13.663   9.226  0.00  0.00     0.030 C 
HETATM   47  C   UNK N   1      32.438  14.718   8.574  0.00  0.00     0.011 C 
HETATM   48  C   UNK N   1      33.081  15.963   8.536  0.00  0.00    -0.028 C 
HETATM   49  C   UNK N   1      34.195  16.183   9.406  0.00  0.00     0.047 C 
HETATM   50  C   UNK N   1      34.745  15.094  10.062  0.00  0.00     0.048 C 
BRANCH  48  51
HETATM   51  C   UNK N   1      32.595  16.958   7.497  0.00  0.00     0.091 A 
HETATM   52  C   UNK N   1      31.212  17.454   7.801  0.00  0.00    -0.011 A 
HETATM   53  C   UNK N   1      30.954  18.099   9.012  0.00  0.00     0.014 A 
HETATM   54  C   UNK N   1      30.173  17.305   6.863  0.00  0.00     0.086 A 
HETATM   55  C   UNK N   1      29.698  18.607   9.302  0.00  0.00     0.037 A 
HETATM   56  C   UNK N   1      28.672  18.471   8.375  0.00  0.00     0.068 A 
HETATM   57  C   UNK N   1      28.905  17.815   7.160  0.00  0.00     0.074 A 
HETATM   58  O   UNK N   1      30.381  16.696   5.673  0.00  0.00    -0.309 OA
HETATM   59  C   UNK N   1      31.592  16.261   5.255  0.00  0.00     0.086 A 
HETATM   60  C   UNK N   1      32.726  16.393   6.078  0.00  0.00    -0.011 A 
HETATM   61  C   UNK N   1      31.711  15.678   3.987  0.00  0.00     0.074 A 
HETATM   62  C   UNK N   1      33.975  15.950   5.599  0.00  0.00     0.014 A 
HETATM   63  C   UNK N   1      34.085  15.366   4.332  0.00  0.00     0.037 A 
HETATM   64  C   UNK N   1      32.951  15.225   3.529  0.00  0.00     0.068 A 
BRANCH  56  65
HETATM   65  O   UNK N   1      27.461  18.973   8.648  0.00  0.00    -0.361 OA
HETATM   66  H   UNK N   1      27.209  19.214   9.518  0.00  0.00     0.217 HD
ENDBRANCH  56  65
BRANCH  64  67
HETATM   67  O   UNK N   1      33.051  14.656   2.316  0.00  0.00    -0.361 OA
HETATM   68  H   UNK N   1      32.282  14.379   1.858  0.00  0.00     0.217 HD
ENDBRANCH  64  67
ENDBRANCH  48  51
BRANCH  49  69
HETATM   69  C   UNK N   1      34.995  17.420   9.542  0.00  0.00     0.176 C 
HETATM   70  O   UNK N   1      35.771  17.542  10.472  0.00  0.00    -0.646 OA
BRANCH  69  71
HETATM   71  O   UNK N   1      34.953  18.373   8.592  0.00  0.00    -0.773 OA
HETATM   72  H   UNK N   1      34.596  19.220   8.407  0.00  0.00     0.167 HD
ENDBRANCH  69  71
ENDBRANCH  49  69
ENDBRANCH  43  45
ENDBRANCH  41  43
ENDBRANCH  39  41
ENDBRANCH  38  39
ENDBRANCH  37  38
ENDBRANCH  36  37
ENDBRANCH  35  36
ENDBRANCH   1  35
BRANCH   1  73
HETATM   73  C   UNK N   1      30.936   8.670   6.441  0.00  0.00     0.163 C 
HETATM   74  O   UNK N   1      30.695   9.185   5.361  0.00  0.00    -0.648 OA
BRANCH  73  75
HETATM   75  O   UNK N   1      30.042   7.829   6.994  0.00  0.00    -0.775 OA
HETATM   76  H   UNK N   1      29.643   7.272   7.633  0.00  0.00     0.167 HD
ENDBRANCH  73  75
ENDBRANCH   1  73
TORSDOF 23
ENDMDL
MODEL 9
REMARK VINA RESULT:      -7.8      2.576      9.184
REMARK  23 active torsions:
REMARK  status: ('A' for Active; 'I' for Inactive)
REMARK    1  A    between atoms: C_2  and  C_3 
REMARK    2  A    between atoms: C_45  and  C_2 
REMARK    3  A    between atoms: C_3  and  C_4 
REMARK    4  A    between atoms: C_4  and  C_5 
REMARK       I    between atoms: C_5  and  N_7 
REMARK    5  A    between atoms: C_8  and  N_7 
REMARK    6  A    between atoms: C_8  and  C_9 
REMARK    7  A    between atoms: C_8  and  C_42 
REMARK    8  A    between atoms: C_9  and  C_10 
REMARK    9  A    between atoms: C_10  and  C_11 
REMARK   10  A    between atoms: C_11  and  C_12 
REMARK   11  A    between atoms: C_12  and  N_13 
REMARK   12  A    between atoms: N_13  and  C_14 
REMARK   13  A    between atoms: C_14  and  N_16 
REMARK   14  A    between atoms: N_16  and  C_17 
REMARK   15  A    between atoms: C_20  and  C_26 
REMARK   16  A    between atoms: C_21  and  C_23 
REMARK   17  A    between atoms: C_23  and  O_25 
REMARK   18  A    between atoms: C_30  and  O_41 
REMARK   19  A    between atoms: C_38  and  O_40 
REMARK   20  A    between atoms: C_42  and  O_44 
REMARK   21  A    between atoms: C_50  and  O_65 
REMARK   22  A    between atoms: C_54  and  O_64 
REMARK   23  A    between atoms: C_60  and  O_62 
ROOT
HETATM    1  C   UNK N   1      23.223  12.740   8.019  0.00  0.00     0.182 C 
ENDROOT
BRANCH   1   2
HETATM    2  N   UNK N   1      24.164  12.909   6.973  0.00  0.00    -0.347 N 
HETATM    3  C   UNK N   1      24.446  14.137   6.483  0.00  0.00     0.218 C 
HETATM    4  O   UNK N   1      24.233  15.143   7.141  0.00  0.00    -0.274 OA
HETATM    5  H   UNK N   1      24.618  12.121   6.599  0.00  0.00     0.163 HD
BRANCH   3   6
HETATM    6  C   UNK N   1      24.867  14.275   5.060  0.00  0.00     0.103 C 
BRANCH   6   7
HETATM    7  C   UNK N   1      26.383  14.445   4.869  0.00  0.00     0.014 C 
BRANCH   7   8
HETATM    8  C   UNK N   1      26.857  15.871   4.559  0.00  0.00    -0.013 C 
HETATM    9  C   UNK N   1      25.665  16.750   4.244  0.00  0.00     0.010 C 
BRANCH   8  10
HETATM   10  C   UNK N   1      27.788  16.576   5.563  0.00  0.00     0.000 C 
HETATM   11  C   UNK N   1      27.213  16.981   6.904  0.00  0.00     0.006 C 
HETATM   12  C   UNK N   1      28.326  17.812   7.556  0.00  0.00     0.006 C 
HETATM   13  C   UNK N   1      29.559  17.714   6.639  0.00  0.00     0.003 C 
HETATM   14  C   UNK N   1      28.966  17.502   5.249  0.00  0.00    -0.010 C 
HETATM   15  C   UNK N   1      30.478  16.593   7.164  0.00  0.00     0.024 C 
HETATM   16  C   UNK N   1      29.997  16.872   4.305  0.00  0.00     0.127 C 
HETATM   17  C   UNK N   1      28.569  18.897   4.782  0.00  0.00     0.018 C 
HETATM   18  C   UNK N   1      30.353  15.501   4.833  0.00  0.00     0.038 C 
HETATM   19  C   UNK N   1      31.181  15.711   6.090  0.00  0.00     0.003 C 
HETATM   20  C   UNK N   1      32.661  16.001   5.763  0.00  0.00    -0.036 C 
HETATM   21  C   UNK N   1      33.490  16.238   7.053  0.00  0.00    -0.001 C 
HETATM   22  C   UNK N   1      33.163  14.765   4.994  0.00  0.00     0.012 C 
HETATM   23  C   UNK N   1      32.828  17.246   4.895  0.00  0.00     0.016 C 
HETATM   24  C   UNK N   1      32.697  16.328   8.360  0.00  0.00     0.037 C 
HETATM   25  C   UNK N   1      34.782  15.427   7.154  0.00  0.00     0.037 C 
HETATM   26  C   UNK N   1      31.497  17.232   8.120  0.00  0.00     0.123 C 
HETATM   27  C   UNK N   1      35.486  15.448   5.799  0.00  0.00     0.118 C 
HETATM   28  C   UNK N   1      34.664  14.757   4.711  0.00  0.00     0.032 C 
BRANCH  16  29
HETATM   29  O   UNK N   1      29.592  16.785   2.978  0.00  0.00    -0.395 OA
HETATM   30  H   UNK N   1      29.621  15.937   2.506  0.00  0.00     0.210 HD
ENDBRANCH  16  29
BRANCH  26  31
HETATM   31  O   UNK N   1      30.897  17.603   9.323  0.00  0.00    -0.395 OA
HETATM   32  H   UNK N   1      31.426  17.682  10.132  0.00  0.00     0.210 HD
ENDBRANCH  26  31
BRANCH  27  33
HETATM   33  O   UNK N   1      36.731  14.833   5.892  0.00  0.00    -0.396 OA
HETATM   34  H   UNK N   1      36.868  14.053   6.452  0.00  0.00     0.210 HD
ENDBRANCH  27  33
ENDBRANCH   8  10
ENDBRANCH   7   8
ENDBRANCH   6   7
ENDBRANCH   3   6
ENDBRANCH   1   2
BRANCH   1  35
HETATM   35  C   UNK N   1      22.376  11.554   7.592  0.00  0.00     0.036 C 
BRANCH  35  36
HETATM   36  C   UNK N   1      22.155  11.572   6.066  0.00  0.00     0.004 C 
BRANCH  36  37
HETATM   37  C   UNK N   1      22.133  10.194   5.335  0.00  0.00     0.020 C 
BRANCH  37  38
HETATM   38  C   UNK N   1      23.150   9.930   4.186  0.00  0.00     0.122 C 
BRANCH  38  39
HETATM   39  N   UNK N   1      23.791  11.147   3.739  0.00  0.00    -0.367 N 
HETATM   40  H   UNK N   1      24.274  11.722   4.375  0.00  0.00     0.161 HD
BRANCH  39  41
HETATM   41  C   UNK N   1      23.711  11.492   2.380  0.00  0.00     0.172 C 
HETATM   42  S   UNK N   1      24.805  11.196   1.487  0.00  0.00    -0.041 SA
BRANCH  41  43
HETATM   43  N   UNK N   1      22.457  11.947   1.883  0.00  0.00    -0.333 N 
HETATM   44  H   UNK N   1      21.674  11.352   1.851  0.00  0.00     0.168 HD
BRANCH  43  45
HETATM   45  C   UNK N   1      22.381  13.271   1.443  0.00  0.00     0.035 C 
HETATM   46  C   UNK N   1      23.036  14.211   2.238  0.00  0.00     0.030 C 
HETATM   47  C   UNK N   1      22.343  15.293   2.705  0.00  0.00     0.011 C 
HETATM   48  C   UNK N   1      20.991  15.463   2.375  0.00  0.00    -0.028 C 
HETATM   49  C   UNK N   1      20.434  14.650   1.337  0.00  0.00     0.047 C 
HETATM   50  C   UNK N   1      21.171  13.572   0.878  0.00  0.00     0.048 C 
BRANCH  48  51
HETATM   51  C   UNK N   1      20.194  16.445   3.217  0.00  0.00     0.091 A 
HETATM   52  C   UNK N   1      20.492  17.868   2.850  0.00  0.00    -0.011 A 
HETATM   53  C   UNK N   1      20.274  18.311   1.544  0.00  0.00     0.014 A 
HETATM   54  C   UNK N   1      20.962  18.776   3.818  0.00  0.00     0.086 A 
HETATM   55  C   UNK N   1      20.498  19.631   1.186  0.00  0.00     0.037 A 
HETATM   56  C   UNK N   1      20.952  20.533   2.141  0.00  0.00     0.068 A 
HETATM   57  C   UNK N   1      21.192  20.107   3.453  0.00  0.00     0.074 A 
HETATM   58  O   UNK N   1      21.178  18.393   5.097  0.00  0.00    -0.309 OA
HETATM   59  C   UNK N   1      20.891  17.157   5.568  0.00  0.00     0.086 A 
HETATM   60  C   UNK N   1      20.370  16.167   4.714  0.00  0.00    -0.011 A 
HETATM   61  C   UNK N   1      21.115  16.869   6.920  0.00  0.00     0.074 A 
HETATM   62  C   UNK N   1      20.062  14.898   5.245  0.00  0.00     0.014 A 
HETATM   63  C   UNK N   1      20.290  14.618   6.597  0.00  0.00     0.037 A 
HETATM   64  C   UNK N   1      20.822  15.602   7.433  0.00  0.00     0.068 A 
BRANCH  56  65
HETATM   65  O   UNK N   1      21.156  21.812   1.799  0.00  0.00    -0.361 OA
HETATM   66  H   UNK N   1      21.802  22.059   1.168  0.00  0.00     0.217 HD
ENDBRANCH  56  65
BRANCH  64  67
HETATM   67  O   UNK N   1      21.053  15.334   8.729  0.00  0.00    -0.361 OA
HETATM   68  H   UNK N   1      20.350  15.352   9.348  0.00  0.00     0.217 HD
ENDBRANCH  64  67
ENDBRANCH  48  51
BRANCH  49  69
HETATM   69  C   UNK N   1      19.048  14.684   0.820  0.00  0.00     0.176 C 
HETATM   70  O   UNK N   1      18.757  15.442  -0.086  0.00  0.00    -0.646 OA
BRANCH  69  71
HETATM   71  O   UNK N   1      18.127  13.810   1.268  0.00  0.00    -0.773 OA
HETATM   72  H   UNK N   1      17.536  13.656   1.980  0.00  0.00     0.167 HD
ENDBRANCH  69  71
ENDBRANCH  49  69
ENDBRANCH  43  45
ENDBRANCH  41  43
ENDBRANCH  39  41
ENDBRANCH  38  39
ENDBRANCH  37  38
ENDBRANCH  36  37
ENDBRANCH  35  36
ENDBRANCH   1  35
BRANCH   1  73
HETATM   73  C   UNK N   1      23.841  12.545   9.365  0.00  0.00     0.163 C 
HETATM   74  O   UNK N   1      23.546  11.559  10.021  0.00  0.00    -0.648 OA
BRANCH  73  75
HETATM   75  O   UNK N   1      24.755  13.413   9.837  0.00  0.00    -0.775 OA
HETATM   76  H   UNK N   1      25.564  13.881   9.908  0.00  0.00     0.167 HD
ENDBRANCH  73  75
ENDBRANCH   1  73
TORSDOF 23
ENDMDL
