MODEL 1
REMARK VINA RESULT:      -7.0      0.000      0.000
REMARK  9 active torsions:
REMARK  status: ('A' for Active; 'I' for Inactive)
REMARK    1  A    between atoms: C_2  and  C_3 
REMARK    2  A    between atoms: C_11  and  N_24 
REMARK    3  A    between atoms: C_13  and  N_14 
REMARK    4  A    between atoms: N_14  and  C_15 
REMARK    5  A    between atoms: C_15  and  C_16 
REMARK    6  A    between atoms: N_20  and  O_22 
REMARK    7  A    between atoms: C_29  and  C_30 
REMARK    8  A    between atoms: C_30  and  C_31 
REMARK    9  A    between atoms: C_31  and  O_32 
ROOT
HETATM    1  C   UNK N   1      20.142  16.564   8.546  0.00  0.00     0.004 A 
HETATM    2  C   UNK N   1      20.042  15.253   9.011  0.00  0.00     0.118 A 
HETATM    3  N   UNK N   1      20.921  14.489   8.319  0.00  0.00    -0.301 N 
ATOM      4  HN  UNK N   1      21.068  13.487   8.433  1.00  0.00     0.186 HD
HETATM    5  N   UNK N   1      21.556  15.280   7.464  0.00  0.00    -0.224 N 
HETATM    6  C   UNK N   1      21.108  16.527   7.572  0.00  0.00     0.138 A 
HETATM    7  N   UNK N   1      21.527  17.509   6.720  0.00  0.00    -0.327 N 
ATOM      8  HN  UNK N   1      21.153  18.455   6.795  1.00  0.00     0.169 HD
HETATM    9  C   UNK N   1      22.462  17.200   5.759  0.00  0.00     0.108 A 
HETATM   10  C   UNK N   1      22.930  15.887   5.667  0.00  0.00     0.098 A 
HETATM   11  C   UNK N   1      22.449  14.916   6.529  0.00  0.00     0.129 A 
ENDROOT
BRANCH  11  12
HETATM   12  N   UNK N   1      22.628  13.570   6.213  0.00  0.00    -0.370 N 
HETATM   13  H   UNK N   1      21.924  13.029   5.788  0.00  0.00     0.161 HD
BRANCH  12  14
HETATM   14  C   UNK N   1      23.917  13.026   6.554  0.00  0.00     0.161 C 
BRANCH  14  15
HETATM   15  C   UNK N   1      23.991  12.754   7.990  0.00  0.00    -0.023 A 
HETATM   16  C   UNK N   1      23.123  11.825   8.546  0.00  0.00     0.012 A 
HETATM   17  C   UNK N   1      23.220  11.527   9.899  0.00  0.00     0.020 A 
HETATM   18  C   UNK N   1      24.197  12.164  10.672  0.00  0.00     0.122 A 
HETATM   19  N   UNK N   1      25.032  13.080  10.109  0.00  0.00    -0.247 N 
HETATM   20  C   UNK N   1      24.943  13.389   8.790  0.00  0.00     0.131 A 
BRANCH  19  21
HETATM   21  O   UNK N   1      25.962  13.664  10.854  0.00  0.00    -0.284 OA
ATOM     22  HO  UNK N   1      25.707  14.131  11.642  1.00  0.00     0.245 HD
ENDBRANCH  19  21
ENDBRANCH  14  15
ENDBRANCH  12  14
ENDBRANCH  11  12
BRANCH   9  23
HETATM   23  N   UNK N   1      22.774  18.124   4.709  0.00  0.00    -0.362 N 
HETATM   24  C   UNK N   1      21.809  18.285   3.638  0.00  0.00     0.125 C 
HETATM   25  C   UNK N   1      21.688  19.753   3.253  0.00  0.00     0.020 C 
HETATM   26  C   UNK N   1      23.043  20.373   2.884  0.00  0.00     0.004 C 
HETATM   27  C   UNK N   1      24.247  19.503   3.248  0.00  0.00     0.025 C 
HETATM   28  C   UNK N   1      24.066  18.838   4.615  0.00  0.00     0.087 C 
BRANCH  28  29
HETATM   29  C   UNK N   1      25.339  18.061   4.987  0.00  0.00     0.051 C 
BRANCH  29  30
HETATM   30  C   UNK N   1      26.550  18.927   5.287  0.00  0.00     0.166 C 
BRANCH  30  31
HETATM   31  O   UNK N   1      27.134  18.483   6.475  0.00  0.00    -0.401 OA
HETATM   32  H   UNK N   1      26.872  17.647   6.893  0.00  0.00     0.209 HD
ENDBRANCH  30  31
ENDBRANCH  29  30
ENDBRANCH  28  29
ENDBRANCH   9  23
BRANCH   1  33
HETATM   33  C   UNK N   1      19.302  17.712   8.978  0.00  0.00     0.039 C 
HETATM   34  C   UNK N   1      17.849  17.296   9.057  0.00  0.00     0.010 C 
ENDBRANCH   1  33
TORSDOF 9
ENDMDL
MODEL 2
REMARK VINA RESULT:      -7.0      2.341      7.114
REMARK  9 active torsions:
REMARK  status: ('A' for Active; 'I' for Inactive)
REMARK    1  A    between atoms: C_2  and  C_3 
REMARK    2  A    between atoms: C_11  and  N_24 
REMARK    3  A    between atoms: C_13  and  N_14 
REMARK    4  A    between atoms: N_14  and  C_15 
REMARK    5  A    between atoms: C_15  and  C_16 
REMARK    6  A    between atoms: N_20  and  O_22 
REMARK    7  A    between atoms: C_29  and  C_30 
REMARK    8  A    between atoms: C_30  and  C_31 
REMARK    9  A    between atoms: C_31  and  O_32 
ROOT
HETATM    1  C   UNK N   1      19.599  16.721   8.429  0.00  0.00     0.004 A 
HETATM    2  C   UNK N   1      19.827  18.023   7.984  0.00  0.00     0.118 A 
HETATM    3  N   UNK N   1      20.862  17.997   7.109  0.00  0.00    -0.301 N 
ATOM      4  HN  UNK N   1      21.261  18.801   6.626  1.00  0.00     0.186 HD
HETATM    5  N   UNK N   1      21.263  16.739   6.997  0.00  0.00    -0.224 N 
HETATM    6  C   UNK N   1      20.531  15.951   7.779  0.00  0.00     0.138 A 
HETATM    7  N   UNK N   1      20.822  14.625   7.925  0.00  0.00    -0.327 N 
ATOM      8  HN  UNK N   1      20.269  14.038   8.550  1.00  0.00     0.169 HD
HETATM    9  C   UNK N   1      21.873  14.093   7.212  0.00  0.00     0.108 A 
HETATM   10  C   UNK N   1      22.625  14.933   6.388  0.00  0.00     0.098 A 
HETATM   11  C   UNK N   1      22.315  16.280   6.300  0.00  0.00     0.129 A 
ENDROOT
BRANCH  11  12
HETATM   12  N   UNK N   1      23.260  17.167   5.784  0.00  0.00    -0.370 N 
HETATM   13  H   UNK N   1      23.786  17.770   6.358  0.00  0.00     0.161 HD
BRANCH  12  14
HETATM   14  C   UNK N   1      23.409  17.141   4.353  0.00  0.00     0.161 C 
BRANCH  14  15
HETATM   15  C   UNK N   1      22.319  17.878   3.713  0.00  0.00    -0.023 A 
HETATM   16  C   UNK N   1      21.236  17.174   3.205  0.00  0.00     0.012 A 
HETATM   17  C   UNK N   1      20.175  17.870   2.640  0.00  0.00     0.020 A 
HETATM   18  C   UNK N   1      20.216  19.268   2.602  0.00  0.00     0.122 A 
HETATM   19  N   UNK N   1      21.292  19.939   3.098  0.00  0.00    -0.247 N 
HETATM   20  C   UNK N   1      22.341  19.272   3.644  0.00  0.00     0.131 A 
BRANCH  19  21
HETATM   21  O   UNK N   1      21.309  21.266   3.066  0.00  0.00    -0.284 OA
ATOM     22  HO  UNK N   1      21.909  21.714   2.481  1.00  0.00     0.245 HD
ENDBRANCH  19  21
ENDBRANCH  14  15
ENDBRANCH  12  14
ENDBRANCH  11  12
BRANCH   9  23
HETATM   23  N   UNK N   1      22.356  12.773   7.487  0.00  0.00    -0.362 N 
HETATM   24  C   UNK N   1      21.971  11.707   6.582  0.00  0.00     0.125 C 
HETATM   25  C   UNK N   1      23.152  10.780   6.327  0.00  0.00     0.020 C 
HETATM   26  C   UNK N   1      23.749  10.222   7.626  0.00  0.00     0.004 C 
HETATM   27  C   UNK N   1      23.244  10.916   8.892  0.00  0.00     0.025 C 
HETATM   28  C   UNK N   1      23.136  12.431   8.697  0.00  0.00     0.087 C 
BRANCH  28  29
HETATM   29  C   UNK N   1      22.728  13.096  10.021  0.00  0.00     0.051 C 
BRANCH  29  30
HETATM   30  C   UNK N   1      21.612  12.392  10.772  0.00  0.00     0.166 C 
BRANCH  30  31
HETATM   31  O   UNK N   1      20.389  12.925  10.362  0.00  0.00    -0.401 OA
HETATM   32  H   UNK N   1      20.092  12.873   9.440  0.00  0.00     0.209 HD
ENDBRANCH  30  31
ENDBRANCH  29  30
ENDBRANCH  28  29
ENDBRANCH   9  23
BRANCH   1  33
HETATM   33  C   UNK N   1      18.606  16.309   9.456  0.00  0.00     0.039 C 
HETATM   34  C   UNK N   1      17.328  17.103   9.296  0.00  0.00     0.010 C 
ENDBRANCH   1  33
TORSDOF 9
ENDMDL
MODEL 3
REMARK VINA RESULT:      -7.0      3.161      5.579
REMARK  9 active torsions:
REMARK  status: ('A' for Active; 'I' for Inactive)
REMARK    1  A    between atoms: C_2  and  C_3 
REMARK    2  A    between atoms: C_11  and  N_24 
REMARK    3  A    between atoms: C_13  and  N_14 
REMARK    4  A    between atoms: N_14  and  C_15 
REMARK    5  A    between atoms: C_15  and  C_16 
REMARK    6  A    between atoms: N_20  and  O_22 
REMARK    7  A    between atoms: C_29  and  C_30 
REMARK    8  A    between atoms: C_30  and  C_31 
REMARK    9  A    between atoms: C_31  and  O_32 
ROOT
HETATM    1  C   UNK N   1      24.851  18.374   4.027  0.00  0.00     0.004 A 
HETATM    2  C   UNK N   1      23.573  17.817   4.053  0.00  0.00     0.118 A 
HETATM    3  N   UNK N   1      23.584  16.769   4.911  0.00  0.00    -0.301 N 
ATOM      4  HN  UNK N   1      22.795  16.163   5.131  1.00  0.00     0.186 HD
HETATM    5  N   UNK N   1      24.808  16.673   5.414  0.00  0.00    -0.224 N 
HETATM    6  C   UNK N   1      25.591  17.616   4.900  0.00  0.00     0.138 A 
HETATM    7  N   UNK N   1      26.928  17.659   5.175  0.00  0.00    -0.327 N 
ATOM      8  HN  UNK N   1      27.523  18.370   4.751  1.00  0.00     0.169 HD
HETATM    9  C   UNK N   1      27.458  16.724   6.036  0.00  0.00     0.108 A 
HETATM   10  C   UNK N   1      26.619  15.747   6.576  0.00  0.00     0.098 A 
HETATM   11  C   UNK N   1      25.276  15.722   6.238  0.00  0.00     0.129 A 
ENDROOT
BRANCH  11  12
HETATM   12  N   UNK N   1      24.533  14.565   6.472  0.00  0.00    -0.370 N 
HETATM   13  H   UNK N   1      23.635  14.428   6.091  0.00  0.00     0.161 HD
BRANCH  12  14
HETATM   14  C   UNK N   1      25.169  13.586   7.314  0.00  0.00     0.161 C 
BRANCH  14  15
HETATM   15  C   UNK N   1      24.315  13.266   8.458  0.00  0.00    -0.023 A 
HETATM   16  C   UNK N   1      22.938  13.239   8.284  0.00  0.00     0.012 A 
HETATM   17  C   UNK N   1      22.124  12.888   9.354  0.00  0.00     0.020 A 
HETATM   18  C   UNK N   1      22.709  12.561  10.581  0.00  0.00     0.122 A 
HETATM   19  N   UNK N   1      24.061  12.604  10.733  0.00  0.00    -0.247 N 
HETATM   20  C   UNK N   1      24.870  12.954   9.700  0.00  0.00     0.131 A 
BRANCH  19  21
HETATM   21  O   UNK N   1      24.600  12.278  11.902  0.00  0.00    -0.284 OA
ATOM     22  HO  UNK N   1      25.146  11.502  11.968  1.00  0.00     0.245 HD
ENDBRANCH  19  21
ENDBRANCH  14  15
ENDBRANCH  12  14
ENDBRANCH  11  12
BRANCH   9  23
HETATM   23  N   UNK N   1      28.876  16.586   6.191  0.00  0.00    -0.362 N 
HETATM   24  C   UNK N   1      29.479  15.320   5.818  0.00  0.00     0.125 C 
HETATM   25  C   UNK N   1      30.797  15.557   5.094  0.00  0.00     0.020 C 
HETATM   26  C   UNK N   1      31.767  16.420   5.914  0.00  0.00     0.004 C 
HETATM   27  C   UNK N   1      31.128  17.094   7.128  0.00  0.00     0.025 C 
HETATM   28  C   UNK N   1      29.730  17.627   6.803  0.00  0.00     0.087 C 
BRANCH  28  29
HETATM   29  C   UNK N   1      29.170  18.386   8.016  0.00  0.00     0.051 C 
BRANCH  29  30
HETATM   30  C   UNK N   1      28.722  17.506   9.170  0.00  0.00     0.166 C 
BRANCH  30  31
HETATM   31  O   UNK N   1      27.413  17.846   9.512  0.00  0.00    -0.401 OA
HETATM   32  H   UNK N   1      27.061  17.695  10.404  0.00  0.00     0.209 HD
ENDBRANCH  30  31
ENDBRANCH  29  30
ENDBRANCH  28  29
ENDBRANCH   9  23
BRANCH   1  33
HETATM   33  C   UNK N   1      25.300  19.495   3.159  0.00  0.00     0.039 C 
HETATM   34  C   UNK N   1      24.210  20.537   3.045  0.00  0.00     0.010 C 
ENDBRANCH   1  33
TORSDOF 9
ENDMDL
MODEL 4
REMARK VINA RESULT:      -7.0      2.852      4.655
REMARK  9 active torsions:
REMARK  status: ('A' for Active; 'I' for Inactive)
REMARK    1  A    between atoms: C_2  and  C_3 
REMARK    2  A    between atoms: C_11  and  N_24 
REMARK    3  A    between atoms: C_13  and  N_14 
REMARK    4  A    between atoms: N_14  and  C_15 
REMARK    5  A    between atoms: C_15  and  C_16 
REMARK    6  A    between atoms: N_20  and  O_22 
REMARK    7  A    between atoms: C_29  and  C_30 
REMARK    8  A    between atoms: C_30  and  C_31 
REMARK    9  A    between atoms: C_31  and  O_32 
ROOT
HETATM    1  C   UNK N   1      23.067  17.441   4.956  0.00  0.00     0.004 A 
HETATM    2  C   UNK N   1      21.974  16.669   5.352  0.00  0.00     0.118 A 
HETATM    3  N   UNK N   1      22.427  15.673   6.151  0.00  0.00    -0.301 N 
ATOM      4  HN  UNK N   1      21.859  14.946   6.586  1.00  0.00     0.186 HD
HETATM    5  N   UNK N   1      23.740  15.812   6.265  0.00  0.00    -0.224 N 
HETATM    6  C   UNK N   1      24.155  16.858   5.557  0.00  0.00     0.138 A 
HETATM    7  N   UNK N   1      25.483  17.145   5.423  0.00  0.00    -0.327 N 
ATOM      8  HN  UNK N   1      25.788  17.934   4.852  1.00  0.00     0.169 HD
HETATM    9  C   UNK N   1      26.402  16.352   6.071  0.00  0.00     0.108 A 
HETATM   10  C   UNK N   1      25.949  15.264   6.820  0.00  0.00     0.098 A 
HETATM   11  C   UNK N   1      24.593  14.990   6.897  0.00  0.00     0.129 A 
ENDROOT
BRANCH  11  12
HETATM   12  N   UNK N   1      24.173  13.731   7.323  0.00  0.00    -0.370 N 
HETATM   13  H   UNK N   1      23.508  13.200   6.827  0.00  0.00     0.161 HD
BRANCH  12  14
HETATM   14  C   UNK N   1      24.777  13.261   8.542  0.00  0.00     0.161 C 
BRANCH  14  15
HETATM   15  C   UNK N   1      23.746  12.862   9.501  0.00  0.00    -0.023 A 
HETATM   16  C   UNK N   1      24.120  12.166  10.642  0.00  0.00     0.012 A 
HETATM   17  C   UNK N   1      23.153  11.826  11.579  0.00  0.00     0.020 A 
HETATM   18  C   UNK N   1      21.823  12.199  11.358  0.00  0.00     0.122 A 
HETATM   19  N   UNK N   1      21.476  12.873  10.226  0.00  0.00    -0.247 N 
HETATM   20  C   UNK N   1      22.408  13.204   9.296  0.00  0.00     0.131 A 
BRANCH  19  21
HETATM   21  O   UNK N   1      20.212  13.231  10.039  0.00  0.00    -0.284 OA
ATOM     22  HO  UNK N   1      19.986  13.791   9.305  1.00  0.00     0.245 HD
ENDBRANCH  19  21
ENDBRANCH  14  15
ENDBRANCH  12  14
ENDBRANCH  11  12
BRANCH   9  23
HETATM   23  N   UNK N   1      27.803  16.471   5.795  0.00  0.00    -0.362 N 
HETATM   24  C   UNK N   1      28.536  15.262   5.469  0.00  0.00     0.125 C 
HETATM   25  C   UNK N   1      29.520  15.531   4.339  0.00  0.00     0.020 C 
HETATM   26  C   UNK N   1      30.471  16.693   4.657  0.00  0.00     0.004 C 
HETATM   27  C   UNK N   1      30.064  17.515   5.881  0.00  0.00     0.025 C 
HETATM   28  C   UNK N   1      28.550  17.741   5.926  0.00  0.00     0.087 C 
BRANCH  28  29
HETATM   29  C   UNK N   1      28.198  18.657   7.108  0.00  0.00     0.051 C 
BRANCH  29  30
HETATM   30  C   UNK N   1      28.573  18.109   8.474  0.00  0.00     0.166 C 
BRANCH  30  31
HETATM   31  O   UNK N   1      27.443  18.132   9.293  0.00  0.00    -0.401 OA
HETATM   32  H   UNK N   1      27.054  18.965   9.605  0.00  0.00     0.209 HD
ENDBRANCH  30  31
ENDBRANCH  29  30
ENDBRANCH  28  29
ENDBRANCH   9  23
BRANCH   1  33
HETATM   33  C   UNK N   1      23.030  18.588   4.012  0.00  0.00     0.039 C 
HETATM   34  C   UNK N   1      21.649  18.727   3.410  0.00  0.00     0.010 C 
ENDBRANCH   1  33
TORSDOF 9
ENDMDL
MODEL 5
REMARK VINA RESULT:      -6.9      4.368      7.628
REMARK  9 active torsions:
REMARK  status: ('A' for Active; 'I' for Inactive)
REMARK    1  A    between atoms: C_2  and  C_3 
REMARK    2  A    between atoms: C_11  and  N_24 
REMARK    3  A    between atoms: C_13  and  N_14 
REMARK    4  A    between atoms: N_14  and  C_15 
REMARK    5  A    between atoms: C_15  and  C_16 
REMARK    6  A    between atoms: N_20  and  O_22 
REMARK    7  A    between atoms: C_29  and  C_30 
REMARK    8  A    between atoms: C_30  and  C_31 
REMARK    9  A    between atoms: C_31  and  O_32 
ROOT
HETATM    1  C   UNK N   1      26.964  19.633   5.220  0.00  0.00     0.004 A 
HETATM    2  C   UNK N   1      28.247  19.934   4.762  0.00  0.00     0.118 A 
HETATM    3  N   UNK N   1      28.891  18.768   4.509  0.00  0.00    -0.301 N 
ATOM      4  HN  UNK N   1      29.847  18.671   4.170  1.00  0.00     0.186 HD
HETATM    5  N   UNK N   1      28.053  17.778   4.783  0.00  0.00    -0.224 N 
HETATM    6  C   UNK N   1      26.894  18.262   5.216  0.00  0.00     0.138 A 
HETATM    7  N   UNK N   1      25.903  17.439   5.670  0.00  0.00    -0.327 N 
ATOM      8  HN  UNK N   1      25.030  17.826   6.027  1.00  0.00     0.169 HD
HETATM    9  C   UNK N   1      26.105  16.077   5.636  0.00  0.00     0.108 A 
HETATM   10  C   UNK N   1      27.325  15.585   5.168  0.00  0.00     0.098 A 
HETATM   11  C   UNK N   1      28.314  16.461   4.753  0.00  0.00     0.129 A 
ENDROOT
BRANCH  11  12
HETATM   12  N   UNK N   1      29.627  16.005   4.637  0.00  0.00    -0.370 N 
HETATM   13  H   UNK N   1      30.145  16.095   3.805  0.00  0.00     0.161 HD
BRANCH  12  14
HETATM   14  C   UNK N   1      30.171  15.393   5.821  0.00  0.00     0.161 C 
BRANCH  14  15
HETATM   15  C   UNK N   1      31.035  16.337   6.531  0.00  0.00    -0.023 A 
HETATM   16  C   UNK N   1      30.604  16.868   7.739  0.00  0.00     0.012 A 
HETATM   17  C   UNK N   1      31.439  17.727   8.442  0.00  0.00     0.020 A 
HETATM   18  C   UNK N   1      32.701  18.032   7.922  0.00  0.00     0.122 A 
HETATM   19  N   UNK N   1      33.101  17.508   6.731  0.00  0.00    -0.247 N 
HETATM   20  C   UNK N   1      32.292  16.675   6.027  0.00  0.00     0.131 A 
BRANCH  19  21
HETATM   21  O   UNK N   1      34.307  17.798   6.259  0.00  0.00    -0.284 OA
ATOM     22  HO  UNK N   1      34.527  17.575   5.362  1.00  0.00     0.245 HD
ENDBRANCH  19  21
ENDBRANCH  14  15
ENDBRANCH  12  14
ENDBRANCH  11  12
BRANCH   9  23
HETATM   23  N   UNK N   1      25.199  15.183   6.294  0.00  0.00    -0.362 N 
HETATM   24  C   UNK N   1      25.734  13.940   6.817  0.00  0.00     0.125 C 
HETATM   25  C   UNK N   1      25.119  13.633   8.176  0.00  0.00     0.020 C 
HETATM   26  C   UNK N   1      23.585  13.608   8.131  0.00  0.00     0.004 C 
HETATM   27  C   UNK N   1      22.990  14.168   6.839  0.00  0.00     0.025 C 
HETATM   28  C   UNK N   1      23.741  15.417   6.371  0.00  0.00     0.087 C 
BRANCH  28  29
HETATM   29  C   UNK N   1      23.047  16.005   5.132  0.00  0.00     0.051 C 
BRANCH  29  30
HETATM   30  C   UNK N   1      22.265  17.282   5.384  0.00  0.00     0.166 C 
BRANCH  30  31
HETATM   31  O   UNK N   1      23.158  18.291   5.748  0.00  0.00    -0.401 OA
HETATM   32  H   UNK N   1      23.888  18.561   5.168  0.00  0.00     0.209 HD
ENDBRANCH  30  31
ENDBRANCH  29  30
ENDBRANCH  28  29
ENDBRANCH   9  23
BRANCH   1  33
HETATM   33  C   UNK N   1      25.950  20.615   5.687  0.00  0.00     0.039 C 
HETATM   34  C   UNK N   1      26.569  21.574   6.680  0.00  0.00     0.010 C 
ENDBRANCH   1  33
TORSDOF 9
ENDMDL
MODEL 6
REMARK VINA RESULT:      -6.9      3.159      6.947
REMARK  9 active torsions:
REMARK  status: ('A' for Active; 'I' for Inactive)
REMARK    1  A    between atoms: C_2  and  C_3 
REMARK    2  A    between atoms: C_11  and  N_24 
REMARK    3  A    between atoms: C_13  and  N_14 
REMARK    4  A    between atoms: N_14  and  C_15 
REMARK    5  A    between atoms: C_15  and  C_16 
REMARK    6  A    between atoms: N_20  and  O_22 
REMARK    7  A    between atoms: C_29  and  C_30 
REMARK    8  A    between atoms: C_30  and  C_31 
REMARK    9  A    between atoms: C_31  and  O_32 
ROOT
HETATM    1  C   UNK N   1      24.295  14.109   7.149  0.00  0.00     0.004 A 
HETATM    2  C   UNK N   1      22.986  14.585   7.209  0.00  0.00     0.118 A 
HETATM    3  N   UNK N   1      22.920  15.735   6.495  0.00  0.00    -0.301 N 
ATOM      4  HN  UNK N   1      22.092  16.315   6.365  1.00  0.00     0.186 HD
HETATM    5  N   UNK N   1      24.126  15.970   5.998  0.00  0.00    -0.224 N 
HETATM    6  C   UNK N   1      24.973  15.018   6.376  0.00  0.00     0.138 A 
HETATM    7  N   UNK N   1      26.305  15.093   6.084  0.00  0.00    -0.327 N 
ATOM      8  HN  UNK N   1      26.949  14.370   6.405  1.00  0.00     0.169 HD
HETATM    9  C   UNK N   1      26.764  16.163   5.348  0.00  0.00     0.108 A 
HETATM   10  C   UNK N   1      25.858  17.148   4.950  0.00  0.00     0.098 A 
HETATM   11  C   UNK N   1      24.523  17.047   5.301  0.00  0.00     0.129 A 
ENDROOT
BRANCH  11  12
HETATM   12  N   UNK N   1      23.708  18.177   5.228  0.00  0.00    -0.370 N 
HETATM   13  H   UNK N   1      23.201  18.513   6.002  0.00  0.00     0.161 HD
BRANCH  12  14
HETATM   14  C   UNK N   1      23.660  18.817   3.939  0.00  0.00     0.161 C 
BRANCH  14  15
HETATM   15  C   UNK N   1      22.272  19.032   3.529  0.00  0.00    -0.023 A 
HETATM   16  C   UNK N   1      21.944  20.194   2.843  0.00  0.00     0.012 A 
HETATM   17  C   UNK N   1      20.638  20.382   2.409  0.00  0.00     0.020 A 
HETATM   18  C   UNK N   1      19.682  19.394   2.666  0.00  0.00     0.122 A 
HETATM   19  N   UNK N   1      20.022  18.266   3.349  0.00  0.00    -0.247 N 
HETATM   20  C   UNK N   1      21.292  18.072   3.788  0.00  0.00     0.131 A 
BRANCH  19  21
HETATM   21  O   UNK N   1      19.105  17.333   3.571  0.00  0.00    -0.284 OA
ATOM     22  HO  UNK N   1      19.352  16.415   3.544  1.00  0.00     0.245 HD
ENDBRANCH  19  21
ENDBRANCH  14  15
ENDBRANCH  12  14
ENDBRANCH  11  12
BRANCH   9  23
HETATM   23  N   UNK N   1      28.168  16.406   5.199  0.00  0.00    -0.362 N 
HETATM   24  C   UNK N   1      28.879  15.668   4.173  0.00  0.00     0.125 C 
HETATM   25  C   UNK N   1      29.875  16.577   3.464  0.00  0.00     0.020 C 
HETATM   26  C   UNK N   1      30.845  17.254   4.441  0.00  0.00     0.004 C 
HETATM   27  C   UNK N   1      30.447  17.117   5.912  0.00  0.00     0.025 C 
HETATM   28  C   UNK N   1      28.938  17.289   6.102  0.00  0.00     0.087 C 
BRANCH  28  29
HETATM   29  C   UNK N   1      28.596  17.249   7.600  0.00  0.00     0.051 C 
BRANCH  29  30
HETATM   30  C   UNK N   1      28.191  18.585   8.198  0.00  0.00     0.166 C 
BRANCH  30  31
HETATM   31  O   UNK N   1      27.432  18.350   9.346  0.00  0.00    -0.401 OA
HETATM   32  H   UNK N   1      26.640  18.872   9.552  0.00  0.00     0.209 HD
ENDBRANCH  30  31
ENDBRANCH  29  30
ENDBRANCH  28  29
ENDBRANCH   9  23
BRANCH   1  33
HETATM   33  C   UNK N   1      24.825  12.914   7.858  0.00  0.00     0.039 C 
HETATM   34  C   UNK N   1      24.647  13.071   9.352  0.00  0.00     0.010 C 
ENDBRANCH   1  33
TORSDOF 9
ENDMDL
MODEL 7
REMARK VINA RESULT:      -6.9      4.051      6.162
REMARK  9 active torsions:
REMARK  status: ('A' for Active; 'I' for Inactive)
REMARK    1  A    between atoms: C_2  and  C_3 
REMARK    2  A    between atoms: C_11  and  N_24 
REMARK    3  A    between atoms: C_13  and  N_14 
REMARK    4  A    between atoms: N_14  and  C_15 
REMARK    5  A    between atoms: C_15  and  C_16 
REMARK    6  A    between atoms: N_20  and  O_22 
REMARK    7  A    between atoms: C_29  and  C_30 
REMARK    8  A    between atoms: C_30  and  C_31 
REMARK    9  A    between atoms: C_31  and  O_32 
ROOT
HETATM    1  C   UNK N   1      21.343  14.688   7.248  0.00  0.00     0.004 A 
HETATM    2  C   UNK N   1      21.096  13.343   6.973  0.00  0.00     0.118 A 
HETATM    3  N   UNK N   1      21.533  13.080   5.718  0.00  0.00    -0.301 N 
ATOM      4  HN  UNK N   1      21.478  12.182   5.239  1.00  0.00     0.186 HD
HETATM    5  N   UNK N   1      22.043  14.200   5.225  0.00  0.00    -0.224 N 
HETATM    6  C   UNK N   1      21.939  15.182   6.114  0.00  0.00     0.138 A 
HETATM    7  N   UNK N   1      22.292  16.465   5.802  0.00  0.00    -0.327 N 
ATOM      8  HN  UNK N   1      22.180  17.214   6.485  1.00  0.00     0.169 HD
HETATM    9  C   UNK N   1      22.802  16.727   4.551  0.00  0.00     0.108 A 
HETATM   10  C   UNK N   1      22.914  15.681   3.633  0.00  0.00     0.098 A 
HETATM   11  C   UNK N   1      22.508  14.403   3.982  0.00  0.00     0.129 A 
ENDROOT
BRANCH  11  12
HETATM   12  N   UNK N   1      22.278  13.460   2.981  0.00  0.00    -0.370 N 
HETATM   13  H   UNK N   1      22.082  12.516   3.180  0.00  0.00     0.161 HD
BRANCH  12  14
HETATM   14  C   UNK N   1      22.350  13.964   1.634  0.00  0.00     0.161 C 
BRANCH  14  15
HETATM   15  C   UNK N   1      21.006  14.121   1.077  0.00  0.00    -0.023 A 
HETATM   16  C   UNK N   1      20.256  12.987   0.796  0.00  0.00     0.012 A 
HETATM   17  C   UNK N   1      18.962  13.130   0.313  0.00  0.00     0.020 A 
HETATM   18  C   UNK N   1      18.438  14.413   0.127  0.00  0.00     0.122 A 
HETATM   19  N   UNK N   1      19.193  15.512   0.400  0.00  0.00    -0.247 N 
HETATM   20  C   UNK N   1      20.464  15.390   0.864  0.00  0.00     0.131 A 
BRANCH  19  21
HETATM   21  O   UNK N   1      18.675  16.723   0.230  0.00  0.00    -0.284 OA
ATOM     22  HO  UNK N   1      18.655  17.331   0.960  1.00  0.00     0.245 HD
ENDBRANCH  19  21
ENDBRANCH  14  15
ENDBRANCH  12  14
ENDBRANCH  11  12
BRANCH   9  23
HETATM   23  N   UNK N   1      22.983  18.074   4.097  0.00  0.00    -0.362 N 
HETATM   24  C   UNK N   1      24.127  18.810   4.599  0.00  0.00     0.125 C 
HETATM   25  C   UNK N   1      24.759  19.629   3.480  0.00  0.00     0.020 C 
HETATM   26  C   UNK N   1      23.748  20.560   2.796  0.00  0.00     0.004 C 
HETATM   27  C   UNK N   1      22.291  20.278   3.165  0.00  0.00     0.025 C 
HETATM   28  C   UNK N   1      22.011  18.775   3.230  0.00  0.00     0.087 C 
BRANCH  28  29
HETATM   29  C   UNK N   1      20.516  18.538   3.499  0.00  0.00     0.051 C 
BRANCH  29  30
HETATM   30  C   UNK N   1      19.576  19.420   2.696  0.00  0.00     0.166 C 
BRANCH  30  31
HETATM   31  O   UNK N   1      18.442  18.678   2.360  0.00  0.00    -0.401 OA
HETATM   32  H   UNK N   1      18.212  17.857   2.824  0.00  0.00     0.209 HD
ENDBRANCH  30  31
ENDBRANCH  29  30
ENDBRANCH  28  29
ENDBRANCH   9  23
BRANCH   1  33
HETATM   33  C   UNK N   1      20.951  15.415   8.484  0.00  0.00     0.039 C 
HETATM   34  C   UNK N   1      20.525  14.435   9.554  0.00  0.00     0.010 C 
ENDBRANCH   1  33
TORSDOF 9
ENDMDL
MODEL 8
REMARK VINA RESULT:      -6.8      5.223      7.975
REMARK  9 active torsions:
REMARK  status: ('A' for Active; 'I' for Inactive)
REMARK    1  A    between atoms: C_2  and  C_3 
REMARK    2  A    between atoms: C_11  and  N_24 
REMARK    3  A    between atoms: C_13  and  N_14 
REMARK    4  A    between atoms: N_14  and  C_15 
REMARK    5  A    between atoms: C_15  and  C_16 
REMARK    6  A    between atoms: N_20  and  O_22 
REMARK    7  A    between atoms: C_29  and  C_30 
REMARK    8  A    between atoms: C_30  and  C_31 
REMARK    9  A    between atoms: C_31  and  O_32 
ROOT
HETATM    1  C   UNK N   1      26.743  20.150   5.090  0.00  0.00     0.004 A 
HETATM    2  C   UNK N   1      25.801  19.865   4.101  0.00  0.00     0.118 A 
HETATM    3  N   UNK N   1      26.011  18.599   3.667  0.00  0.00    -0.301 N 
ATOM      4  HN  UNK N   1      25.483  18.116   2.941  1.00  0.00     0.186 HD
HETATM    5  N   UNK N   1      27.029  18.101   4.356  0.00  0.00    -0.224 N 
HETATM    6  C   UNK N   1      27.492  19.006   5.211  0.00  0.00     0.138 A 
HETATM    7  N   UNK N   1      28.612  18.773   5.958  0.00  0.00    -0.327 N 
ATOM      8  HN  UNK N   1      28.973  19.488   6.589  1.00  0.00     0.169 HD
HETATM    9  C   UNK N   1      29.244  17.555   5.844  0.00  0.00     0.108 A 
HETATM   10  C   UNK N   1      28.737  16.611   4.948  0.00  0.00     0.098 A 
HETATM   11  C   UNK N   1      27.620  16.907   4.185  0.00  0.00     0.129 A 
ENDROOT
BRANCH  11  12
HETATM   12  N   UNK N   1      27.338  16.137   3.057  0.00  0.00    -0.370 N 
HETATM   13  H   UNK N   1      27.521  16.454   2.142  0.00  0.00     0.161 HD
BRANCH  12  14
HETATM   14  C   UNK N   1      26.758  14.847   3.323  0.00  0.00     0.161 C 
BRANCH  14  15
HETATM   15  C   UNK N   1      25.367  14.810   2.870  0.00  0.00    -0.023 A 
HETATM   16  C   UNK N   1      24.375  15.322   3.695  0.00  0.00     0.012 A 
HETATM   17  C   UNK N   1      23.059  15.334   3.251  0.00  0.00     0.020 A 
HETATM   18  C   UNK N   1      22.762  14.838   1.977  0.00  0.00     0.122 A 
HETATM   19  N   UNK N   1      23.748  14.331   1.187  0.00  0.00    -0.247 N 
HETATM   20  C   UNK N   1      25.038  14.303   1.611  0.00  0.00     0.131 A 
BRANCH  19  21
HETATM   21  O   UNK N   1      23.450  13.877  -0.023  0.00  0.00    -0.284 OA
ATOM     22  HO  UNK N   1      22.793  13.197  -0.121  1.00  0.00     0.245 HD
ENDBRANCH  19  21
ENDBRANCH  14  15
ENDBRANCH  12  14
ENDBRANCH  11  12
BRANCH   9  23
HETATM   23  N   UNK N   1      30.532  17.335   6.432  0.00  0.00    -0.362 N 
HETATM   24  C   UNK N   1      31.557  16.722   5.609  0.00  0.00     0.125 C 
HETATM   25  C   UNK N   1      32.900  17.397   5.851  0.00  0.00     0.020 C 
HETATM   26  C   UNK N   1      33.296  17.395   7.335  0.00  0.00     0.004 C 
HETATM   27  C   UNK N   1      32.165  16.991   8.281  0.00  0.00     0.025 C 
HETATM   28  C   UNK N   1      30.830  17.607   7.855  0.00  0.00     0.087 C 
BRANCH  28  29
HETATM   29  C   UNK N   1      29.747  17.263   8.889  0.00  0.00     0.051 C 
BRANCH  29  30
HETATM   30  C   UNK N   1      29.060  18.463   9.518  0.00  0.00     0.166 C 
BRANCH  30  31
HETATM   31  O   UNK N   1      27.764  18.556   9.010  0.00  0.00    -0.401 OA
HETATM   32  H   UNK N   1      27.441  17.955   8.319  0.00  0.00     0.209 HD
ENDBRANCH  30  31
ENDBRANCH  29  30
ENDBRANCH  28  29
ENDBRANCH   9  23
BRANCH   1  33
HETATM   33  C   UNK N   1      26.920  21.455   5.779  0.00  0.00     0.039 C 
HETATM   34  C   UNK N   1      26.333  21.394   7.172  0.00  0.00     0.010 C 
ENDBRANCH   1  33
TORSDOF 9
ENDMDL
MODEL 9
REMARK VINA RESULT:      -6.8      8.416     10.732
REMARK  9 active torsions:
REMARK  status: ('A' for Active; 'I' for Inactive)
REMARK    1  A    between atoms: C_2  and  C_3 
REMARK    2  A    between atoms: C_11  and  N_24 
REMARK    3  A    between atoms: C_13  and  N_14 
REMARK    4  A    between atoms: N_14  and  C_15 
REMARK    5  A    between atoms: C_15  and  C_16 
REMARK    6  A    between atoms: N_20  and  O_22 
REMARK    7  A    between atoms: C_29  and  C_30 
REMARK    8  A    between atoms: C_30  and  C_31 
REMARK    9  A    between atoms: C_31  and  O_32 
ROOT
HETATM    1  C   UNK N   1      29.462  17.595   7.712  0.00  0.00     0.004 A 
HETATM    2  C   UNK N   1      29.677  18.179   8.960  0.00  0.00     0.118 A 
HETATM    3  N   UNK N   1      30.941  17.889   9.352  0.00  0.00    -0.301 N 
ATOM      4  HN  UNK N   1      31.380  18.174  10.226  1.00  0.00     0.186 HD
HETATM    5  N   UNK N   1      31.504  17.166   8.394  0.00  0.00    -0.224 N 
HETATM    6  C   UNK N   1      30.642  16.968   7.401  0.00  0.00     0.138 A 
HETATM    7  N   UNK N   1      30.947  16.157   6.345  0.00  0.00    -0.327 N 
ATOM      8  HN  UNK N   1      30.266  15.991   5.604  1.00  0.00     0.169 HD
HETATM    9  C   UNK N   1      32.191  15.569   6.297  0.00  0.00     0.108 A 
HETATM   10  C   UNK N   1      33.088  15.796   7.344  0.00  0.00     0.098 A 
HETATM   11  C   UNK N   1      32.720  16.597   8.412  0.00  0.00     0.129 A 
ENDROOT
BRANCH  11  12
HETATM   12  N   UNK N   1      33.448  16.530   9.600  0.00  0.00    -0.370 N 
HETATM   13  H   UNK N   1      33.020  16.579  10.485  0.00  0.00     0.161 HD
BRANCH  12  14
HETATM   14  C   UNK N   1      34.872  16.388   9.440  0.00  0.00     0.161 C 
BRANCH  14  15
HETATM   15  C   UNK N   1      35.384  15.353  10.338  0.00  0.00    -0.023 A 
HETATM   16  C   UNK N   1      34.525  14.779  11.265  0.00  0.00     0.012 A 
HETATM   17  C   UNK N   1      34.992  13.762  12.088  0.00  0.00     0.020 A 
HETATM   18  C   UNK N   1      36.317  13.331  11.959  0.00  0.00     0.122 A 
HETATM   19  N   UNK N   1      37.146  13.914  11.050  0.00  0.00    -0.247 N 
HETATM   20  C   UNK N   1      36.707  14.916  10.245  0.00  0.00     0.131 A 
BRANCH  19  21
HETATM   21  O   UNK N   1      38.396  13.483  10.932  0.00  0.00    -0.284 OA
ATOM     22  HO  UNK N   1      38.905  13.299  11.714  1.00  0.00     0.245 HD
ENDBRANCH  19  21
ENDBRANCH  14  15
ENDBRANCH  12  14
ENDBRANCH  11  12
BRANCH   9  23
HETATM   23  N   UNK N   1      32.486  14.547   5.337  0.00  0.00    -0.362 N 
HETATM   24  C   UNK N   1      32.873  13.240   5.834  0.00  0.00     0.125 C 
HETATM   25  C   UNK N   1      32.219  12.145   5.003  0.00  0.00     0.020 C 
HETATM   26  C   UNK N   1      32.525  12.288   3.505  0.00  0.00     0.004 C 
HETATM   27  C   UNK N   1      33.161  13.625   3.123  0.00  0.00     0.025 C 
HETATM   28  C   UNK N   1      32.515  14.789   3.879  0.00  0.00     0.087 C 
BRANCH  28  29
HETATM   29  C   UNK N   1      33.110  16.119   3.388  0.00  0.00     0.051 C 
BRANCH  29  30
HETATM   30  C   UNK N   1      32.098  17.102   2.826  0.00  0.00     0.166 C 
BRANCH  30  31
HETATM   31  O   UNK N   1      31.669  17.942   3.855  0.00  0.00    -0.401 OA
HETATM   32  H   UNK N   1      30.891  17.733   4.396  0.00  0.00     0.209 HD
ENDBRANCH  30  31
ENDBRANCH  29  30
ENDBRANCH  28  29
ENDBRANCH   9  23
BRANCH   1  33
HETATM   33  C   UNK N   1      28.184  17.600   6.953  0.00  0.00     0.039 C 
HETATM   34  C   UNK N   1      28.218  18.664   5.878  0.00  0.00     0.010 C 
ENDBRANCH   1  33
TORSDOF 9
ENDMDL
