MODEL 1
REMARK VINA RESULT:      -7.2      0.000      0.000
REMARK WARNING: 32 MAX_TORS EXCEEDED!!!
REMARK  57 active torsions:
REMARK  status: ('A' for Active; 'I' for Inactive)
REMARK    1  A    between atoms: C_2  and  C_3 
REMARK    2  A    between atoms: C_6  and  O_114 
REMARK    3  A    between atoms: C_26  and  C_27 
REMARK    4  A    between atoms: C_26  and  O_29 
REMARK    5  A    between atoms: O_29  and  C_30 
REMARK    6  A    between atoms: C_30  and  O_32 
REMARK    7  A    between atoms: O_32  and  C_33 
REMARK    8  A    between atoms: C_33  and  C_34 
REMARK    9  A    between atoms: C_37  and  N_40 
REMARK       I    between atoms: N_40  and  C_41 
REMARK   10  A    between atoms: C_41  and  C_43 
REMARK   11  A    between atoms: C_43  and  C_44 
REMARK   12  A    between atoms: C_43  and  N_48 
REMARK   13  A    between atoms: C_44  and  C_45 
REMARK   14  A    between atoms: C_45  and  C_46 
REMARK   15  A    between atoms: C_46  and  N_47 
REMARK       I    between atoms: N_48  and  C_49 
REMARK   16  A    between atoms: C_49  and  C_51 
REMARK   17  A    between atoms: C_51  and  O_52 
REMARK   18  A    between atoms: O_52  and  C_53 
REMARK   19  A    between atoms: C_53  and  C_54 
REMARK       I    between atoms: C_54  and  N_56 
REMARK   20  A    between atoms: N_56  and  C_57 
REMARK   21  A    between atoms: C_57  and  C_58 
REMARK   22  A    between atoms: C_58  and  O_59 
REMARK   23  A    between atoms: O_59  and  C_60 
REMARK   24  A    between atoms: C_60  and  C_61 
REMARK   25  A    between atoms: C_61  and  O_62 
REMARK   26  A    between atoms: O_62  and  C_63 
REMARK   27  A    between atoms: C_63  and  C_64 
REMARK   28  A    between atoms: C_64  and  O_65 
REMARK   29  A    between atoms: O_65  and  C_66 
REMARK   30  A    between atoms: C_66  and  C_67 
REMARK   31  A    between atoms: C_67  and  O_68 
REMARK   32  A    between atoms: O_68  and  C_69 
REMARK   33  A    between atoms: C_69  and  C_70 
REMARK   34  A    between atoms: C_70  and  O_71 
REMARK   35  A    between atoms: O_71  and  C_72 
REMARK   36  A    between atoms: C_72  and  C_73 
REMARK   37  A    between atoms: C_73  and  O_74 
REMARK   38  A    between atoms: O_74  and  C_75 
REMARK   39  A    between atoms: C_75  and  C_76 
REMARK   40  A    between atoms: C_76  and  O_77 
REMARK   41  A    between atoms: O_77  and  C_78 
REMARK   42  A    between atoms: C_78  and  C_79 
REMARK   43  A    between atoms: C_79  and  O_80 
REMARK   44  A    between atoms: O_80  and  C_81 
REMARK   45  A    between atoms: C_81  and  C_82 
REMARK   46  A    between atoms: C_82  and  N_83 
REMARK   47  A    between atoms: C_85  and  C_89 
REMARK   48  A    between atoms: C_89  and  N_90 
REMARK       I    between atoms: N_90  and  C_91 
REMARK   49  A    between atoms: C_91  and  C_93 
REMARK   50  A    between atoms: C_96  and  C_99 
REMARK   51  A    between atoms: C_99  and  N_100 
REMARK   52  A    between atoms: C_104  and  S_107 
REMARK   53  A    between atoms: S_107  and  C_108 
REMARK   54  A    between atoms: C_108  and  C_109 
REMARK   55  A    between atoms: C_109  and  C_110 
REMARK   56  A    between atoms: C_109  and  N_113 
REMARK   57  A    between atoms: C_110  and  O_112 
ROOT
HETATM    1  C   UNK N   1      23.206  20.497   3.051  0.00  0.00     0.241 C 
HETATM    2  O   UNK N   1      22.572  21.476   2.689  0.00  0.00    -0.271 OA
HETATM    3  N   UNK N   1      24.564  20.563   3.082  0.00  0.00    -0.357 N 
HETATM    4  H   UNK N   1      24.986  21.420   2.846  0.00  0.00     0.162 HD
ENDROOT
BRANCH   3   5
HETATM    5  C   UNK N   1      25.432  19.456   3.440  0.00  0.00     0.148 C 
BRANCH   5   6
HETATM    6  C   UNK N   1      26.091  19.602   4.815  0.00  0.00     0.187 C 
BRANCH   6   7
HETATM    7  O   UNK N   1      25.960  20.898   5.321  0.00  0.00    -0.387 OA
BRANCH   7   8
HETATM    8  C   UNK N   1      27.050  21.064   6.182  0.00  0.00     0.193 C 
BRANCH   8   9
HETATM    9  C   UNK N   1      27.636  19.703   6.540  0.00  0.00     0.193 C 
BRANCH   9  10
HETATM   10  O   UNK N   1      27.825  19.575   7.915  0.00  0.00    -0.387 OA
BRANCH  10  11
HETATM   11  C   UNK N   1      28.050  18.216   8.163  0.00  0.00     0.193 C 
BRANCH  11  12
HETATM   12  C   UNK N   1      28.860  18.089   9.446  0.00  0.00     0.193 C 
BRANCH  12  13
HETATM   13  O   UNK N   1      29.988  17.280   9.246  0.00  0.00    -0.387 OA
BRANCH  13  14
HETATM   14  C   UNK N   1      30.987  18.104   8.705  0.00  0.00     0.193 C 
BRANCH  14  15
HETATM   15  C   UNK N   1      32.211  17.301   8.317  0.00  0.00     0.193 C 
BRANCH  15  16
HETATM   16  O   UNK N   1      32.996  17.977   7.373  0.00  0.00    -0.387 OA
BRANCH  16  17
HETATM   17  C   UNK N   1      34.251  18.185   7.963  0.00  0.00     0.193 C 
BRANCH  17  18
HETATM   18  C   UNK N   1      34.585  17.079   8.942  0.00  0.00     0.193 C 
BRANCH  18  19
HETATM   19  O   UNK N   1      35.345  17.585  10.006  0.00  0.00    -0.387 OA
BRANCH  19  20
HETATM   20  C   UNK N   1      35.429  16.546  10.942  0.00  0.00     0.193 C 
BRANCH  20  21
HETATM   21  C   UNK N   1      36.134  15.346  10.330  0.00  0.00     0.193 C 
BRANCH  21  22
HETATM   22  O   UNK N   1      36.262  14.319  11.275  0.00  0.00    -0.387 OA
BRANCH  22  23
HETATM   23  C   UNK N   1      35.742  14.840  12.469  0.00  0.00     0.193 C 
BRANCH  23  24
HETATM   24  C   UNK N   1      36.340  14.166  13.687  0.00  0.00     0.193 C 
BRANCH  24  25
HETATM   25  O   UNK N   1      36.995  12.974  13.346  0.00  0.00    -0.387 OA
BRANCH  25  26
HETATM   26  C   UNK N   1      37.249  12.318  14.557  0.00  0.00     0.193 C 
BRANCH  26  27
HETATM   27  C   UNK N   1      36.106  12.524  15.546  0.00  0.00     0.193 C 
BRANCH  27  28
HETATM   28  O   UNK N   1      35.523  11.304  15.931  0.00  0.00    -0.387 OA
BRANCH  28  29
HETATM   29  C   UNK N   1      36.055  10.299  15.100  0.00  0.00     0.189 C 
BRANCH  29  30
HETATM   30  C   UNK N   1      34.977   9.619  14.247  0.00  0.00     0.172 C 
BRANCH  30  31
HETATM   31  N   UNK N   1      34.964  10.202  12.916  0.00  0.00    -0.283 N 
HETATM   32  C   UNK N   1      35.766   9.859  11.895  0.00  0.00     0.135 A 
HETATM   33  C   UNK N   1      35.552  10.806  10.925  0.00  0.00     0.058 A 
HETATM   34  N   UNK N   1      34.623  11.677  11.368  0.00  0.00    -0.285 N 
HETATM   35  N   UNK N   1      34.284  11.287  12.587  0.00  0.00    -0.020 NA
ATOM     36  HN  UNK N   1      34.253  12.481  10.862  1.00  0.00     0.184 HD
BRANCH  33  37
HETATM   37  C   UNK N   1      36.328  10.945   9.659  0.00  0.00     0.182 C 
BRANCH  37  38
HETATM   38  N   UNK N   1      35.898  12.134   8.983  0.00  0.00    -0.355 N 
HETATM   39  C   UNK N   1      35.071  12.095   7.909  0.00  0.00     0.222 C 
HETATM   40  O   UNK N   1      34.754  11.028   7.403  0.00  0.00    -0.273 OA
HETATM   41  H   UNK N   1      36.214  13.006   9.310  0.00  0.00     0.162 HD
BRANCH  39  42
HETATM   42  C   UNK N   1      34.443  13.365   7.420  0.00  0.00     0.078 C 
HETATM   43  C   UNK N   1      33.072  13.102   6.753  0.00  0.00     0.014 C 
HETATM   44  C   UNK N   1      32.925  13.837   5.407  0.00  0.00     0.007 C 
HETATM   45  C   UNK N   1      34.038  13.379   4.451  0.00  0.00     0.004 C 
HETATM   46  C   UNK N   1      35.406  13.260   5.133  0.00  0.00     0.007 C 
HETATM   47  C   UNK N   1      35.436  14.023   6.455  0.00  0.00     0.014 C 
BRANCH  45  48
HETATM   48  C   UNK N   1      34.068  14.126   3.103  0.00  0.00     0.139 C 
BRANCH  48  49
HETATM   49  N   UNK N   1      34.236  13.257   1.944  0.00  0.00    -0.287 N 
HETATM   50  C   UNK N   1      35.400  13.017   1.337  0.00  0.00     0.228 A 
HETATM   51  O   UNK N   1      36.458  13.505   1.700  0.00  0.00    -0.273 OA
HETATM   52  C   UNK N   1      35.260  12.111   0.147  0.00  0.00     0.128 A 
HETATM   53  C   UNK N   1      33.736  11.794   0.161  0.00  0.00     0.148 A 
HETATM   54  C   UNK N   1      33.249  12.629   1.296  0.00  0.00     0.240 A 
HETATM   55  O   UNK N   1      32.070  12.730   1.598  0.00  0.00    -0.272 OA
BRANCH  53  56
HETATM   56  S   UNK N   1      32.933  12.301  -1.386  0.00  0.00    -0.152 SA
BRANCH  56  57
HETATM   57  C   UNK N   1      32.191  10.646  -1.625  0.00  0.00     0.110 C 
BRANCH  57  58
HETATM   58  C   UNK N   1      30.692  10.737  -1.862  0.00  0.00     0.182 C 
BRANCH  58  59
HETATM   59  C   UNK N   1      30.368  10.590  -3.314  0.00  0.00     0.163 C 
HETATM   60  O   UNK N   1      30.536   9.521  -3.881  0.00  0.00    -0.648 OA
BRANCH  59  61
HETATM   61  O   UNK N   1      29.870  11.637  -3.994  0.00  0.00    -0.775 OA
HETATM   62  H   UNK N   1      29.180  11.865  -4.587  0.00  0.00     0.167 HD
ENDBRANCH  59  61
ENDBRANCH  58  59
BRANCH  58  63
HETATM   63  N   UNK N   1      30.193  12.010  -1.369  0.00  0.00    -0.417 N 
HETATM   64  H   UNK N   1      29.195  12.138  -1.198  0.00  0.00     0.150 HD
HETATM   65  H   UNK N   1      30.841  12.777  -1.193  0.00  0.00     0.150 HD
ENDBRANCH  58  63
ENDBRANCH  57  58
ENDBRANCH  56  57
ENDBRANCH  53  56
ENDBRANCH  48  49
ENDBRANCH  45  48
ENDBRANCH  39  42
ENDBRANCH  37  38
ENDBRANCH  33  37
ENDBRANCH  30  31
ENDBRANCH  29  30
ENDBRANCH  28  29
ENDBRANCH  27  28
ENDBRANCH  26  27
ENDBRANCH  25  26
ENDBRANCH  24  25
ENDBRANCH  23  24
ENDBRANCH  22  23
ENDBRANCH  21  22
ENDBRANCH  20  21
ENDBRANCH  19  20
ENDBRANCH  18  19
ENDBRANCH  17  18
ENDBRANCH  16  17
ENDBRANCH  15  16
ENDBRANCH  14  15
ENDBRANCH  13  14
ENDBRANCH  12  13
ENDBRANCH  11  12
ENDBRANCH  10  11
ENDBRANCH   9  10
ENDBRANCH   8   9
ENDBRANCH   7   8
ENDBRANCH   6   7
ENDBRANCH   5   6
ENDBRANCH   3   5
BRANCH   1  66
HETATM   66  C   UNK N   1      22.476  19.262   3.514  0.00  0.00     0.271 C 
BRANCH  66  67
HETATM   67  O   UNK N   1      21.094  19.389   3.328  0.00  0.00    -0.373 OA
BRANCH  67  68
HETATM   68  C   UNK N   1      20.580  18.121   3.587  0.00  0.00     0.271 C 
BRANCH  68  69
HETATM   69  C   UNK N   1      20.525  17.341   2.322  0.00  0.00     0.242 C 
HETATM   70  N   UNK N   1      20.840  16.029   2.366  0.00  0.00    -0.346 N 
HETATM   71  H   UNK N   1      21.084  15.650   3.242  0.00  0.00     0.163 HD
HETATM   72  O   UNK N   1      20.258  17.897   1.268  0.00  0.00    -0.271 OA
BRANCH  70  73
HETATM   73  C   UNK N   1      20.846  15.138   1.235  0.00  0.00     0.177 C 
BRANCH  73  74
HETATM   74  C   UNK N   1      21.836  14.044   1.384  0.00  0.00     0.245 C 
HETATM   75  N   UNK N   1      22.677  13.950   2.462  0.00  0.00    -0.325 N 
HETATM   76  H   UNK N   1      22.681  14.625   3.179  0.00  0.00     0.169 HD
HETATM   77  O   UNK N   1      21.864  13.193   0.503  0.00  0.00    -0.271 OA
BRANCH  75  78
HETATM   78  C   UNK N   1      23.537  12.835   2.483  0.00  0.00     0.034 A 
HETATM   79  C   UNK N   1      24.748  12.983   1.796  0.00  0.00     0.030 A 
HETATM   80  C   UNK N   1      25.920  12.440   2.312  0.00  0.00     0.011 A 
HETATM   81  C   UNK N   1      25.893  11.770   3.533  0.00  0.00    -0.034 A 
HETATM   82  C   UNK N   1      24.666  11.516   4.163  0.00  0.00     0.011 A 
HETATM   83  C   UNK N   1      23.496  12.049   3.640  0.00  0.00     0.030 A 
BRANCH  81  84
HETATM   84  C   UNK N   1      27.197  11.511   4.230  0.00  0.00     0.219 C 
BRANCH  84  85
HETATM   85  O   UNK N   1      28.246  12.209   3.658  0.00  0.00    -0.293 OA
BRANCH  85  86
HETATM   86  C   UNK N   1      29.344  12.481   4.389  0.00  0.00     0.408 C 
HETATM   87  O   UNK N   1      30.317  11.743   4.339  0.00  0.00    -0.229 OA
BRANCH  86  88
HETATM   88  O   UNK N   1      29.345  13.603   5.146  0.00  0.00    -0.271 OA
BRANCH  88  89
HETATM   89  C   UNK N   1      28.935  14.876   4.818  0.00  0.00     0.188 C 
HETATM   90  C   UNK N   1      29.373  15.207   3.403  0.00  0.00     0.299 C 
HETATM   91  O   UNK N   1      28.515  15.717   2.488  0.00  0.00    -0.314 OA
HETATM   92  O   UNK N   1      30.535  15.019   3.077  0.00  0.00    -0.261 OA
HETATM   93  C   UNK N   1      27.190  16.043   2.706  0.00  0.00     0.224 C 
HETATM   94  C   UNK N   1      26.621  15.565   4.012  0.00  0.00     0.044 A 
HETATM   95  C   UNK N   1      27.443  14.999   5.012  0.00  0.00     0.003 A 
HETATM   96  C   UNK N   1      25.236  15.678   4.244  0.00  0.00     0.257 A 
HETATM   97  C   UNK N   1      26.862  14.509   6.198  0.00  0.00     0.043 A 
HETATM   98  C   UNK N   1      25.484  14.603   6.347  0.00  0.00     0.065 A 
HETATM   99  N   UNK N   1      24.713  15.189   5.412  0.00  0.00    -0.307 N 
HETATM  100  C   UNK N   1      24.664  14.111   7.408  0.00  0.00     0.068 A 
HETATM  101  C   UNK N   1      23.293  15.182   5.801  0.00  0.00     0.174 A 
HETATM  102  C   UNK N   1      23.366  14.437   7.115  0.00  0.00    -0.004 A 
HETATM  103  C   UNK N   1      22.330  14.063   7.977  0.00  0.00    -0.036 A 
HETATM  104  C   UNK N   1      22.674  13.330   9.136  0.00  0.00     0.000 A 
HETATM  105  C   UNK N   1      21.694  12.911  10.047  0.00  0.00     0.050 A 
HETATM  106  C   UNK N   1      24.043  13.001   9.380  0.00  0.00     0.043 A 
HETATM  107  C   UNK N   1      22.055  12.177  11.180  0.00  0.00     0.066 A 
HETATM  108  C   UNK N   1      23.395  11.852  11.411  0.00  0.00     0.039 A 
HETATM  109  C   UNK N   1      24.386  12.264  10.515  0.00  0.00     0.033 A 
HETATM  110  N   UNK N   1      25.015  13.404   8.509  0.00  0.00    -0.353 N 
ATOM    111  HN  UNK N   1      25.994  13.175   8.686  1.00  0.00     0.166 HD
HETATM  112  O   UNK N   1      24.504  16.182   3.407  0.00  0.00    -0.267 OA
BRANCH 103 113
HETATM  113  C   UNK N   1      20.907  14.434   7.678  0.00  0.00     0.036 C 
HETATM  114  C   UNK N   1      20.567  15.806   8.233  0.00  0.00     0.010 C 
ENDBRANCH 103 113
BRANCH 107 115
HETATM  115  O   UNK N   1      21.110  11.781  12.049  0.00  0.00    -0.361 OA
HETATM  116  H   UNK N   1      21.094  10.896  12.356  0.00  0.00     0.217 HD
ENDBRANCH 107 115
BRANCH  89 117
HETATM  117  C   UNK N   1      29.625  15.829   5.804  0.00  0.00     0.050 C 
HETATM  118  C   UNK N   1      29.889  17.215   5.221  0.00  0.00     0.009 C 
ENDBRANCH  89 117
ENDBRANCH  88  89
ENDBRANCH  86  88
ENDBRANCH  85  86
ENDBRANCH  84  85
ENDBRANCH  81  84
ENDBRANCH  75  78
ENDBRANCH  73  74
BRANCH  73 119
HETATM  119  C   UNK N   1      19.473  14.663   0.798  0.00  0.00     0.036 C 
BRANCH 119 120
HETATM  120  C   UNK N   1      18.939  13.708   1.860  0.00  0.00     0.021 C 
BRANCH 120 121
HETATM  121  C   UNK N   1      18.535  12.383   1.248  0.00  0.00     0.111 C 
BRANCH 121 122
HETATM  122  N   UNK N   1      17.974  12.599  -0.073  0.00  0.00    -0.430 N 
HETATM  123  H   UNK N   1      16.980  12.584  -0.301  0.00  0.00     0.149 HD
HETATM  124  H   UNK N   1      18.627  12.781  -0.836  0.00  0.00     0.149 HD
ENDBRANCH 121 122
ENDBRANCH 120 121
ENDBRANCH 119 120
ENDBRANCH  73 119
ENDBRANCH  70  73
ENDBRANCH  68  69
ENDBRANCH  67  68
ENDBRANCH  66  67
ENDBRANCH   1  66
TORSDOF 57
ENDMDL
MODEL 2
REMARK VINA RESULT:      -6.7      2.973     12.288
REMARK WARNING: 32 MAX_TORS EXCEEDED!!!
REMARK  57 active torsions:
REMARK  status: ('A' for Active; 'I' for Inactive)
REMARK    1  A    between atoms: C_2  and  C_3 
REMARK    2  A    between atoms: C_6  and  O_114 
REMARK    3  A    between atoms: C_26  and  C_27 
REMARK    4  A    between atoms: C_26  and  O_29 
REMARK    5  A    between atoms: O_29  and  C_30 
REMARK    6  A    between atoms: C_30  and  O_32 
REMARK    7  A    between atoms: O_32  and  C_33 
REMARK    8  A    between atoms: C_33  and  C_34 
REMARK    9  A    between atoms: C_37  and  N_40 
REMARK       I    between atoms: N_40  and  C_41 
REMARK   10  A    between atoms: C_41  and  C_43 
REMARK   11  A    between atoms: C_43  and  C_44 
REMARK   12  A    between atoms: C_43  and  N_48 
REMARK   13  A    between atoms: C_44  and  C_45 
REMARK   14  A    between atoms: C_45  and  C_46 
REMARK   15  A    between atoms: C_46  and  N_47 
REMARK       I    between atoms: N_48  and  C_49 
REMARK   16  A    between atoms: C_49  and  C_51 
REMARK   17  A    between atoms: C_51  and  O_52 
REMARK   18  A    between atoms: O_52  and  C_53 
REMARK   19  A    between atoms: C_53  and  C_54 
REMARK       I    between atoms: C_54  and  N_56 
REMARK   20  A    between atoms: N_56  and  C_57 
REMARK   21  A    between atoms: C_57  and  C_58 
REMARK   22  A    between atoms: C_58  and  O_59 
REMARK   23  A    between atoms: O_59  and  C_60 
REMARK   24  A    between atoms: C_60  and  C_61 
REMARK   25  A    between atoms: C_61  and  O_62 
REMARK   26  A    between atoms: O_62  and  C_63 
REMARK   27  A    between atoms: C_63  and  C_64 
REMARK   28  A    between atoms: C_64  and  O_65 
REMARK   29  A    between atoms: O_65  and  C_66 
REMARK   30  A    between atoms: C_66  and  C_67 
REMARK   31  A    between atoms: C_67  and  O_68 
REMARK   32  A    between atoms: O_68  and  C_69 
REMARK   33  A    between atoms: C_69  and  C_70 
REMARK   34  A    between atoms: C_70  and  O_71 
REMARK   35  A    between atoms: O_71  and  C_72 
REMARK   36  A    between atoms: C_72  and  C_73 
REMARK   37  A    between atoms: C_73  and  O_74 
REMARK   38  A    between atoms: O_74  and  C_75 
REMARK   39  A    between atoms: C_75  and  C_76 
REMARK   40  A    between atoms: C_76  and  O_77 
REMARK   41  A    between atoms: O_77  and  C_78 
REMARK   42  A    between atoms: C_78  and  C_79 
REMARK   43  A    between atoms: C_79  and  O_80 
REMARK   44  A    between atoms: O_80  and  C_81 
REMARK   45  A    between atoms: C_81  and  C_82 
REMARK   46  A    between atoms: C_82  and  N_83 
REMARK   47  A    between atoms: C_85  and  C_89 
REMARK   48  A    between atoms: C_89  and  N_90 
REMARK       I    between atoms: N_90  and  C_91 
REMARK   49  A    between atoms: C_91  and  C_93 
REMARK   50  A    between atoms: C_96  and  C_99 
REMARK   51  A    between atoms: C_99  and  N_100 
REMARK   52  A    between atoms: C_104  and  S_107 
REMARK   53  A    between atoms: S_107  and  C_108 
REMARK   54  A    between atoms: C_108  and  C_109 
REMARK   55  A    between atoms: C_109  and  C_110 
REMARK   56  A    between atoms: C_109  and  N_113 
REMARK   57  A    between atoms: C_110  and  O_112 
ROOT
HETATM    1  C   UNK N   1      22.120  11.732   6.873  0.00  0.00     0.241 C 
HETATM    2  O   UNK N   1      20.899  11.743   6.828  0.00  0.00    -0.271 OA
HETATM    3  N   UNK N   1      22.792  12.913   6.863  0.00  0.00    -0.357 N 
HETATM    4  H   UNK N   1      22.262  13.742   6.860  0.00  0.00     0.162 HD
ENDROOT
BRANCH   3   5
HETATM    5  C   UNK N   1      24.238  13.035   6.858  0.00  0.00     0.148 C 
BRANCH   5   6
HETATM    6  C   UNK N   1      24.834  13.430   8.212  0.00  0.00     0.187 C 
BRANCH   6   7
HETATM    7  O   UNK N   1      24.835  12.362   9.113  0.00  0.00    -0.387 OA
BRANCH   7   8
HETATM    8  C   UNK N   1      23.995  12.764  10.156  0.00  0.00     0.193 C 
BRANCH   8   9
HETATM    9  C   UNK N   1      23.004  11.651  10.479  0.00  0.00     0.193 C 
BRANCH   9  10
HETATM   10  O   UNK N   1      21.742  12.162  10.778  0.00  0.00    -0.387 OA
BRANCH  10  11
HETATM   11  C   UNK N   1      21.675  13.430  10.189  0.00  0.00     0.193 C 
BRANCH  11  12
HETATM   12  C   UNK N   1      20.209  13.802  10.017  0.00  0.00     0.193 C 
BRANCH  12  13
HETATM   13  O   UNK N   1      19.971  14.309   8.730  0.00  0.00    -0.387 OA
BRANCH  13  14
HETATM   14  C   UNK N   1      20.800  15.431   8.577  0.00  0.00     0.193 C 
BRANCH  14  15
HETATM   15  C   UNK N   1      19.996  16.713   8.585  0.00  0.00     0.193 C 
BRANCH  15  16
HETATM   16  O   UNK N   1      20.662  17.746   7.908  0.00  0.00    -0.387 OA
BRANCH  16  17
HETATM   17  C   UNK N   1      20.769  17.349   6.568  0.00  0.00     0.193 C 
BRANCH  17  18
HETATM   18  C   UNK N   1      21.734  18.237   5.810  0.00  0.00     0.193 C 
BRANCH  18  19
HETATM   19  O   UNK N   1      21.047  19.305   5.215  0.00  0.00    -0.387 OA
BRANCH  19  20
HETATM   20  C   UNK N   1      21.375  19.257   3.854  0.00  0.00     0.193 C 
BRANCH  20  21
HETATM   21  C   UNK N   1      20.117  19.363   3.008  0.00  0.00     0.193 C 
BRANCH  21  22
HETATM   22  O   UNK N   1      19.397  18.160   3.050  0.00  0.00    -0.387 OA
BRANCH  22  23
HETATM   23  C   UNK N   1      20.240  17.198   2.474  0.00  0.00     0.193 C 
BRANCH  23  24
HETATM   24  C   UNK N   1      20.188  17.234   0.961  0.00  0.00     0.193 C 
BRANCH  24  25
HETATM   25  O   UNK N   1      20.383  15.960   0.408  0.00  0.00    -0.387 OA
BRANCH  25  26
HETATM   26  C   UNK N   1      19.102  15.415   0.247  0.00  0.00     0.193 C 
BRANCH  26  27
HETATM   27  C   UNK N   1      19.115  13.904   0.453  0.00  0.00     0.193 C 
BRANCH  27  28
HETATM   28  O   UNK N   1      18.301  13.518   1.533  0.00  0.00    -0.387 OA
BRANCH  28  29
HETATM   29  C   UNK N   1      19.123  13.431   2.673  0.00  0.00     0.189 C 
BRANCH  29  30
HETATM   30  C   UNK N   1      18.920  12.118   3.437  0.00  0.00     0.172 C 
BRANCH  30  31
HETATM   31  N   UNK N   1      20.172  11.384   3.495  0.00  0.00    -0.283 N 
HETATM   32  C   UNK N   1      21.403  11.908   3.366  0.00  0.00     0.135 A 
HETATM   33  C   UNK N   1      22.251  10.833   3.267  0.00  0.00     0.058 A 
HETATM   34  N   UNK N   1      21.527   9.700   3.357  0.00  0.00    -0.285 N 
HETATM   35  N   UNK N   1      20.261  10.064   3.493  0.00  0.00    -0.020 NA
ATOM     36  HN  UNK N   1      21.885   8.745   3.327  1.00  0.00     0.184 HD
BRANCH  33  37
HETATM   37  C   UNK N   1      23.707  10.902   2.953  0.00  0.00     0.182 C 
BRANCH  37  38
HETATM   38  N   UNK N   1      24.062  12.269   2.712  0.00  0.00    -0.355 N 
HETATM   39  C   UNK N   1      24.724  12.658   1.593  0.00  0.00     0.222 C 
HETATM   40  O   UNK N   1      25.147  11.830   0.799  0.00  0.00    -0.273 OA
HETATM   41  H   UNK N   1      23.819  12.949   3.381  0.00  0.00     0.162 HD
BRANCH  39  42
HETATM   42  C   UNK N   1      24.824  14.118   1.270  0.00  0.00     0.078 C 
HETATM   43  C   UNK N   1      26.184  14.707   1.714  0.00  0.00     0.014 C 
HETATM   44  C   UNK N   1      26.026  16.039   2.470  0.00  0.00     0.007 C 
HETATM   45  C   UNK N   1      25.152  15.819   3.714  0.00  0.00     0.004 C 
HETATM   46  C   UNK N   1      23.937  14.922   3.445  0.00  0.00     0.007 C 
HETATM   47  C   UNK N   1      23.643  14.820   1.951  0.00  0.00     0.014 C 
BRANCH  45  48
HETATM   48  C   UNK N   1      24.825  17.104   4.500  0.00  0.00     0.139 C 
BRANCH  48  49
HETATM   49  N   UNK N   1      25.997  17.872   4.902  0.00  0.00    -0.287 N 
HETATM   50  C   UNK N   1      26.441  18.963   4.277  0.00  0.00     0.228 A 
HETATM   51  O   UNK N   1      25.899  19.438   3.292  0.00  0.00    -0.273 OA
HETATM   52  C   UNK N   1      27.691  19.522   4.895  0.00  0.00     0.128 A 
HETATM   53  C   UNK N   1      27.919  18.553   6.091  0.00  0.00     0.148 A 
HETATM   54  C   UNK N   1      26.819  17.562   5.911  0.00  0.00     0.240 A 
HETATM   55  O   UNK N   1      26.687  16.570   6.611  0.00  0.00    -0.272 OA
BRANCH  53  56
HETATM   56  S   UNK N   1      29.533  17.729   5.988  0.00  0.00    -0.152 SA
BRANCH  56  57
HETATM   57  C   UNK N   1      29.935  18.144   7.723  0.00  0.00     0.110 C 
BRANCH  57  58
HETATM   58  C   UNK N   1      29.689  16.963   8.650  0.00  0.00     0.182 C 
BRANCH  58  59
HETATM   59  C   UNK N   1      28.620  17.276   9.646  0.00  0.00     0.163 C 
HETATM   60  O   UNK N   1      28.547  16.652  10.693  0.00  0.00    -0.648 OA
BRANCH  59  61
HETATM   61  O   UNK N   1      27.745  18.266   9.395  0.00  0.00    -0.775 OA
HETATM   62  H   UNK N   1      27.501  18.877   8.727  0.00  0.00     0.167 HD
ENDBRANCH  59  61
ENDBRANCH  58  59
BRANCH  58  63
HETATM   63  N   UNK N   1      30.921  16.614   9.337  0.00  0.00    -0.417 N 
HETATM   64  H   UNK N   1      31.442  15.781   9.064  0.00  0.00     0.150 HD
HETATM   65  H   UNK N   1      31.266  17.204  10.094  0.00  0.00     0.150 HD
ENDBRANCH  58  63
ENDBRANCH  57  58
ENDBRANCH  56  57
ENDBRANCH  53  56
ENDBRANCH  48  49
ENDBRANCH  45  48
ENDBRANCH  39  42
ENDBRANCH  37  38
ENDBRANCH  33  37
ENDBRANCH  30  31
ENDBRANCH  29  30
ENDBRANCH  28  29
ENDBRANCH  27  28
ENDBRANCH  26  27
ENDBRANCH  25  26
ENDBRANCH  24  25
ENDBRANCH  23  24
ENDBRANCH  22  23
ENDBRANCH  21  22
ENDBRANCH  20  21
ENDBRANCH  19  20
ENDBRANCH  18  19
ENDBRANCH  17  18
ENDBRANCH  16  17
ENDBRANCH  15  16
ENDBRANCH  14  15
ENDBRANCH  13  14
ENDBRANCH  12  13
ENDBRANCH  11  12
ENDBRANCH  10  11
ENDBRANCH   9  10
ENDBRANCH   8   9
ENDBRANCH   7   8
ENDBRANCH   6   7
ENDBRANCH   5   6
ENDBRANCH   3   5
BRANCH   1  66
HETATM   66  C   UNK N   1      22.851  10.420   7.000  0.00  0.00     0.271 C 
BRANCH  66  67
HETATM   67  O   UNK N   1      22.251   9.425   6.219  0.00  0.00    -0.373 OA
BRANCH  67  68
HETATM   68  C   UNK N   1      22.956   8.261   6.518  0.00  0.00     0.271 C 
BRANCH  68  69
HETATM   69  C   UNK N   1      23.881   7.942   5.399  0.00  0.00     0.242 C 
HETATM   70  N   UNK N   1      25.209   8.058   5.615  0.00  0.00    -0.346 N 
HETATM   71  H   UNK N   1      25.499   8.342   6.512  0.00  0.00     0.163 HD
HETATM   72  O   UNK N   1      23.438   7.641   4.302  0.00  0.00    -0.271 OA
BRANCH  70  73
HETATM   73  C   UNK N   1      26.235   7.797   4.639  0.00  0.00     0.177 C 
BRANCH  73  74
HETATM   74  C   UNK N   1      26.819   9.044   4.089  0.00  0.00     0.245 C 
HETATM   75  N   UNK N   1      27.259  10.069   4.885  0.00  0.00    -0.325 N 
HETATM   76  H   UNK N   1      27.183  10.035   5.866  0.00  0.00     0.169 HD
HETATM   77  O   UNK N   1      26.919   9.123   2.870  0.00  0.00    -0.271 OA
BRANCH  75  78
HETATM   78  C   UNK N   1      27.824  11.174   4.219  0.00  0.00     0.034 A 
HETATM   79  C   UNK N   1      27.314  12.429   4.574  0.00  0.00     0.030 A 
HETATM   80  C   UNK N   1      28.160  13.528   4.676  0.00  0.00     0.011 A 
HETATM   81  C   UNK N   1      29.527  13.373   4.453  0.00  0.00    -0.034 A 
HETATM   82  C   UNK N   1      30.022  12.149   3.981  0.00  0.00     0.011 A 
HETATM   83  C   UNK N   1      29.174  11.056   3.868  0.00  0.00     0.030 A 
BRANCH  81  84
HETATM   84  C   UNK N   1      30.449  14.465   4.909  0.00  0.00     0.219 C 
BRANCH  84  85
HETATM   85  O   UNK N   1      31.757  14.030   5.036  0.00  0.00    -0.293 OA
BRANCH  85  86
HETATM   86  C   UNK N   1      32.400  14.185   6.209  0.00  0.00     0.408 C 
HETATM   87  O   UNK N   1      31.768  14.365   7.240  0.00  0.00    -0.229 OA
BRANCH  86  88
HETATM   88  O   UNK N   1      33.751  14.103   6.213  0.00  0.00    -0.271 OA
BRANCH  88  89
HETATM   89  C   UNK N   1      34.682  15.065   6.533  0.00  0.00     0.188 C 
HETATM   90  C   UNK N   1      34.262  16.400   5.947  0.00  0.00     0.299 C 
HETATM   91  O   UNK N   1      34.233  17.533   6.690  0.00  0.00    -0.314 OA
HETATM   92  O   UNK N   1      33.948  16.464   4.768  0.00  0.00    -0.261 OA
HETATM   93  C   UNK N   1      34.610  17.648   8.014  0.00  0.00     0.224 C 
HETATM   94  C   UNK N   1      34.846  16.347   8.727  0.00  0.00     0.044 A 
HETATM   95  C   UNK N   1      34.869  15.118   8.030  0.00  0.00     0.003 A 
HETATM   96  C   UNK N   1      35.044  16.350  10.122  0.00  0.00     0.257 A 
HETATM   97  C   UNK N   1      35.035  13.915   8.745  0.00  0.00     0.043 A 
HETATM   98  C   UNK N   1      35.175  13.979  10.125  0.00  0.00     0.065 A 
HETATM   99  N   UNK N   1      35.203  15.157  10.776  0.00  0.00    -0.307 N 
HETATM  100  C   UNK N   1      35.274  12.908  11.065  0.00  0.00     0.068 A 
HETATM  101  C   UNK N   1      35.377  14.969  12.226  0.00  0.00     0.174 A 
HETATM  102  C   UNK N   1      35.394  13.459  12.313  0.00  0.00    -0.004 A 
HETATM  103  C   UNK N   1      35.492  12.641  13.442  0.00  0.00    -0.036 A 
HETATM  104  C   UNK N   1      35.445  11.242  13.244  0.00  0.00     0.000 A 
HETATM  105  C   UNK N   1      35.529  10.352  14.324  0.00  0.00     0.050 A 
HETATM  106  C   UNK N   1      35.299  10.723  11.921  0.00  0.00     0.043 A 
HETATM  107  C   UNK N   1      35.468   8.973  14.107  0.00  0.00     0.066 A 
HETATM  108  C   UNK N   1      35.319   8.471  12.811  0.00  0.00     0.039 A 
HETATM  109  C   UNK N   1      35.236   9.342  11.721  0.00  0.00     0.033 A 
HETATM  110  N   UNK N   1      35.220  11.570  10.852  0.00  0.00    -0.353 N 
ATOM    111  HN  UNK N   1      35.122  11.201   9.906  1.00  0.00     0.166 HD
HETATM  112  O   UNK N   1      35.052  17.399  10.746  0.00  0.00    -0.267 OA
BRANCH 103 113
HETATM  113  C   UNK N   1      35.647  13.233  14.813  0.00  0.00     0.036 C 
HETATM  114  C   UNK N   1      37.094  13.594  15.097  0.00  0.00     0.010 C 
ENDBRANCH 103 113
BRANCH 107 115
HETATM  115  O   UNK N   1      35.553   8.128  15.148  0.00  0.00    -0.361 OA
HETATM  116  H   UNK N   1      35.332   8.420  16.010  0.00  0.00     0.217 HD
ENDBRANCH 107 115
BRANCH  89 117
HETATM  117  C   UNK N   1      36.009  14.623   5.901  0.00  0.00     0.050 C 
HETATM  118  C   UNK N   1      35.877  13.385   5.020  0.00  0.00     0.009 C 
ENDBRANCH  89 117
ENDBRANCH  88  89
ENDBRANCH  86  88
ENDBRANCH  85  86
ENDBRANCH  84  85
ENDBRANCH  81  84
ENDBRANCH  75  78
ENDBRANCH  73  74
BRANCH  73 119
HETATM  119  C   UNK N   1      27.271   6.776   5.069  0.00  0.00     0.036 C 
BRANCH 119 120
HETATM  120  C   UNK N   1      26.699   5.981   6.238  0.00  0.00     0.021 C 
BRANCH 120 121
HETATM  121  C   UNK N   1      27.780   5.624   7.237  0.00  0.00     0.111 C 
BRANCH 121 122
HETATM  122  N   UNK N   1      29.062   6.124   6.776  0.00  0.00    -0.430 N 
HETATM  123  H   UNK N   1      29.566   6.914   7.181  0.00  0.00     0.149 HD
HETATM  124  H   UNK N   1      29.494   5.649   5.984  0.00  0.00     0.149 HD
ENDBRANCH 121 122
ENDBRANCH 120 121
ENDBRANCH 119 120
ENDBRANCH  73 119
ENDBRANCH  70  73
ENDBRANCH  68  69
ENDBRANCH  67  68
ENDBRANCH  66  67
ENDBRANCH   1  66
TORSDOF 57
ENDMDL
MODEL 3
REMARK VINA RESULT:      -6.6      3.636      9.261
REMARK WARNING: 32 MAX_TORS EXCEEDED!!!
REMARK  57 active torsions:
REMARK  status: ('A' for Active; 'I' for Inactive)
REMARK    1  A    between atoms: C_2  and  C_3 
REMARK    2  A    between atoms: C_6  and  O_114 
REMARK    3  A    between atoms: C_26  and  C_27 
REMARK    4  A    between atoms: C_26  and  O_29 
REMARK    5  A    between atoms: O_29  and  C_30 
REMARK    6  A    between atoms: C_30  and  O_32 
REMARK    7  A    between atoms: O_32  and  C_33 
REMARK    8  A    between atoms: C_33  and  C_34 
REMARK    9  A    between atoms: C_37  and  N_40 
REMARK       I    between atoms: N_40  and  C_41 
REMARK   10  A    between atoms: C_41  and  C_43 
REMARK   11  A    between atoms: C_43  and  C_44 
REMARK   12  A    between atoms: C_43  and  N_48 
REMARK   13  A    between atoms: C_44  and  C_45 
REMARK   14  A    between atoms: C_45  and  C_46 
REMARK   15  A    between atoms: C_46  and  N_47 
REMARK       I    between atoms: N_48  and  C_49 
REMARK   16  A    between atoms: C_49  and  C_51 
REMARK   17  A    between atoms: C_51  and  O_52 
REMARK   18  A    between atoms: O_52  and  C_53 
REMARK   19  A    between atoms: C_53  and  C_54 
REMARK       I    between atoms: C_54  and  N_56 
REMARK   20  A    between atoms: N_56  and  C_57 
REMARK   21  A    between atoms: C_57  and  C_58 
REMARK   22  A    between atoms: C_58  and  O_59 
REMARK   23  A    between atoms: O_59  and  C_60 
REMARK   24  A    between atoms: C_60  and  C_61 
REMARK   25  A    between atoms: C_61  and  O_62 
REMARK   26  A    between atoms: O_62  and  C_63 
REMARK   27  A    between atoms: C_63  and  C_64 
REMARK   28  A    between atoms: C_64  and  O_65 
REMARK   29  A    between atoms: O_65  and  C_66 
REMARK   30  A    between atoms: C_66  and  C_67 
REMARK   31  A    between atoms: C_67  and  O_68 
REMARK   32  A    between atoms: O_68  and  C_69 
REMARK   33  A    between atoms: C_69  and  C_70 
REMARK   34  A    between atoms: C_70  and  O_71 
REMARK   35  A    between atoms: O_71  and  C_72 
REMARK   36  A    between atoms: C_72  and  C_73 
REMARK   37  A    between atoms: C_73  and  O_74 
REMARK   38  A    between atoms: O_74  and  C_75 
REMARK   39  A    between atoms: C_75  and  C_76 
REMARK   40  A    between atoms: C_76  and  O_77 
REMARK   41  A    between atoms: O_77  and  C_78 
REMARK   42  A    between atoms: C_78  and  C_79 
REMARK   43  A    between atoms: C_79  and  O_80 
REMARK   44  A    between atoms: O_80  and  C_81 
REMARK   45  A    between atoms: C_81  and  C_82 
REMARK   46  A    between atoms: C_82  and  N_83 
REMARK   47  A    between atoms: C_85  and  C_89 
REMARK   48  A    between atoms: C_89  and  N_90 
REMARK       I    between atoms: N_90  and  C_91 
REMARK   49  A    between atoms: C_91  and  C_93 
REMARK   50  A    between atoms: C_96  and  C_99 
REMARK   51  A    between atoms: C_99  and  N_100 
REMARK   52  A    between atoms: C_104  and  S_107 
REMARK   53  A    between atoms: S_107  and  C_108 
REMARK   54  A    between atoms: C_108  and  C_109 
REMARK   55  A    between atoms: C_109  and  C_110 
REMARK   56  A    between atoms: C_109  and  N_113 
REMARK   57  A    between atoms: C_110  and  O_112 
ROOT
HETATM    1  C   UNK N   1      20.392  13.798  10.002  0.00  0.00     0.241 C 
HETATM    2  O   UNK N   1      19.177  13.826  10.131  0.00  0.00    -0.271 OA
HETATM    3  N   UNK N   1      21.096  12.799  10.598  0.00  0.00    -0.357 N 
HETATM    4  H   UNK N   1      20.590  12.108  11.083  0.00  0.00     0.162 HD
ENDROOT
BRANCH   3   5
HETATM    5  C   UNK N   1      22.542  12.684  10.567  0.00  0.00     0.148 C 
BRANCH   5   6
HETATM    6  C   UNK N   1      23.060  11.617   9.597  0.00  0.00     0.187 C 
BRANCH   6   7
HETATM    7  O   UNK N   1      24.428  11.756   9.351  0.00  0.00    -0.387 OA
BRANCH   7   8
HETATM    8  C   UNK N   1      24.594  13.089   8.961  0.00  0.00     0.193 C 
BRANCH   8   9
HETATM    9  C   UNK N   1      24.716  13.170   7.443  0.00  0.00     0.193 C 
BRANCH   9  10
HETATM   10  O   UNK N   1      23.929  14.196   6.923  0.00  0.00    -0.387 OA
BRANCH  10  11
HETATM   11  C   UNK N   1      22.865  13.582   6.252  0.00  0.00     0.193 C 
BRANCH  11  12
HETATM   12  C   UNK N   1      23.341  12.232   5.732  0.00  0.00     0.193 C 
BRANCH  12  13
HETATM   13  O   UNK N   1      22.257  11.457   5.293  0.00  0.00    -0.387 OA
BRANCH  13  14
HETATM   14  C   UNK N   1      22.405  10.188   5.873  0.00  0.00     0.193 C 
BRANCH  14  15
HETATM   15  C   UNK N   1      23.850   9.918   6.240  0.00  0.00     0.193 C 
BRANCH  15  16
HETATM   16  O   UNK N   1      23.952   9.082   7.361  0.00  0.00    -0.387 OA
BRANCH  16  17
HETATM   17  C   UNK N   1      24.388   7.832   6.897  0.00  0.00     0.193 C 
BRANCH  17  18
HETATM   18  C   UNK N   1      23.316   6.777   7.077  0.00  0.00     0.193 C 
BRANCH  18  19
HETATM   19  O   UNK N   1      23.668   5.899   8.111  0.00  0.00    -0.387 OA
BRANCH  19  20
HETATM   20  C   UNK N   1      24.933   5.401   7.773  0.00  0.00     0.193 C 
BRANCH  20  21
HETATM   21  C   UNK N   1      25.746   5.144   9.032  0.00  0.00     0.193 C 
BRANCH  21  22
HETATM   22  O   UNK N   1      26.958   5.846   8.983  0.00  0.00    -0.387 OA
BRANCH  22  23
HETATM   23  C   UNK N   1      27.517   5.546   7.732  0.00  0.00     0.193 C 
BRANCH  23  24
HETATM   24  C   UNK N   1      29.006   5.824   7.698  0.00  0.00     0.193 C 
BRANCH  24  25
HETATM   25  O   UNK N   1      29.512   6.077   8.981  0.00  0.00    -0.387 OA
BRANCH  25  26
HETATM   26  C   UNK N   1      30.446   7.109   8.825  0.00  0.00     0.193 C 
BRANCH  26  27
HETATM   27  C   UNK N   1      30.949   7.186   7.387  0.00  0.00     0.193 C 
BRANCH  27  28
HETATM   28  O   UNK N   1      31.259   8.506   7.013  0.00  0.00    -0.387 OA
BRANCH  28  29
HETATM   29  C   UNK N   1      32.117   8.440   5.899  0.00  0.00     0.189 C 
BRANCH  29  30
HETATM   30  C   UNK N   1      33.151   9.572   5.892  0.00  0.00     0.172 C 
BRANCH  30  31
HETATM   31  N   UNK N   1      32.539  10.792   5.394  0.00  0.00    -0.283 N 
HETATM   32  C   UNK N   1      32.400  11.137   4.103  0.00  0.00     0.135 A 
HETATM   33  C   UNK N   1      31.979  12.443   4.115  0.00  0.00     0.058 A 
HETATM   34  N   UNK N   1      31.855  12.847   5.395  0.00  0.00    -0.285 N 
HETATM   35  N   UNK N   1      32.206  11.821   6.155  0.00  0.00    -0.020 NA
ATOM     36  HN  UNK N   1      31.550  13.765   5.717  1.00  0.00     0.184 HD
BRANCH  33  37
HETATM   37  C   UNK N   1      31.834  13.321   2.918  0.00  0.00     0.182 C 
BRANCH  37  38
HETATM   38  N   UNK N   1      32.270  14.642   3.260  0.00  0.00    -0.355 N 
HETATM   39  C   UNK N   1      31.440  15.714   3.206  0.00  0.00     0.222 C 
HETATM   40  O   UNK N   1      30.311  15.606   2.746  0.00  0.00    -0.273 OA
HETATM   41  H   UNK N   1      33.203  14.777   3.543  0.00  0.00     0.162 HD
BRANCH  39  42
HETATM   42  C   UNK N   1      31.868  17.007   3.830  0.00  0.00     0.078 C 
HETATM   43  C   UNK N   1      33.322  16.932   4.353  0.00  0.00     0.014 C 
HETATM   44  C   UNK N   1      33.462  17.500   5.778  0.00  0.00     0.007 C 
HETATM   45  C   UNK N   1      32.551  16.714   6.732  0.00  0.00     0.004 C 
HETATM   46  C   UNK N   1      31.168  16.419   6.139  0.00  0.00     0.007 C 
HETATM   47  C   UNK N   1      30.870  17.327   4.949  0.00  0.00     0.014 C 
BRANCH  45  48
HETATM   48  C   UNK N   1      32.515  17.258   8.174  0.00  0.00     0.139 C 
BRANCH  48  49
HETATM   49  N   UNK N   1      33.488  16.642   9.068  0.00  0.00    -0.287 N 
HETATM   50  C   UNK N   1      34.658  17.187   9.409  0.00  0.00     0.228 A 
HETATM   51  O   UNK N   1      35.034  18.274   9.002  0.00  0.00    -0.273 OA
HETATM   52  C   UNK N   1      35.468  16.306  10.317  0.00  0.00     0.128 A 
HETATM   53  C   UNK N   1      34.523  15.086  10.510  0.00  0.00     0.148 A 
HETATM   54  C   UNK N   1      33.374  15.431   9.624  0.00  0.00     0.240 A 
HETATM   55  O   UNK N   1      32.430  14.682   9.425  0.00  0.00    -0.272 OA
BRANCH  53  56
HETATM   56  S   UNK N   1      35.302  13.541   9.961  0.00  0.00    -0.152 SA
BRANCH  56  57
HETATM   57  C   UNK N   1      35.104  12.773  11.609  0.00  0.00     0.110 C 
BRANCH  57  58
HETATM   58  C   UNK N   1      36.348  12.959  12.464  0.00  0.00     0.182 C 
BRANCH  58  59
HETATM   59  C   UNK N   1      36.057  13.814  13.656  0.00  0.00     0.163 C 
HETATM   60  O   UNK N   1      35.089  13.581  14.363  0.00  0.00    -0.648 OA
BRANCH  59  61
HETATM   61  O   UNK N   1      36.880  14.832  13.961  0.00  0.00    -0.775 OA
HETATM   62  H   UNK N   1      37.394  15.173  14.667  0.00  0.00     0.167 HD
ENDBRANCH  59  61
ENDBRANCH  58  59
BRANCH  58  63
HETATM   63  N   UNK N   1      37.405  13.561  11.668  0.00  0.00    -0.417 N 
HETATM   64  H   UNK N   1      37.539  14.572  11.674  0.00  0.00     0.150 HD
HETATM   65  H   UNK N   1      38.016  12.971  11.104  0.00  0.00     0.150 HD
ENDBRANCH  58  63
ENDBRANCH  57  58
ENDBRANCH  56  57
ENDBRANCH  53  56
ENDBRANCH  48  49
ENDBRANCH  45  48
ENDBRANCH  39  42
ENDBRANCH  37  38
ENDBRANCH  33  37
ENDBRANCH  30  31
ENDBRANCH  29  30
ENDBRANCH  28  29
ENDBRANCH  27  28
ENDBRANCH  26  27
ENDBRANCH  25  26
ENDBRANCH  24  25
ENDBRANCH  23  24
ENDBRANCH  22  23
ENDBRANCH  21  22
ENDBRANCH  20  21
ENDBRANCH  19  20
ENDBRANCH  18  19
ENDBRANCH  17  18
ENDBRANCH  16  17
ENDBRANCH  15  16
ENDBRANCH  14  15
ENDBRANCH  13  14
ENDBRANCH  12  13
ENDBRANCH  11  12
ENDBRANCH  10  11
ENDBRANCH   9  10
ENDBRANCH   8   9
ENDBRANCH   7   8
ENDBRANCH   6   7
ENDBRANCH   5   6
ENDBRANCH   3   5
BRANCH   1  66
HETATM   66  C   UNK N   1      21.076  14.827   9.139  0.00  0.00     0.271 C 
BRANCH  66  67
HETATM   67  O   UNK N   1      20.234  15.271   8.113  0.00  0.00    -0.373 OA
BRANCH  67  68
HETATM   68  C   UNK N   1      20.551  16.618   7.948  0.00  0.00     0.271 C 
BRANCH  68  69
HETATM   69  C   UNK N   1      21.036  16.846   6.561  0.00  0.00     0.242 C 
HETATM   70  N   UNK N   1      21.639  18.020   6.279  0.00  0.00    -0.346 N 
HETATM   71  H   UNK N   1      21.735  18.668   7.014  0.00  0.00     0.163 HD
HETATM   72  O   UNK N   1      20.836  16.008   5.694  0.00  0.00    -0.271 OA
BRANCH  70  73
HETATM   73  C   UNK N   1      22.155  18.401   4.990  0.00  0.00     0.177 C 
BRANCH  73  74
HETATM   74  C   UNK N   1      23.587  18.052   4.830  0.00  0.00     0.245 C 
HETATM   75  N   UNK N   1      24.061  16.777   4.999  0.00  0.00    -0.325 N 
HETATM   76  H   UNK N   1      23.471  16.033   5.260  0.00  0.00     0.169 HD
HETATM   77  O   UNK N   1      24.350  18.957   4.514  0.00  0.00    -0.271 OA
BRANCH  75  78
HETATM   78  C   UNK N   1      25.440  16.593   4.778  0.00  0.00     0.034 A 
HETATM   79  C   UNK N   1      26.208  16.305   5.911  0.00  0.00     0.030 A 
HETATM   80  C   UNK N   1      27.252  15.389   5.839  0.00  0.00     0.011 A 
HETATM   81  C   UNK N   1      27.516  14.734   4.637  0.00  0.00    -0.034 A 
HETATM   82  C   UNK N   1      26.829  15.108   3.474  0.00  0.00     0.011 A 
HETATM   83  C   UNK N   1      25.795  16.031   3.546  0.00  0.00     0.030 A 
BRANCH  81  84
HETATM   84  C   UNK N   1      28.392  13.516   4.670  0.00  0.00     0.219 C 
BRANCH  84  85
HETATM   85  O   UNK N   1      27.771  12.406   4.124  0.00  0.00    -0.293 OA
BRANCH  85  86
HETATM   86  C   UNK N   1      28.053  11.180   4.604  0.00  0.00     0.408 C 
HETATM   87  O   UNK N   1      29.140  10.953   5.115  0.00  0.00    -0.229 OA
BRANCH  86  88
HETATM   88  O   UNK N   1      27.093  10.229   4.532  0.00  0.00    -0.271 OA
BRANCH  88  89
HETATM   89  C   UNK N   1      26.963   9.187   3.641  0.00  0.00     0.188 C 
HETATM   90  C   UNK N   1      27.430   7.897   4.289  0.00  0.00     0.299 C 
HETATM   91  O   UNK N   1      26.683   6.768   4.259  0.00  0.00    -0.314 OA
HETATM   92  O   UNK N   1      28.516   7.868   4.849  0.00  0.00    -0.261 OA
HETATM   93  C   UNK N   1      25.467   6.613   3.623  0.00  0.00     0.224 C 
HETATM   94  C   UNK N   1      24.837   7.884   3.129  0.00  0.00     0.044 A 
HETATM   95  C   UNK N   1      25.539   9.110   3.148  0.00  0.00     0.003 A 
HETATM   96  C   UNK N   1      23.515   7.856   2.643  0.00  0.00     0.257 A 
HETATM   97  C   UNK N   1      24.891  10.291   2.731  0.00  0.00     0.043 A 
HETATM   98  C   UNK N   1      23.571  10.207   2.309  0.00  0.00     0.065 A 
HETATM   99  N   UNK N   1      22.925   9.027   2.247  0.00  0.00    -0.307 N 
HETATM  100  C   UNK N   1      22.687  11.259   1.922  0.00  0.00     0.068 A 
HETATM  101  C   UNK N   1      21.546   9.191   1.755  0.00  0.00     0.174 A 
HETATM  102  C   UNK N   1      21.485  10.693   1.590  0.00  0.00    -0.004 A 
HETATM  103  C   UNK N   1      20.412  11.494   1.185  0.00  0.00    -0.036 A 
HETATM  104  C   UNK N   1      20.614  12.893   1.151  0.00  0.00     0.000 A 
HETATM  105  C   UNK N   1      19.588  13.765   0.764  0.00  0.00     0.050 A 
HETATM  106  C   UNK N   1      21.884  13.429   1.527  0.00  0.00     0.043 A 
HETATM  107  C   UNK N   1      19.805  15.145   0.750  0.00  0.00     0.066 A 
HETATM  108  C   UNK N   1      21.047  15.666   1.124  0.00  0.00     0.039 A 
HETATM  109  C   UNK N   1      22.084  14.811   1.511  0.00  0.00     0.033 A 
HETATM  110  N   UNK N   1      22.901  12.598   1.902  0.00  0.00    -0.353 N 
ATOM    111  HN  UNK N   1      23.810  12.980   2.165  1.00  0.00     0.166 HD
HETATM  112  O   UNK N   1      22.892   6.807   2.595  0.00  0.00    -0.267 OA
BRANCH 103 113
HETATM  113  C   UNK N   1      19.098  10.882   0.796  0.00  0.00     0.036 C 
HETATM  114  C   UNK N   1      18.128  10.872   1.964  0.00  0.00     0.010 C 
ENDBRANCH 103 113
BRANCH 107 115
HETATM  115  O   UNK N   1      18.817  15.974   0.374  0.00  0.00    -0.361 OA
HETATM  116  H   UNK N   1      18.474  15.934  -0.497  0.00  0.00     0.217 HD
ENDBRANCH 107 115
BRANCH  89 117
HETATM  117  C   UNK N   1      27.866   9.515   2.444  0.00  0.00     0.050 C 
HETATM  118  C   UNK N   1      27.925   8.397   1.407  0.00  0.00     0.009 C 
ENDBRANCH  89 117
ENDBRANCH  88  89
ENDBRANCH  86  88
ENDBRANCH  85  86
ENDBRANCH  84  85
ENDBRANCH  81  84
ENDBRANCH  75  78
ENDBRANCH  73  74
BRANCH  73 119
HETATM  119  C   UNK N   1      21.290  17.982   3.815  0.00  0.00     0.036 C 
BRANCH 119 120
HETATM  120  C   UNK N   1      21.126  19.186   2.893  0.00  0.00     0.021 C 
BRANCH 120 121
HETATM  121  C   UNK N   1      19.678  19.623   2.819  0.00  0.00     0.111 C 
BRANCH 121 122
HETATM  122  N   UNK N   1      18.873  18.567   2.232  0.00  0.00    -0.430 N 
HETATM  123  H   UNK N   1      18.747  18.410   1.232  0.00  0.00     0.149 HD
HETATM  124  H   UNK N   1      18.394  17.932   2.871  0.00  0.00     0.149 HD
ENDBRANCH 121 122
ENDBRANCH 120 121
ENDBRANCH 119 120
ENDBRANCH  73 119
ENDBRANCH  70  73
ENDBRANCH  68  69
ENDBRANCH  67  68
ENDBRANCH  66  67
ENDBRANCH   1  66
TORSDOF 57
ENDMDL
MODEL 4
REMARK VINA RESULT:      -6.5      2.304      4.486
REMARK WARNING: 32 MAX_TORS EXCEEDED!!!
REMARK  57 active torsions:
REMARK  status: ('A' for Active; 'I' for Inactive)
REMARK    1  A    between atoms: C_2  and  C_3 
REMARK    2  A    between atoms: C_6  and  O_114 
REMARK    3  A    between atoms: C_26  and  C_27 
REMARK    4  A    between atoms: C_26  and  O_29 
REMARK    5  A    between atoms: O_29  and  C_30 
REMARK    6  A    between atoms: C_30  and  O_32 
REMARK    7  A    between atoms: O_32  and  C_33 
REMARK    8  A    between atoms: C_33  and  C_34 
REMARK    9  A    between atoms: C_37  and  N_40 
REMARK       I    between atoms: N_40  and  C_41 
REMARK   10  A    between atoms: C_41  and  C_43 
REMARK   11  A    between atoms: C_43  and  C_44 
REMARK   12  A    between atoms: C_43  and  N_48 
REMARK   13  A    between atoms: C_44  and  C_45 
REMARK   14  A    between atoms: C_45  and  C_46 
REMARK   15  A    between atoms: C_46  and  N_47 
REMARK       I    between atoms: N_48  and  C_49 
REMARK   16  A    between atoms: C_49  and  C_51 
REMARK   17  A    between atoms: C_51  and  O_52 
REMARK   18  A    between atoms: O_52  and  C_53 
REMARK   19  A    between atoms: C_53  and  C_54 
REMARK       I    between atoms: C_54  and  N_56 
REMARK   20  A    between atoms: N_56  and  C_57 
REMARK   21  A    between atoms: C_57  and  C_58 
REMARK   22  A    between atoms: C_58  and  O_59 
REMARK   23  A    between atoms: O_59  and  C_60 
REMARK   24  A    between atoms: C_60  and  C_61 
REMARK   25  A    between atoms: C_61  and  O_62 
REMARK   26  A    between atoms: O_62  and  C_63 
REMARK   27  A    between atoms: C_63  and  C_64 
REMARK   28  A    between atoms: C_64  and  O_65 
REMARK   29  A    between atoms: O_65  and  C_66 
REMARK   30  A    between atoms: C_66  and  C_67 
REMARK   31  A    between atoms: C_67  and  O_68 
REMARK   32  A    between atoms: O_68  and  C_69 
REMARK   33  A    between atoms: C_69  and  C_70 
REMARK   34  A    between atoms: C_70  and  O_71 
REMARK   35  A    between atoms: O_71  and  C_72 
REMARK   36  A    between atoms: C_72  and  C_73 
REMARK   37  A    between atoms: C_73  and  O_74 
REMARK   38  A    between atoms: O_74  and  C_75 
REMARK   39  A    between atoms: C_75  and  C_76 
REMARK   40  A    between atoms: C_76  and  O_77 
REMARK   41  A    between atoms: O_77  and  C_78 
REMARK   42  A    between atoms: C_78  and  C_79 
REMARK   43  A    between atoms: C_79  and  O_80 
REMARK   44  A    between atoms: O_80  and  C_81 
REMARK   45  A    between atoms: C_81  and  C_82 
REMARK   46  A    between atoms: C_82  and  N_83 
REMARK   47  A    between atoms: C_85  and  C_89 
REMARK   48  A    between atoms: C_89  and  N_90 
REMARK       I    between atoms: N_90  and  C_91 
REMARK   49  A    between atoms: C_91  and  C_93 
REMARK   50  A    between atoms: C_96  and  C_99 
REMARK   51  A    between atoms: C_99  and  N_100 
REMARK   52  A    between atoms: C_104  and  S_107 
REMARK   53  A    between atoms: S_107  and  C_108 
REMARK   54  A    between atoms: C_108  and  C_109 
REMARK   55  A    between atoms: C_109  and  C_110 
REMARK   56  A    between atoms: C_109  and  N_113 
REMARK   57  A    between atoms: C_110  and  O_112 
ROOT
HETATM    1  C   UNK N   1      24.405  20.079   3.182  0.00  0.00     0.241 C 
HETATM    2  O   UNK N   1      23.905  20.939   2.473  0.00  0.00    -0.271 OA
HETATM    3  N   UNK N   1      25.750  20.083   3.376  0.00  0.00    -0.357 N 
HETATM    4  H   UNK N   1      26.271  20.810   2.966  0.00  0.00     0.162 HD
ENDROOT
BRANCH   3   5
HETATM    5  C   UNK N   1      26.471  19.088   4.149  0.00  0.00     0.148 C 
BRANCH   5   6
HETATM    6  C   UNK N   1      27.743  19.620   4.816  0.00  0.00     0.187 C 
BRANCH   6   7
HETATM    7  O   UNK N   1      28.216  18.751   5.803  0.00  0.00    -0.387 OA
BRANCH   7   8
HETATM    8  C   UNK N   1      27.868  19.354   7.016  0.00  0.00     0.193 C 
BRANCH   8   9
HETATM    9  C   UNK N   1      28.612  18.675   8.161  0.00  0.00     0.193 C 
BRANCH   9  10
HETATM   10  O   UNK N   1      29.877  18.245   7.765  0.00  0.00    -0.387 OA
BRANCH  10  11
HETATM   11  C   UNK N   1      30.678  18.248   8.912  0.00  0.00     0.193 C 
BRANCH  11  12
HETATM   12  C   UNK N   1      31.894  17.371   8.651  0.00  0.00     0.193 C 
BRANCH  12  13
HETATM   13  O   UNK N   1      32.688  17.912   7.627  0.00  0.00    -0.387 OA
BRANCH  13  14
HETATM   14  C   UNK N   1      33.957  18.146   8.180  0.00  0.00     0.193 C 
BRANCH  14  15
HETATM   15  C   UNK N   1      34.343  17.050   9.151  0.00  0.00     0.193 C 
BRANCH  15  16
HETATM   16  O   UNK N   1      35.337  17.476  10.044  0.00  0.00    -0.387 OA
BRANCH  16  17
HETATM   17  C   UNK N   1      35.635  16.383  10.870  0.00  0.00     0.193 C 
BRANCH  17  18
HETATM   18  C   UNK N   1      34.516  15.362  10.852  0.00  0.00     0.193 C 
BRANCH  18  19
HETATM   19  O   UNK N   1      34.577  14.556  11.997  0.00  0.00    -0.387 OA
BRANCH  19  20
HETATM   20  C   UNK N   1      35.939  14.415  12.292  0.00  0.00     0.193 C 
BRANCH  20  21
HETATM   21  C   UNK N   1      36.124  14.077  13.762  0.00  0.00     0.193 C 
BRANCH  21  22
HETATM   22  O   UNK N   1      36.312  12.697  13.927  0.00  0.00    -0.387 OA
BRANCH  22  23
HETATM   23  C   UNK N   1      35.213  12.255  14.679  0.00  0.00     0.193 C 
BRANCH  23  24
HETATM   24  C   UNK N   1      34.363  11.268  13.907  0.00  0.00     0.193 C 
BRANCH  24  25
HETATM   25  O   UNK N   1      35.090  10.659  12.873  0.00  0.00    -0.387 OA
BRANCH  25  26
HETATM   26  C   UNK N   1      34.459  11.049  11.685  0.00  0.00     0.193 C 
BRANCH  26  27
HETATM   27  C   UNK N   1      33.409  10.029  11.257  0.00  0.00     0.193 C 
BRANCH  27  28
HETATM   28  O   UNK N   1      33.877   8.709  11.394  0.00  0.00    -0.387 OA
BRANCH  28  29
HETATM   29  C   UNK N   1      33.392   7.972  10.298  0.00  0.00     0.189 C 
BRANCH  29  30
HETATM   30  C   UNK N   1      33.715   8.642   8.958  0.00  0.00     0.172 C 
BRANCH  30  31
HETATM   31  N   UNK N   1      32.558   8.570   8.081  0.00  0.00    -0.283 N 
HETATM   32  C   UNK N   1      32.506   7.950   6.890  0.00  0.00     0.135 A 
HETATM   33  C   UNK N   1      31.309   8.326   6.333  0.00  0.00     0.058 A 
HETATM   34  N   UNK N   1      30.664   9.136   7.197  0.00  0.00    -0.285 N 
HETATM   35  N   UNK N   1      31.451   9.271   8.254  0.00  0.00    -0.020 NA
ATOM     36  HN  UNK N   1      29.748   9.563   7.062  1.00  0.00     0.184 HD
BRANCH  33  37
HETATM   37  C   UNK N   1      30.863   8.020   4.943  0.00  0.00     0.182 C 
BRANCH  37  38
HETATM   38  N   UNK N   1      31.181   9.135   4.102  0.00  0.00    -0.355 N 
HETATM   39  C   UNK N   1      32.247   9.127   3.263  0.00  0.00     0.222 C 
HETATM   40  O   UNK N   1      33.049   8.204   3.283  0.00  0.00    -0.273 OA
HETATM   41  H   UNK N   1      30.607   9.934   4.134  0.00  0.00     0.162 HD
BRANCH  39  42
HETATM   42  C   UNK N   1      32.370  10.197   2.221  0.00  0.00     0.078 C 
HETATM   43  C   UNK N   1      33.664  10.034   1.389  0.00  0.00     0.014 C 
HETATM   44  C   UNK N   1      34.427  11.362   1.226  0.00  0.00     0.007 C 
HETATM   45  C   UNK N   1      34.795  11.912   2.612  0.00  0.00     0.004 C 
HETATM   46  C   UNK N   1      33.659  11.781   3.633  0.00  0.00     0.007 C 
HETATM   47  C   UNK N   1      32.317  11.548   2.944  0.00  0.00     0.014 C 
BRANCH  45  48
HETATM   48  C   UNK N   1      35.467  13.299   2.591  0.00  0.00     0.139 C 
BRANCH  48  49
HETATM   49  N   UNK N   1      36.762  13.345   3.259  0.00  0.00    -0.287 N 
HETATM   50  C   UNK N   1      37.929  13.075   2.673  0.00  0.00     0.228 A 
HETATM   51  O   UNK N   1      38.032  12.761   1.498  0.00  0.00    -0.273 OA
HETATM   52  C   UNK N   1      39.092  13.168   3.619  0.00  0.00     0.128 A 
HETATM   53  C   UNK N   1      38.398  13.602   4.942  0.00  0.00     0.148 A 
HETATM   54  C   UNK N   1      36.957  13.605   4.557  0.00  0.00     0.240 A 
HETATM   55  O   UNK N   1      36.051  13.820   5.347  0.00  0.00    -0.272 OA
BRANCH  53  56
HETATM   56  S   UNK N   1      38.692  12.407   6.276  0.00  0.00    -0.152 SA
BRANCH  56  57
HETATM   57  C   UNK N   1      38.998  13.737   7.494  0.00  0.00     0.110 C 
BRANCH  57  58
HETATM   58  C   UNK N   1      38.336  13.433   8.829  0.00  0.00     0.182 C 
BRANCH  58  59
HETATM   59  C   UNK N   1      36.859  13.265   8.669  0.00  0.00     0.163 C 
HETATM   60  O   UNK N   1      36.305  12.253   9.070  0.00  0.00    -0.648 OA
BRANCH  59  61
HETATM   61  O   UNK N   1      36.135  14.244   8.099  0.00  0.00    -0.775 OA
HETATM   62  H   UNK N   1      35.382  14.379   7.558  0.00  0.00     0.167 HD
ENDBRANCH  59  61
ENDBRANCH  58  59
BRANCH  58  63
HETATM   63  N   UNK N   1      38.614  14.505   9.771  0.00  0.00    -0.417 N 
HETATM   64  H   UNK N   1      38.596  15.477   9.461  0.00  0.00     0.150 HD
HETATM   65  H   UNK N   1      38.827  14.286  10.743  0.00  0.00     0.150 HD
ENDBRANCH  58  63
ENDBRANCH  57  58
ENDBRANCH  56  57
ENDBRANCH  53  56
ENDBRANCH  48  49
ENDBRANCH  45  48
ENDBRANCH  39  42
ENDBRANCH  37  38
ENDBRANCH  33  37
ENDBRANCH  30  31
ENDBRANCH  29  30
ENDBRANCH  28  29
ENDBRANCH  27  28
ENDBRANCH  26  27
ENDBRANCH  25  26
ENDBRANCH  24  25
ENDBRANCH  23  24
ENDBRANCH  22  23
ENDBRANCH  21  22
ENDBRANCH  20  21
ENDBRANCH  19  20
ENDBRANCH  18  19
ENDBRANCH  17  18
ENDBRANCH  16  17
ENDBRANCH  15  16
ENDBRANCH  14  15
ENDBRANCH  13  14
ENDBRANCH  12  13
ENDBRANCH  11  12
ENDBRANCH  10  11
ENDBRANCH   9  10
ENDBRANCH   8   9
ENDBRANCH   7   8
ENDBRANCH   6   7
ENDBRANCH   5   6
ENDBRANCH   3   5
BRANCH   1  66
HETATM   66  C   UNK N   1      23.521  19.072   3.873  0.00  0.00     0.271 C 
BRANCH  66  67
HETATM   67  O   UNK N   1      22.202  19.153   3.411  0.00  0.00    -0.373 OA
BRANCH  67  68
HETATM   68  C   UNK N   1      21.586  17.996   3.884  0.00  0.00     0.271 C 
BRANCH  68  69
HETATM   69  C   UNK N   1      21.084  17.198   2.734  0.00  0.00     0.242 C 
HETATM   70  N   UNK N   1      21.387  15.883   2.688  0.00  0.00    -0.346 N 
HETATM   71  H   UNK N   1      21.922  15.515   3.429  0.00  0.00     0.163 HD
HETATM   72  O   UNK N   1      20.464  17.740   1.832  0.00  0.00    -0.271 OA
BRANCH  70  73
HETATM   73  C   UNK N   1      20.989  14.974   1.644  0.00  0.00     0.177 C 
BRANCH  73  74
HETATM   74  C   UNK N   1      21.958  13.867   1.461  0.00  0.00     0.245 C 
HETATM   75  N   UNK N   1      22.960  13.605   2.357  0.00  0.00    -0.325 N 
HETATM   76  H   UNK N   1      23.100  14.161   3.158  0.00  0.00     0.169 HD
HETATM   77  O   UNK N   1      21.817  13.163   0.468  0.00  0.00    -0.271 OA
BRANCH  75  78
HETATM   78  C   UNK N   1      23.780  12.498   2.066  0.00  0.00     0.034 A 
HETATM   79  C   UNK N   1      24.858  12.743   1.207  0.00  0.00     0.030 A 
HETATM   80  C   UNK N   1      26.085  12.127   1.427  0.00  0.00     0.011 A 
HETATM   81  C   UNK N   1      26.252  11.285   2.524  0.00  0.00    -0.034 A 
HETATM   82  C   UNK N   1      25.145  10.944   3.315  0.00  0.00     0.011 A 
HETATM   83  C   UNK N   1      23.917  11.549   3.087  0.00  0.00     0.030 A 
BRANCH  81  84
HETATM   84  C   UNK N   1      27.648  10.924   2.938  0.00  0.00     0.219 C 
BRANCH  84  85
HETATM   85  O   UNK N   1      28.401  12.035   3.272  0.00  0.00    -0.293 OA
BRANCH  85  86
HETATM   86  C   UNK N   1      29.007  12.093   4.473  0.00  0.00     0.408 C 
HETATM   87  O   UNK N   1      29.202  11.072   5.116  0.00  0.00    -0.229 OA
BRANCH  86  88
HETATM   88  O   UNK N   1      29.418  13.302   4.923  0.00  0.00    -0.271 OA
BRANCH  88  89
HETATM   89  C   UNK N   1      29.015  14.560   4.535  0.00  0.00     0.188 C 
HETATM   90  C   UNK N   1      29.444  14.817   3.102  0.00  0.00     0.299 C 
HETATM   91  O   UNK N   1      28.582  15.287   2.169  0.00  0.00    -0.314 OA
HETATM   92  O   UNK N   1      30.602  14.603   2.777  0.00  0.00    -0.261 OA
HETATM   93  C   UNK N   1      27.262  15.633   2.380  0.00  0.00     0.224 C 
HETATM   94  C   UNK N   1      26.700  15.225   3.713  0.00  0.00     0.044 A 
HETATM   95  C   UNK N   1      27.526  14.704   4.733  0.00  0.00     0.003 A 
HETATM   96  C   UNK N   1      25.317  15.359   3.948  0.00  0.00     0.257 A 
HETATM   97  C   UNK N   1      26.950  14.278   5.947  0.00  0.00     0.043 A 
HETATM   98  C   UNK N   1      25.574  14.389   6.101  0.00  0.00     0.065 A 
HETATM   99  N   UNK N   1      24.800  14.933   5.144  0.00  0.00    -0.307 N 
HETATM  100  C   UNK N   1      24.758  13.957   7.191  0.00  0.00     0.068 A 
HETATM  101  C   UNK N   1      23.383  14.957   5.544  0.00  0.00     0.174 A 
HETATM  102  C   UNK N   1      23.460  14.277   6.892  0.00  0.00    -0.004 A 
HETATM  103  C   UNK N   1      22.429  13.955   7.779  0.00  0.00    -0.036 A 
HETATM  104  C   UNK N   1      22.777  13.278   8.971  0.00  0.00     0.000 A 
HETATM  105  C   UNK N   1      21.802  12.912   9.909  0.00  0.00     0.050 A 
HETATM  106  C   UNK N   1      24.145  12.952   9.221  0.00  0.00     0.043 A 
HETATM  107  C   UNK N   1      22.165  12.233  11.075  0.00  0.00     0.066 A 
HETATM  108  C   UNK N   1      23.505  11.910  11.312  0.00  0.00     0.039 A 
HETATM  109  C   UNK N   1      24.492  12.269  10.389  0.00  0.00     0.033 A 
HETATM  110  N   UNK N   1      25.113  13.303   8.324  0.00  0.00    -0.353 N 
ATOM    111  HN  UNK N   1      26.092  13.077   8.505  1.00  0.00     0.166 HD
HETATM  112  O   UNK N   1      24.583  15.827   3.093  0.00  0.00    -0.267 OA
BRANCH 103 113
HETATM  113  C   UNK N   1      21.006  14.321   7.473  0.00  0.00     0.036 C 
HETATM  114  C   UNK N   1      20.424  13.420   6.399  0.00  0.00     0.010 C 
ENDBRANCH 103 113
BRANCH 107 115
HETATM  115  O   UNK N   1      21.225  11.889  11.970  0.00  0.00    -0.361 OA
HETATM  116  H   UNK N   1      21.466  11.694  12.854  0.00  0.00     0.217 HD
ENDBRANCH 107 115
BRANCH  89 117
HETATM  117  C   UNK N   1      29.720  15.556   5.467  0.00  0.00     0.050 C 
HETATM  118  C   UNK N   1      30.854  14.932   6.274  0.00  0.00     0.009 C 
ENDBRANCH  89 117
ENDBRANCH  88  89
ENDBRANCH  86  88
ENDBRANCH  85  86
ENDBRANCH  84  85
ENDBRANCH  81  84
ENDBRANCH  75  78
ENDBRANCH  73  74
BRANCH  73 119
HETATM  119  C   UNK N   1      19.545  14.515   1.725  0.00  0.00     0.036 C 
BRANCH 119 120
HETATM  120  C   UNK N   1      18.862  14.857   0.405  0.00  0.00     0.021 C 
BRANCH 120 121
HETATM  121  C   UNK N   1      17.846  13.801   0.025  0.00  0.00     0.111 C 
BRANCH 121 122
HETATM  122  N   UNK N   1      18.070  12.597   0.805  0.00  0.00    -0.430 N 
HETATM  123  H   UNK N   1      17.441  12.234   1.521  0.00  0.00     0.149 HD
HETATM  124  H   UNK N   1      18.926  12.073   0.622  0.00  0.00     0.149 HD
ENDBRANCH 121 122
ENDBRANCH 120 121
ENDBRANCH 119 120
ENDBRANCH  73 119
ENDBRANCH  70  73
ENDBRANCH  68  69
ENDBRANCH  67  68
ENDBRANCH  66  67
ENDBRANCH   1  66
TORSDOF 57
ENDMDL
MODEL 5
REMARK VINA RESULT:      -6.5      2.883     12.387
REMARK WARNING: 32 MAX_TORS EXCEEDED!!!
REMARK  57 active torsions:
REMARK  status: ('A' for Active; 'I' for Inactive)
REMARK    1  A    between atoms: C_2  and  C_3 
REMARK    2  A    between atoms: C_6  and  O_114 
REMARK    3  A    between atoms: C_26  and  C_27 
REMARK    4  A    between atoms: C_26  and  O_29 
REMARK    5  A    between atoms: O_29  and  C_30 
REMARK    6  A    between atoms: C_30  and  O_32 
REMARK    7  A    between atoms: O_32  and  C_33 
REMARK    8  A    between atoms: C_33  and  C_34 
REMARK    9  A    between atoms: C_37  and  N_40 
REMARK       I    between atoms: N_40  and  C_41 
REMARK   10  A    between atoms: C_41  and  C_43 
REMARK   11  A    between atoms: C_43  and  C_44 
REMARK   12  A    between atoms: C_43  and  N_48 
REMARK   13  A    between atoms: C_44  and  C_45 
REMARK   14  A    between atoms: C_45  and  C_46 
REMARK   15  A    between atoms: C_46  and  N_47 
REMARK       I    between atoms: N_48  and  C_49 
REMARK   16  A    between atoms: C_49  and  C_51 
REMARK   17  A    between atoms: C_51  and  O_52 
REMARK   18  A    between atoms: O_52  and  C_53 
REMARK   19  A    between atoms: C_53  and  C_54 
REMARK       I    between atoms: C_54  and  N_56 
REMARK   20  A    between atoms: N_56  and  C_57 
REMARK   21  A    between atoms: C_57  and  C_58 
REMARK   22  A    between atoms: C_58  and  O_59 
REMARK   23  A    between atoms: O_59  and  C_60 
REMARK   24  A    between atoms: C_60  and  C_61 
REMARK   25  A    between atoms: C_61  and  O_62 
REMARK   26  A    between atoms: O_62  and  C_63 
REMARK   27  A    between atoms: C_63  and  C_64 
REMARK   28  A    between atoms: C_64  and  O_65 
REMARK   29  A    between atoms: O_65  and  C_66 
REMARK   30  A    between atoms: C_66  and  C_67 
REMARK   31  A    between atoms: C_67  and  O_68 
REMARK   32  A    between atoms: O_68  and  C_69 
REMARK   33  A    between atoms: C_69  and  C_70 
REMARK   34  A    between atoms: C_70  and  O_71 
REMARK   35  A    between atoms: O_71  and  C_72 
REMARK   36  A    between atoms: C_72  and  C_73 
REMARK   37  A    between atoms: C_73  and  O_74 
REMARK   38  A    between atoms: O_74  and  C_75 
REMARK   39  A    between atoms: C_75  and  C_76 
REMARK   40  A    between atoms: C_76  and  O_77 
REMARK   41  A    between atoms: O_77  and  C_78 
REMARK   42  A    between atoms: C_78  and  C_79 
REMARK   43  A    between atoms: C_79  and  O_80 
REMARK   44  A    between atoms: O_80  and  C_81 
REMARK   45  A    between atoms: C_81  and  C_82 
REMARK   46  A    between atoms: C_82  and  N_83 
REMARK   47  A    between atoms: C_85  and  C_89 
REMARK   48  A    between atoms: C_89  and  N_90 
REMARK       I    between atoms: N_90  and  C_91 
REMARK   49  A    between atoms: C_91  and  C_93 
REMARK   50  A    between atoms: C_96  and  C_99 
REMARK   51  A    between atoms: C_99  and  N_100 
REMARK   52  A    between atoms: C_104  and  S_107 
REMARK   53  A    between atoms: S_107  and  C_108 
REMARK   54  A    between atoms: C_108  and  C_109 
REMARK   55  A    between atoms: C_109  and  C_110 
REMARK   56  A    between atoms: C_109  and  N_113 
REMARK   57  A    between atoms: C_110  and  O_112 
ROOT
HETATM    1  C   UNK N   1      23.035  11.655   5.406  0.00  0.00     0.241 C 
HETATM    2  O   UNK N   1      22.246  11.908   4.508  0.00  0.00    -0.271 OA
HETATM    3  N   UNK N   1      23.780  12.662   5.933  0.00  0.00    -0.357 N 
HETATM    4  H   UNK N   1      23.626  13.572   5.594  0.00  0.00     0.162 HD
ENDROOT
BRANCH   3   5
HETATM    5  C   UNK N   1      24.788  12.484   6.963  0.00  0.00     0.148 C 
BRANCH   5   6
HETATM    6  C   UNK N   1      24.347  12.954   8.353  0.00  0.00     0.187 C 
BRANCH   6   7
HETATM    7  O   UNK N   1      24.550  11.970   9.324  0.00  0.00    -0.387 OA
BRANCH   7   8
HETATM    8  C   UNK N   1      23.628  12.260  10.334  0.00  0.00     0.193 C 
BRANCH   8   9
HETATM    9  C   UNK N   1      22.257  12.523   9.721  0.00  0.00     0.193 C 
BRANCH   9  10
HETATM   10  O   UNK N   1      21.551  13.484  10.442  0.00  0.00    -0.387 OA
BRANCH  10  11
HETATM   11  C   UNK N   1      21.145  14.456   9.521  0.00  0.00     0.193 C 
BRANCH  11  12
HETATM   12  C   UNK N   1      19.633  14.608   9.618  0.00  0.00     0.193 C 
BRANCH  12  13
HETATM   13  O   UNK N   1      19.189  15.683   8.834  0.00  0.00    -0.387 OA
BRANCH  13  14
HETATM   14  C   UNK N   1      20.301  16.510   8.613  0.00  0.00     0.193 C 
BRANCH  14  15
HETATM   15  C   UNK N   1      19.897  17.968   8.551  0.00  0.00     0.193 C 
BRANCH  15  16
HETATM   16  O   UNK N   1      20.642  18.672   7.593  0.00  0.00    -0.387 OA
BRANCH  16  17
HETATM   17  C   UNK N   1      21.098  17.728   6.662  0.00  0.00     0.193 C 
BRANCH  17  18
HETATM   18  C   UNK N   1      21.777  18.403   5.487  0.00  0.00     0.193 C 
BRANCH  18  19
HETATM   19  O   UNK N   1      21.001  19.477   5.030  0.00  0.00    -0.387 OA
BRANCH  19  20
HETATM   20  C   UNK N   1      21.193  19.523   3.643  0.00  0.00     0.193 C 
BRANCH  20  21
HETATM   21  C   UNK N   1      19.866  19.752   2.939  0.00  0.00     0.193 C 
BRANCH  21  22
HETATM   22  O   UNK N   1      19.340  18.537   2.479  0.00  0.00    -0.387 OA
BRANCH  22  23
HETATM   23  C   UNK N   1      20.407  17.880   1.847  0.00  0.00     0.193 C 
BRANCH  23  24
HETATM   24  C   UNK N   1      19.926  16.920   0.780  0.00  0.00     0.193 C 
BRANCH  24  25
HETATM   25  O   UNK N   1      20.710  15.757   0.743  0.00  0.00    -0.387 OA
BRANCH  25  26
HETATM   26  C   UNK N   1      19.863  14.714   1.141  0.00  0.00     0.193 C 
BRANCH  26  27
HETATM   27  C   UNK N   1      20.034  14.400   2.623  0.00  0.00     0.193 C 
BRANCH  27  28
HETATM   28  O   UNK N   1      18.799  14.152   3.250  0.00  0.00    -0.387 OA
BRANCH  28  29
HETATM   29  C   UNK N   1      18.963  13.026   4.078  0.00  0.00     0.189 C 
BRANCH  29  30
HETATM   30  C   UNK N   1      18.058  11.861   3.662  0.00  0.00     0.172 C 
BRANCH  30  31
HETATM   31  N   UNK N   1      18.557  11.265   2.435  0.00  0.00    -0.283 N 
HETATM   32  C   UNK N   1      19.712  10.592   2.296  0.00  0.00     0.135 A 
HETATM   33  C   UNK N   1      19.871  10.411   0.944  0.00  0.00     0.058 A 
HETATM   34  N   UNK N   1      18.814  10.954   0.307  0.00  0.00    -0.285 N 
HETATM   35  N   UNK N   1      18.029  11.471   1.240  0.00  0.00    -0.020 NA
ATOM     36  HN  UNK N   1      18.650  10.965  -0.699  1.00  0.00     0.184 HD
BRANCH  33  37
HETATM   37  C   UNK N   1      21.082   9.851   0.279  0.00  0.00     0.182 C 
BRANCH  37  38
HETATM   38  N   UNK N   1      22.020  10.913   0.061  0.00  0.00    -0.355 N 
HETATM   39  C   UNK N   1      23.152  11.040   0.798  0.00  0.00     0.222 C 
HETATM   40  O   UNK N   1      23.354  10.313   1.761  0.00  0.00    -0.273 OA
HETATM   41  H   UNK N   1      21.837  11.571  -0.647  0.00  0.00     0.162 HD
BRANCH  39  42
HETATM   42  C   UNK N   1      24.217  11.994   0.350  0.00  0.00     0.078 C 
HETATM   43  C   UNK N   1      25.476  11.901   1.244  0.00  0.00     0.014 C 
HETATM   44  C   UNK N   1      25.995  13.287   1.671  0.00  0.00     0.007 C 
HETATM   45  C   UNK N   1      24.893  14.029   2.443  0.00  0.00     0.004 C 
HETATM   46  C   UNK N   1      23.505  13.872   1.810  0.00  0.00     0.007 C 
HETATM   47  C   UNK N   1      23.605  13.400   0.362  0.00  0.00     0.014 C 
BRANCH  45  48
HETATM   48  C   UNK N   1      25.250  15.477   2.831  0.00  0.00     0.139 C 
BRANCH  48  49
HETATM   49  N   UNK N   1      26.029  15.591   4.058  0.00  0.00    -0.287 N 
HETATM   50  C   UNK N   1      25.509  15.660   5.284  0.00  0.00     0.228 A 
HETATM   51  O   UNK N   1      24.309  15.631   5.506  0.00  0.00    -0.273 OA
HETATM   52  C   UNK N   1      26.555  15.810   6.353  0.00  0.00     0.128 A 
HETATM   53  C   UNK N   1      27.870  15.778   5.523  0.00  0.00     0.148 A 
HETATM   54  C   UNK N   1      27.360  15.700   4.124  0.00  0.00     0.240 A 
HETATM   55  O   UNK N   1      28.086  15.734   3.142  0.00  0.00    -0.272 OA
BRANCH  53  56
HETATM   56  S   UNK N   1      28.845  17.291   5.755  0.00  0.00    -0.152 SA
BRANCH  56  57
HETATM   57  C   UNK N   1      28.722  17.175   7.576  0.00  0.00     0.110 C 
BRANCH  57  58
HETATM   58  C   UNK N   1      28.897  18.535   8.235  0.00  0.00     0.182 C 
BRANCH  58  59
HETATM   59  C   UNK N   1      29.937  18.483   9.307  0.00  0.00     0.163 C 
HETATM   60  O   UNK N   1      29.727  18.987  10.399  0.00  0.00    -0.648 OA
BRANCH  59  61
HETATM   61  O   UNK N   1      31.103  17.856   9.072  0.00  0.00    -0.775 OA
HETATM   62  H   UNK N   1      31.836  17.865   8.487  0.00  0.00     0.167 HD
ENDBRANCH  59  61
ENDBRANCH  58  59
BRANCH  58  63
HETATM   63  N   UNK N   1      27.630  18.977   8.793  0.00  0.00    -0.417 N 
HETATM   64  H   UNK N   1      26.803  19.043   8.200  0.00  0.00     0.150 HD
HETATM   65  H   UNK N   1      27.567  19.221   9.781  0.00  0.00     0.150 HD
ENDBRANCH  58  63
ENDBRANCH  57  58
ENDBRANCH  56  57
ENDBRANCH  53  56
ENDBRANCH  48  49
ENDBRANCH  45  48
ENDBRANCH  39  42
ENDBRANCH  37  38
ENDBRANCH  33  37
ENDBRANCH  30  31
ENDBRANCH  29  30
ENDBRANCH  28  29
ENDBRANCH  27  28
ENDBRANCH  26  27
ENDBRANCH  25  26
ENDBRANCH  24  25
ENDBRANCH  23  24
ENDBRANCH  22  23
ENDBRANCH  21  22
ENDBRANCH  20  21
ENDBRANCH  19  20
ENDBRANCH  18  19
ENDBRANCH  17  18
ENDBRANCH  16  17
ENDBRANCH  15  16
ENDBRANCH  14  15
ENDBRANCH  13  14
ENDBRANCH  12  13
ENDBRANCH  11  12
ENDBRANCH  10  11
ENDBRANCH   9  10
ENDBRANCH   8   9
ENDBRANCH   7   8
ENDBRANCH   6   7
ENDBRANCH   5   6
ENDBRANCH   3   5
BRANCH   1  66
HETATM   66  C   UNK N   1      23.121  10.252   5.952  0.00  0.00     0.271 C 
BRANCH  66  67
HETATM   67  O   UNK N   1      23.704   9.380   5.025  0.00  0.00    -0.373 OA
BRANCH  67  68
HETATM   68  C   UNK N   1      24.871   8.932   5.639  0.00  0.00     0.271 C 
BRANCH  68  69
HETATM   69  C   UNK N   1      25.868   8.567   4.598  0.00  0.00     0.242 C 
HETATM   70  N   UNK N   1      25.555   8.795   3.305  0.00  0.00    -0.346 N 
HETATM   71  H   UNK N   1      24.678   9.202   3.116  0.00  0.00     0.163 HD
HETATM   72  O   UNK N   1      26.916   8.023   4.914  0.00  0.00    -0.271 OA
BRANCH  70  73
HETATM   73  C   UNK N   1      26.401   8.492   2.180  0.00  0.00     0.177 C 
BRANCH  73  74
HETATM   74  C   UNK N   1      27.713   9.177   2.260  0.00  0.00     0.245 C 
HETATM   75  N   UNK N   1      27.886  10.370   2.911  0.00  0.00    -0.325 N 
HETATM   76  H   UNK N   1      27.134  10.844   3.338  0.00  0.00     0.169 HD
HETATM   77  O   UNK N   1      28.667   8.619   1.731  0.00  0.00    -0.271 OA
BRANCH  75  78
HETATM   78  C   UNK N   1      29.197  10.881   2.935  0.00  0.00     0.034 A 
HETATM   79  C   UNK N   1      29.439  11.987   2.111  0.00  0.00     0.030 A 
HETATM   80  C   UNK N   1      30.268  13.017   2.542  0.00  0.00     0.011 A 
HETATM   81  C   UNK N   1      30.839  12.961   3.813  0.00  0.00    -0.034 A 
HETATM   82  C   UNK N   1      30.697  11.803   4.590  0.00  0.00     0.011 A 
HETATM   83  C   UNK N   1      29.879  10.771   4.153  0.00  0.00     0.030 A 
BRANCH  81  84
HETATM   84  C   UNK N   1      31.424  14.219   4.384  0.00  0.00     0.219 C 
BRANCH  84  85
HETATM   85  O   UNK N   1      31.028  14.437   5.692  0.00  0.00    -0.293 OA
BRANCH  85  86
HETATM   86  C   UNK N   1      31.938  14.816   6.609  0.00  0.00     0.408 C 
HETATM   87  O   UNK N   1      31.576  15.276   7.683  0.00  0.00    -0.229 OA
BRANCH  86  88
HETATM   88  O   UNK N   1      33.248  14.640   6.320  0.00  0.00    -0.271 OA
BRANCH  88  89
HETATM   89  C   UNK N   1      34.312  15.485   6.548  0.00  0.00     0.188 C 
HETATM   90  C   UNK N   1      33.963  16.886   6.083  0.00  0.00     0.299 C 
HETATM   91  O   UNK N   1      34.155  17.972   6.870  0.00  0.00    -0.314 OA
HETATM   92  O   UNK N   1      33.503  17.048   4.963  0.00  0.00    -0.261 OA
HETATM   93  C   UNK N   1      34.716  17.974   8.132  0.00  0.00     0.224 C 
HETATM   94  C   UNK N   1      34.905  16.617   8.750  0.00  0.00     0.044 A 
HETATM   95  C   UNK N   1      34.702  15.434   8.005  0.00  0.00     0.003 A 
HETATM   96  C   UNK N   1      35.287  16.522  10.103  0.00  0.00     0.257 A 
HETATM   97  C   UNK N   1      34.832  14.181   8.638  0.00  0.00     0.043 A 
HETATM   98  C   UNK N   1      35.162  14.153   9.987  0.00  0.00     0.065 A 
HETATM   99  N   UNK N   1      35.403  15.283  10.677  0.00  0.00    -0.307 N 
HETATM  100  C   UNK N   1      35.270  13.026  10.858  0.00  0.00     0.068 A 
HETATM  101  C   UNK N   1      35.748  14.997  12.080  0.00  0.00     0.174 A 
HETATM  102  C   UNK N   1      35.614  13.491  12.100  0.00  0.00    -0.004 A 
HETATM  103  C   UNK N   1      35.774  12.605  13.169  0.00  0.00    -0.036 A 
HETATM  104  C   UNK N   1      35.551  11.231  12.920  0.00  0.00     0.000 A 
HETATM  105  C   UNK N   1      35.684  10.278  13.940  0.00  0.00     0.050 A 
HETATM  106  C   UNK N   1      35.175  10.805  11.609  0.00  0.00     0.043 A 
HETATM  107  C   UNK N   1      35.447   8.926  13.675  0.00  0.00     0.066 A 
HETATM  108  C   UNK N   1      35.072   8.515  12.392  0.00  0.00     0.039 A 
HETATM  109  C   UNK N   1      34.938   9.451  11.362  0.00  0.00     0.033 A 
HETATM  110  N   UNK N   1      35.045  11.715  10.599  0.00  0.00    -0.353 N 
ATOM    111  HN  UNK N   1      34.783  11.411   9.661  1.00  0.00     0.166 HD
HETATM  112  O   UNK N   1      35.490  17.528  10.764  0.00  0.00    -0.267 OA
BRANCH 103 113
HETATM  113  C   UNK N   1      36.174  13.100  14.528  0.00  0.00     0.036 C 
HETATM  114  C   UNK N   1      34.997  13.090  15.487  0.00  0.00     0.010 C 
ENDBRANCH 103 113
BRANCH 107 115
HETATM  115  O   UNK N   1      35.579   8.019  14.657  0.00  0.00    -0.361 OA
HETATM  116  H   UNK N   1      35.671   8.299  15.547  0.00  0.00     0.217 HD
ENDBRANCH 107 115
BRANCH  89 117
HETATM  117  C   UNK N   1      35.487  14.948   5.720  0.00  0.00     0.050 C 
HETATM  118  C   UNK N   1      35.181  13.628   5.018  0.00  0.00     0.009 C 
ENDBRANCH  89 117
ENDBRANCH  88  89
ENDBRANCH  86  88
ENDBRANCH  85  86
ENDBRANCH  84  85
ENDBRANCH  81  84
ENDBRANCH  75  78
ENDBRANCH  73  74
BRANCH  73 119
HETATM  119  C   UNK N   1      26.503   7.015   1.846  0.00  0.00     0.036 C 
BRANCH 119 120
HETATM  120  C   UNK N   1      26.019   6.817   0.413  0.00  0.00     0.021 C 
BRANCH 120 121
HETATM  121  C   UNK N   1      24.652   6.167   0.384  0.00  0.00     0.111 C 
BRANCH 121 122
HETATM  122  N   UNK N   1      23.679   7.089  -0.172  0.00  0.00    -0.430 N 
HETATM  123  H   UNK N   1      22.760   7.286   0.225  0.00  0.00     0.149 HD
HETATM  124  H   UNK N   1      23.934   7.580  -1.029  0.00  0.00     0.149 HD
ENDBRANCH 121 122
ENDBRANCH 120 121
ENDBRANCH 119 120
ENDBRANCH  73 119
ENDBRANCH  70  73
ENDBRANCH  68  69
ENDBRANCH  67  68
ENDBRANCH  66  67
ENDBRANCH   1  66
TORSDOF 57
ENDMDL
MODEL 6
REMARK VINA RESULT:      -6.3      2.671     12.307
REMARK WARNING: 32 MAX_TORS EXCEEDED!!!
REMARK  57 active torsions:
REMARK  status: ('A' for Active; 'I' for Inactive)
REMARK    1  A    between atoms: C_2  and  C_3 
REMARK    2  A    between atoms: C_6  and  O_114 
REMARK    3  A    between atoms: C_26  and  C_27 
REMARK    4  A    between atoms: C_26  and  O_29 
REMARK    5  A    between atoms: O_29  and  C_30 
REMARK    6  A    between atoms: C_30  and  O_32 
REMARK    7  A    between atoms: O_32  and  C_33 
REMARK    8  A    between atoms: C_33  and  C_34 
REMARK    9  A    between atoms: C_37  and  N_40 
REMARK       I    between atoms: N_40  and  C_41 
REMARK   10  A    between atoms: C_41  and  C_43 
REMARK   11  A    between atoms: C_43  and  C_44 
REMARK   12  A    between atoms: C_43  and  N_48 
REMARK   13  A    between atoms: C_44  and  C_45 
REMARK   14  A    between atoms: C_45  and  C_46 
REMARK   15  A    between atoms: C_46  and  N_47 
REMARK       I    between atoms: N_48  and  C_49 
REMARK   16  A    between atoms: C_49  and  C_51 
REMARK   17  A    between atoms: C_51  and  O_52 
REMARK   18  A    between atoms: O_52  and  C_53 
REMARK   19  A    between atoms: C_53  and  C_54 
REMARK       I    between atoms: C_54  and  N_56 
REMARK   20  A    between atoms: N_56  and  C_57 
REMARK   21  A    between atoms: C_57  and  C_58 
REMARK   22  A    between atoms: C_58  and  O_59 
REMARK   23  A    between atoms: O_59  and  C_60 
REMARK   24  A    between atoms: C_60  and  C_61 
REMARK   25  A    between atoms: C_61  and  O_62 
REMARK   26  A    between atoms: O_62  and  C_63 
REMARK   27  A    between atoms: C_63  and  C_64 
REMARK   28  A    between atoms: C_64  and  O_65 
REMARK   29  A    between atoms: O_65  and  C_66 
REMARK   30  A    between atoms: C_66  and  C_67 
REMARK   31  A    between atoms: C_67  and  O_68 
REMARK   32  A    between atoms: O_68  and  C_69 
REMARK   33  A    between atoms: C_69  and  C_70 
REMARK   34  A    between atoms: C_70  and  O_71 
REMARK   35  A    between atoms: O_71  and  C_72 
REMARK   36  A    between atoms: C_72  and  C_73 
REMARK   37  A    between atoms: C_73  and  O_74 
REMARK   38  A    between atoms: O_74  and  C_75 
REMARK   39  A    between atoms: C_75  and  C_76 
REMARK   40  A    between atoms: C_76  and  O_77 
REMARK   41  A    between atoms: O_77  and  C_78 
REMARK   42  A    between atoms: C_78  and  C_79 
REMARK   43  A    between atoms: C_79  and  O_80 
REMARK   44  A    between atoms: O_80  and  C_81 
REMARK   45  A    between atoms: C_81  and  C_82 
REMARK   46  A    between atoms: C_82  and  N_83 
REMARK   47  A    between atoms: C_85  and  C_89 
REMARK   48  A    between atoms: C_89  and  N_90 
REMARK       I    between atoms: N_90  and  C_91 
REMARK   49  A    between atoms: C_91  and  C_93 
REMARK   50  A    between atoms: C_96  and  C_99 
REMARK   51  A    between atoms: C_99  and  N_100 
REMARK   52  A    between atoms: C_104  and  S_107 
REMARK   53  A    between atoms: S_107  and  C_108 
REMARK   54  A    between atoms: C_108  and  C_109 
REMARK   55  A    between atoms: C_109  and  C_110 
REMARK   56  A    between atoms: C_109  and  N_113 
REMARK   57  A    between atoms: C_110  and  O_112 
ROOT
HETATM    1  C   UNK N   1      29.623  10.854  -0.093  0.00  0.00     0.241 C 
HETATM    2  O   UNK N   1      28.872   9.916  -0.317  0.00  0.00    -0.271 OA
HETATM    3  N   UNK N   1      29.924  11.166   1.195  0.00  0.00    -0.357 N 
HETATM    4  H   UNK N   1      29.552  10.595   1.904  0.00  0.00     0.162 HD
ENDROOT
BRANCH   3   5
HETATM    5  C   UNK N   1      30.757  12.286   1.595  0.00  0.00     0.148 C 
BRANCH   5   6
HETATM    6  C   UNK N   1      29.972  13.473   2.161  0.00  0.00     0.187 C 
BRANCH   6   7
HETATM    7  O   UNK N   1      28.608  13.382   1.871  0.00  0.00    -0.387 OA
BRANCH   7   8
HETATM    8  C   UNK N   1      28.177  14.705   1.726  0.00  0.00     0.193 C 
BRANCH   8   9
HETATM    9  C   UNK N   1      28.848  15.584   2.776  0.00  0.00     0.193 C 
BRANCH   9  10
HETATM   10  O   UNK N   1      27.940  16.467   3.358  0.00  0.00    -0.387 OA
BRANCH  10  11
HETATM   11  C   UNK N   1      26.675  15.882   3.228  0.00  0.00     0.193 C 
BRANCH  11  12
HETATM   12  C   UNK N   1      25.959  15.983   4.567  0.00  0.00     0.193 C 
BRANCH  12  13
HETATM   13  O   UNK N   1      26.540  15.120   5.509  0.00  0.00    -0.387 OA
BRANCH  13  14
HETATM   14  C   UNK N   1      26.646  15.843   6.708  0.00  0.00     0.193 C 
BRANCH  14  15
HETATM   15  C   UNK N   1      27.975  16.563   6.799  0.00  0.00     0.193 C 
BRANCH  15  16
HETATM   16  O   UNK N   1      27.848  17.804   7.439  0.00  0.00    -0.387 OA
BRANCH  16  17
HETATM   17  C   UNK N   1      28.224  18.781   6.507  0.00  0.00     0.193 C 
BRANCH  17  18
HETATM   18  C   UNK N   1      27.497  20.087   6.759  0.00  0.00     0.193 C 
BRANCH  18  19
HETATM   19  O   UNK N   1      27.548  20.899   5.618  0.00  0.00    -0.387 OA
BRANCH  19  20
HETATM   20  C   UNK N   1      27.737  20.026   4.538  0.00  0.00     0.193 C 
BRANCH  20  21
HETATM   21  C   UNK N   1      26.663  20.253   3.487  0.00  0.00     0.193 C 
BRANCH  21  22
HETATM   22  O   UNK N   1      25.737  19.200   3.500  0.00  0.00    -0.387 OA
BRANCH  22  23
HETATM   23  C   UNK N   1      24.501  19.791   3.802  0.00  0.00     0.193 C 
BRANCH  23  24
HETATM   24  C   UNK N   1      24.020  20.696   2.687  0.00  0.00     0.193 C 
BRANCH  24  25
HETATM   25  O   UNK N   1      22.760  21.242   2.974  0.00  0.00    -0.387 OA
BRANCH  25  26
HETATM   26  C   UNK N   1      21.827  20.369   2.401  0.00  0.00     0.193 C 
BRANCH  26  27
HETATM   27  C   UNK N   1      20.444  20.557   3.015  0.00  0.00     0.193 C 
BRANCH  27  28
HETATM   28  O   UNK N   1      19.651  19.403   2.880  0.00  0.00    -0.387 OA
BRANCH  28  29
HETATM   29  C   UNK N   1      20.520  18.297   2.814  0.00  0.00     0.189 C 
BRANCH  29  30
HETATM   30  C   UNK N   1      19.981  17.087   3.584  0.00  0.00     0.172 C 
BRANCH  30  31
HETATM   31  N   UNK N   1      20.476  17.114   4.950  0.00  0.00    -0.283 N 
HETATM   32  C   UNK N   1      19.990  16.403   5.982  0.00  0.00     0.135 A 
HETATM   33  C   UNK N   1      20.610  16.906   7.099  0.00  0.00     0.058 A 
HETATM   34  N   UNK N   1      21.460  17.882   6.720  0.00  0.00    -0.285 N 
HETATM   35  N   UNK N   1      21.356  17.990   5.404  0.00  0.00    -0.020 NA
ATOM     36  HN  UNK N   1      22.066  18.431   7.329  1.00  0.00     0.184 HD
BRANCH  33  37
HETATM   37  C   UNK N   1      20.286  16.546   8.509  0.00  0.00     0.182 C 
BRANCH  37  38
HETATM   38  N   UNK N   1      21.069  15.407   8.886  0.00  0.00    -0.355 N 
HETATM   39  C   UNK N   1      20.511  14.287   9.410  0.00  0.00     0.222 C 
HETATM   40  O   UNK N   1      19.321  14.256   9.691  0.00  0.00    -0.273 OA
HETATM   41  H   UNK N   1      22.045  15.438   8.760  0.00  0.00     0.162 HD
BRANCH  39  42
HETATM   42  C   UNK N   1      21.336  13.041   9.528  0.00  0.00     0.078 C 
HETATM   43  C   UNK N   1      22.746  13.344  10.088  0.00  0.00     0.014 C 
HETATM   44  C   UNK N   1      23.858  12.651   9.278  0.00  0.00     0.007 C 
HETATM   45  C   UNK N   1      23.794  13.123   7.817  0.00  0.00     0.004 C 
HETATM   46  C   UNK N   1      22.363  13.203   7.273  0.00  0.00     0.007 C 
HETATM   47  C   UNK N   1      21.395  12.400   8.137  0.00  0.00     0.014 C 
BRANCH  45  48
HETATM   48  C   UNK N   1      24.789  12.418   6.874  0.00  0.00     0.139 C 
BRANCH  48  49
HETATM   49  N   UNK N   1      24.173  11.456   5.969  0.00  0.00    -0.287 N 
HETATM   50  C   UNK N   1      23.831  10.210   6.302  0.00  0.00     0.228 A 
HETATM   51  O   UNK N   1      24.000   9.745   7.417  0.00  0.00    -0.273 OA
HETATM   52  C   UNK N   1      23.250   9.438   5.152  0.00  0.00     0.128 A 
HETATM   53  C   UNK N   1      23.261  10.498   4.013  0.00  0.00     0.148 A 
HETATM   54  C   UNK N   1      23.917  11.664   4.672  0.00  0.00     0.240 A 
HETATM   55  O   UNK N   1      24.194  12.699   4.086  0.00  0.00    -0.272 OA
BRANCH  53  56
HETATM   56  S   UNK N   1      24.242   9.943   2.590  0.00  0.00    -0.152 SA
BRANCH  56  57
HETATM   57  C   UNK N   1      25.734   9.708   3.622  0.00  0.00     0.110 C 
BRANCH  57  58
HETATM   58  C   UNK N   1      26.910  10.513   3.092  0.00  0.00     0.182 C 
BRANCH  58  59
HETATM   59  C   UNK N   1      27.601  11.245   4.198  0.00  0.00     0.163 C 
HETATM   60  O   UNK N   1      28.454  10.688   4.872  0.00  0.00    -0.648 OA
BRANCH  59  61
HETATM   61  O   UNK N   1      27.293  12.532   4.438  0.00  0.00    -0.775 OA
HETATM   62  H   UNK N   1      27.007  13.102   5.126  0.00  0.00     0.167 HD
ENDBRANCH  59  61
ENDBRANCH  58  59
BRANCH  58  63
HETATM   63  N   UNK N   1      26.448  11.455   2.087  0.00  0.00    -0.417 N 
HETATM   64  H   UNK N   1      25.460  11.494   1.837  0.00  0.00     0.150 HD
HETATM   65  H   UNK N   1      27.112  12.079   1.630  0.00  0.00     0.150 HD
ENDBRANCH  58  63
ENDBRANCH  57  58
ENDBRANCH  56  57
ENDBRANCH  53  56
ENDBRANCH  48  49
ENDBRANCH  45  48
ENDBRANCH  39  42
ENDBRANCH  37  38
ENDBRANCH  33  37
ENDBRANCH  30  31
ENDBRANCH  29  30
ENDBRANCH  28  29
ENDBRANCH  27  28
ENDBRANCH  26  27
ENDBRANCH  25  26
ENDBRANCH  24  25
ENDBRANCH  23  24
ENDBRANCH  22  23
ENDBRANCH  21  22
ENDBRANCH  20  21
ENDBRANCH  19  20
ENDBRANCH  18  19
ENDBRANCH  17  18
ENDBRANCH  16  17
ENDBRANCH  15  16
ENDBRANCH  14  15
ENDBRANCH  13  14
ENDBRANCH  12  13
ENDBRANCH  11  12
ENDBRANCH  10  11
ENDBRANCH   9  10
ENDBRANCH   8   9
ENDBRANCH   7   8
ENDBRANCH   6   7
ENDBRANCH   5   6
ENDBRANCH   3   5
BRANCH   1  66
HETATM   66  C   UNK N   1      30.249  11.602  -1.243  0.00  0.00     0.271 C 
BRANCH  66  67
HETATM   67  O   UNK N   1      31.444  10.998  -1.652  0.00  0.00    -0.373 OA
BRANCH  67  68
HETATM   68  C   UNK N   1      32.274  12.058  -2.014  0.00  0.00     0.271 C 
BRANCH  68  69
HETATM   69  C   UNK N   1      33.469  12.074  -1.130  0.00  0.00     0.242 C 
HETATM   70  N   UNK N   1      34.349  13.089  -1.265  0.00  0.00    -0.346 N 
HETATM   71  H   UNK N   1      34.149  13.776  -1.941  0.00  0.00     0.163 HD
HETATM   72  O   UNK N   1      33.668  11.159  -0.347  0.00  0.00    -0.271 OA
BRANCH  70  73
HETATM   73  C   UNK N   1      35.557  13.249  -0.497  0.00  0.00     0.177 C 
BRANCH  73  74
HETATM   74  C   UNK N   1      35.286  13.687   0.894  0.00  0.00     0.245 C 
HETATM   75  N   UNK N   1      34.018  13.855   1.383  0.00  0.00    -0.325 N 
HETATM   76  H   UNK N   1      33.221  13.716   0.821  0.00  0.00     0.169 HD
HETATM   77  O   UNK N   1      36.257  13.878   1.617  0.00  0.00    -0.271 OA
BRANCH  75  78
HETATM   78  C   UNK N   1      33.918  14.239   2.734  0.00  0.00     0.034 A 
HETATM   79  C   UNK N   1      33.395  15.516   2.971  0.00  0.00     0.030 A 
HETATM   80  C   UNK N   1      32.543  15.738   4.047  0.00  0.00     0.011 A 
HETATM   81  C   UNK N   1      32.186  14.677   4.878  0.00  0.00    -0.034 A 
HETATM   82  C   UNK N   1      32.801  13.428   4.716  0.00  0.00     0.011 A 
HETATM   83  C   UNK N   1      33.660  13.211   3.648  0.00  0.00     0.030 A 
BRANCH  81  84
HETATM   84  C   UNK N   1      31.012  14.858   5.794  0.00  0.00     0.219 C 
BRANCH  84  85
HETATM   85  O   UNK N   1      31.380  14.856   7.128  0.00  0.00    -0.293 OA
BRANCH  85  86
HETATM   86  C   UNK N   1      31.823  15.992   7.699  0.00  0.00     0.408 C 
HETATM   87  O   UNK N   1      31.439  17.079   7.290  0.00  0.00    -0.229 OA
BRANCH  86  88
HETATM   88  O   UNK N   1      32.672  15.892   8.748  0.00  0.00    -0.271 OA
BRANCH  88  89
HETATM   89  C   UNK N   1      34.046  15.805   8.753  0.00  0.00     0.188 C 
HETATM   90  C   UNK N   1      34.638  17.079   9.326  0.00  0.00     0.299 C 
HETATM   91  O   UNK N   1      35.580  17.058  10.299  0.00  0.00    -0.314 OA
HETATM   92  O   UNK N   1      34.265  18.159   8.894  0.00  0.00    -0.261 OA
HETATM   93  C   UNK N   1      36.152  15.930  10.855  0.00  0.00     0.224 C 
HETATM   94  C   UNK N   1      35.486  14.632  10.493  0.00  0.00     0.044 A 
HETATM   95  C   UNK N   1      34.478  14.570   9.506  0.00  0.00     0.003 A 
HETATM   96  C   UNK N   1      35.871  13.451  11.158  0.00  0.00     0.257 A 
HETATM   97  C   UNK N   1      33.838  13.343   9.239  0.00  0.00     0.043 A 
HETATM   98  C   UNK N   1      34.226  12.224   9.963  0.00  0.00     0.065 A 
HETATM   99  N   UNK N   1      35.222  12.280  10.866  0.00  0.00    -0.307 N 
HETATM  100  C   UNK N   1      33.679  10.905   9.932  0.00  0.00     0.068 A 
HETATM  101  C   UNK N   1      35.462  10.967  11.489  0.00  0.00     0.174 A 
HETATM  102  C   UNK N   1      34.386  10.140  10.822  0.00  0.00    -0.004 A 
HETATM  103  C   UNK N   1      34.057   8.795  11.018  0.00  0.00    -0.036 A 
HETATM  104  C   UNK N   1      32.968   8.272  10.282  0.00  0.00     0.000 A 
HETATM  105  C   UNK N   1      32.570   6.936  10.426  0.00  0.00     0.050 A 
HETATM  106  C   UNK N   1      32.255   9.123   9.382  0.00  0.00     0.043 A 
HETATM  107  C   UNK N   1      31.483   6.444   9.699  0.00  0.00     0.066 A 
HETATM  108  C   UNK N   1      30.784   7.281   8.824  0.00  0.00     0.039 A 
HETATM  109  C   UNK N   1      31.168   8.615   8.666  0.00  0.00     0.033 A 
HETATM  110  N   UNK N   1      32.629  10.426   9.222  0.00  0.00    -0.353 N 
ATOM    111  HN  UNK N   1      32.123  11.033   8.575  1.00  0.00     0.166 HD
HETATM  112  O   UNK N   1      36.755  13.470  12.000  0.00  0.00    -0.267 OA
BRANCH 103 113
HETATM  113  C   UNK N   1      34.839   7.941  11.973  0.00  0.00     0.036 C 
HETATM  114  C   UNK N   1      36.007   7.264  11.278  0.00  0.00     0.010 C 
ENDBRANCH 103 113
BRANCH 107 115
HETATM  115  O   UNK N   1      31.110   5.161   9.841  0.00  0.00    -0.361 OA
HETATM  116  H   UNK N   1      31.050   4.603   9.091  0.00  0.00     0.217 HD
ENDBRANCH 107 115
BRANCH  89 117
HETATM  117  C   UNK N   1      34.484  15.650   7.290  0.00  0.00     0.050 C 
HETATM  118  C   UNK N   1      35.781  14.864   7.127  0.00  0.00     0.009 C 
ENDBRANCH  89 117
ENDBRANCH  88  89
ENDBRANCH  86  88
ENDBRANCH  85  86
ENDBRANCH  84  85
ENDBRANCH  81  84
ENDBRANCH  75  78
ENDBRANCH  73  74
BRANCH  73 119
HETATM  119  C   UNK N   1      36.525  12.084  -0.593  0.00  0.00     0.036 C 
BRANCH 119 120
HETATM  120  C   UNK N   1      37.229  12.161  -1.943  0.00  0.00     0.021 C 
BRANCH 120 121
HETATM  121  C   UNK N   1      36.741  11.072  -2.875  0.00  0.00     0.111 C 
BRANCH 121 122
HETATM  122  N   UNK N   1      36.134  10.000  -2.108  0.00  0.00    -0.430 N 
HETATM  123  H   UNK N   1      36.200   9.007  -2.330  0.00  0.00     0.149 HD
HETATM  124  H   UNK N   1      35.599  10.261  -1.280  0.00  0.00     0.149 HD
ENDBRANCH 121 122
ENDBRANCH 120 121
ENDBRANCH 119 120
ENDBRANCH  73 119
ENDBRANCH  70  73
ENDBRANCH  68  69
ENDBRANCH  67  68
ENDBRANCH  66  67
ENDBRANCH   1  66
TORSDOF 57
ENDMDL
MODEL 7
REMARK VINA RESULT:      -6.1      3.099      6.531
REMARK WARNING: 32 MAX_TORS EXCEEDED!!!
REMARK  57 active torsions:
REMARK  status: ('A' for Active; 'I' for Inactive)
REMARK    1  A    between atoms: C_2  and  C_3 
REMARK    2  A    between atoms: C_6  and  O_114 
REMARK    3  A    between atoms: C_26  and  C_27 
REMARK    4  A    between atoms: C_26  and  O_29 
REMARK    5  A    between atoms: O_29  and  C_30 
REMARK    6  A    between atoms: C_30  and  O_32 
REMARK    7  A    between atoms: O_32  and  C_33 
REMARK    8  A    between atoms: C_33  and  C_34 
REMARK    9  A    between atoms: C_37  and  N_40 
REMARK       I    between atoms: N_40  and  C_41 
REMARK   10  A    between atoms: C_41  and  C_43 
REMARK   11  A    between atoms: C_43  and  C_44 
REMARK   12  A    between atoms: C_43  and  N_48 
REMARK   13  A    between atoms: C_44  and  C_45 
REMARK   14  A    between atoms: C_45  and  C_46 
REMARK   15  A    between atoms: C_46  and  N_47 
REMARK       I    between atoms: N_48  and  C_49 
REMARK   16  A    between atoms: C_49  and  C_51 
REMARK   17  A    between atoms: C_51  and  O_52 
REMARK   18  A    between atoms: O_52  and  C_53 
REMARK   19  A    between atoms: C_53  and  C_54 
REMARK       I    between atoms: C_54  and  N_56 
REMARK   20  A    between atoms: N_56  and  C_57 
REMARK   21  A    between atoms: C_57  and  C_58 
REMARK   22  A    between atoms: C_58  and  O_59 
REMARK   23  A    between atoms: O_59  and  C_60 
REMARK   24  A    between atoms: C_60  and  C_61 
REMARK   25  A    between atoms: C_61  and  O_62 
REMARK   26  A    between atoms: O_62  and  C_63 
REMARK   27  A    between atoms: C_63  and  C_64 
REMARK   28  A    between atoms: C_64  and  O_65 
REMARK   29  A    between atoms: O_65  and  C_66 
REMARK   30  A    between atoms: C_66  and  C_67 
REMARK   31  A    between atoms: C_67  and  O_68 
REMARK   32  A    between atoms: O_68  and  C_69 
REMARK   33  A    between atoms: C_69  and  C_70 
REMARK   34  A    between atoms: C_70  and  O_71 
REMARK   35  A    between atoms: O_71  and  C_72 
REMARK   36  A    between atoms: C_72  and  C_73 
REMARK   37  A    between atoms: C_73  and  O_74 
REMARK   38  A    between atoms: O_74  and  C_75 
REMARK   39  A    between atoms: C_75  and  C_76 
REMARK   40  A    between atoms: C_76  and  O_77 
REMARK   41  A    between atoms: O_77  and  C_78 
REMARK   42  A    between atoms: C_78  and  C_79 
REMARK   43  A    between atoms: C_79  and  O_80 
REMARK   44  A    between atoms: O_80  and  C_81 
REMARK   45  A    between atoms: C_81  and  C_82 
REMARK   46  A    between atoms: C_82  and  N_83 
REMARK   47  A    between atoms: C_85  and  C_89 
REMARK   48  A    between atoms: C_89  and  N_90 
REMARK       I    between atoms: N_90  and  C_91 
REMARK   49  A    between atoms: C_91  and  C_93 
REMARK   50  A    between atoms: C_96  and  C_99 
REMARK   51  A    between atoms: C_99  and  N_100 
REMARK   52  A    between atoms: C_104  and  S_107 
REMARK   53  A    between atoms: S_107  and  C_108 
REMARK   54  A    between atoms: C_108  and  C_109 
REMARK   55  A    between atoms: C_109  and  C_110 
REMARK   56  A    between atoms: C_109  and  N_113 
REMARK   57  A    between atoms: C_110  and  O_112 
ROOT
HETATM    1  C   UNK N   1      25.519  18.643   4.105  0.00  0.00     0.241 C 
HETATM    2  O   UNK N   1      24.985  17.575   3.845  0.00  0.00    -0.271 OA
HETATM    3  N   UNK N   1      26.339  18.725   5.185  0.00  0.00    -0.357 N 
HETATM    4  H   UNK N   1      26.503  17.903   5.700  0.00  0.00     0.162 HD
ENDROOT
BRANCH   3   5
HETATM    5  C   UNK N   1      26.989  19.944   5.632  0.00  0.00     0.148 C 
BRANCH   5   6
HETATM    6  C   UNK N   1      27.817  19.775   6.910  0.00  0.00     0.187 C 
BRANCH   6   7
HETATM    7  O   UNK N   1      28.289  18.467   7.055  0.00  0.00    -0.387 OA
BRANCH   7   8
HETATM    8  C   UNK N   1      28.224  18.208   8.428  0.00  0.00     0.193 C 
BRANCH   8   9
HETATM    9  C   UNK N   1      29.524  17.559   8.892  0.00  0.00     0.193 C 
BRANCH   9  10
HETATM   10  O   UNK N   1      30.531  18.506   9.071  0.00  0.00    -0.387 OA
BRANCH  10  11
HETATM   11  C   UNK N   1      31.699  17.953   8.534  0.00  0.00     0.193 C 
BRANCH  11  12
HETATM   12  C   UNK N   1      31.596  16.436   8.620  0.00  0.00     0.193 C 
BRANCH  12  13
HETATM   13  O   UNK N   1      32.818  15.833   8.287  0.00  0.00    -0.387 OA
BRANCH  13  14
HETATM   14  C   UNK N   1      32.727  14.489   8.680  0.00  0.00     0.193 C 
BRANCH  14  15
HETATM   15  C   UNK N   1      33.287  13.567   7.617  0.00  0.00     0.193 C 
BRANCH  15  16
HETATM   16  O   UNK N   1      32.726  12.284   7.697  0.00  0.00    -0.387 OA
BRANCH  16  17
HETATM   17  C   UNK N   1      33.719  11.441   8.217  0.00  0.00     0.193 C 
BRANCH  17  18
HETATM   18  C   UNK N   1      33.276  10.816   9.524  0.00  0.00     0.193 C 
BRANCH  18  19
HETATM   19  O   UNK N   1      31.938  10.407   9.439  0.00  0.00    -0.387 OA
BRANCH  19  20
HETATM   20  C   UNK N   1      31.963   9.008   9.507  0.00  0.00     0.193 C 
BRANCH  20  21
HETATM   21  C   UNK N   1      31.481   8.412   8.194  0.00  0.00     0.193 C 
BRANCH  21  22
HETATM   22  O   UNK N   1      32.441   7.532   7.675  0.00  0.00    -0.387 OA
BRANCH  22  23
HETATM   23  C   UNK N   1      32.996   8.191   6.568  0.00  0.00     0.193 C 
BRANCH  23  24
HETATM   24  C   UNK N   1      31.971   9.041   5.845  0.00  0.00     0.193 C 
BRANCH  24  25
HETATM   25  O   UNK N   1      32.421   9.416   4.570  0.00  0.00    -0.387 OA
BRANCH  25  26
HETATM   26  C   UNK N   1      32.441  10.817   4.571  0.00  0.00     0.193 C 
BRANCH  26  27
HETATM   27  C   UNK N   1      33.643  11.352   3.800  0.00  0.00     0.193 C 
BRANCH  27  28
HETATM   28  O   UNK N   1      34.410  12.238   4.579  0.00  0.00    -0.387 OA
BRANCH  28  29
HETATM   29  C   UNK N   1      35.122  13.071   3.695  0.00  0.00     0.189 C 
BRANCH  29  30
HETATM   30  C   UNK N   1      34.204  14.044   2.946  0.00  0.00     0.172 C 
BRANCH  30  31
HETATM   31  N   UNK N   1      33.551  14.931   3.894  0.00  0.00    -0.283 N 
HETATM   32  C   UNK N   1      32.258  15.299   3.872  0.00  0.00     0.135 A 
HETATM   33  C   UNK N   1      32.145  16.298   4.807  0.00  0.00     0.058 A 
HETATM   34  N   UNK N   1      33.350  16.494   5.379  0.00  0.00    -0.285 N 
HETATM   35  N   UNK N   1      34.190  15.649   4.802  0.00  0.00    -0.020 NA
ATOM     36  HN  UNK N   1      33.571  17.164   6.115  1.00  0.00     0.184 HD
BRANCH  33  37
HETATM   37  C   UNK N   1      30.934  17.135   5.040  0.00  0.00     0.182 C 
BRANCH  37  38
HETATM   38  N   UNK N   1      29.779  16.287   5.034  0.00  0.00    -0.355 N 
HETATM   39  C   UNK N   1      28.751  16.472   4.169  0.00  0.00     0.222 C 
HETATM   40  O   UNK N   1      28.721  17.450   3.436  0.00  0.00    -0.273 OA
HETATM   41  H   UNK N   1      29.730  15.545   5.679  0.00  0.00     0.162 HD
BRANCH  39  42
HETATM   42  C   UNK N   1      27.710  15.403   4.026  0.00  0.00     0.078 C 
HETATM   43  C   UNK N   1      28.185  14.062   4.633  0.00  0.00     0.014 C 
HETATM   44  C   UNK N   1      27.921  12.868   3.695  0.00  0.00     0.007 C 
HETATM   45  C   UNK N   1      28.652  13.096   2.362  0.00  0.00     0.004 C 
HETATM   46  C   UNK N   1      28.534  14.536   1.850  0.00  0.00     0.007 C 
HETATM   47  C   UNK N   1      27.387  15.276   2.532  0.00  0.00     0.014 C 
BRANCH  45  48
HETATM   48  C   UNK N   1      28.377  12.021   1.292  0.00  0.00     0.139 C 
BRANCH  48  49
HETATM   49  N   UNK N   1      29.555  11.262   0.892  0.00  0.00    -0.287 N 
HETATM   50  C   UNK N   1      30.129  10.308   1.626  0.00  0.00     0.228 A 
HETATM   51  O   UNK N   1      29.716   9.967   2.723  0.00  0.00    -0.273 OA
HETATM   52  C   UNK N   1      31.350   9.726   0.973  0.00  0.00     0.128 A 
HETATM   53  C   UNK N   1      31.399  10.504  -0.373  0.00  0.00     0.148 A 
HETATM   54  C   UNK N   1      30.255  11.452  -0.232  0.00  0.00     0.240 A 
HETATM   55  O   UNK N   1      29.991  12.313  -1.057  0.00  0.00    -0.272 OA
BRANCH  53  56
HETATM   56  S   UNK N   1      32.955  11.418  -0.563  0.00  0.00    -0.152 SA
BRANCH  56  57
HETATM   57  C   UNK N   1      32.963  11.167  -2.375  0.00  0.00     0.110 C 
BRANCH  57  58
HETATM   58  C   UNK N   1      33.453  12.407  -3.107  0.00  0.00     0.182 C 
BRANCH  58  59
HETATM   59  C   UNK N   1      34.628  12.088  -3.974  0.00  0.00     0.163 C 
HETATM   60  O   UNK N   1      35.280  11.073  -3.785  0.00  0.00    -0.648 OA
BRANCH  59  61
HETATM   61  O   UNK N   1      34.956  12.916  -4.982  0.00  0.00    -0.775 OA
HETATM   62  H   UNK N   1      35.645  13.091  -5.592  0.00  0.00     0.167 HD
ENDBRANCH  59  61
ENDBRANCH  58  59
BRANCH  58  63
HETATM   63  N   UNK N   1      33.810  13.436  -2.145  0.00  0.00    -0.417 N 
HETATM   64  H   UNK N   1      33.151  14.182  -1.923  0.00  0.00     0.150 HD
HETATM   65  H   UNK N   1      34.722  13.413  -1.690  0.00  0.00     0.150 HD
ENDBRANCH  58  63
ENDBRANCH  57  58
ENDBRANCH  56  57
ENDBRANCH  53  56
ENDBRANCH  48  49
ENDBRANCH  45  48
ENDBRANCH  39  42
ENDBRANCH  37  38
ENDBRANCH  33  37
ENDBRANCH  30  31
ENDBRANCH  29  30
ENDBRANCH  28  29
ENDBRANCH  27  28
ENDBRANCH  26  27
ENDBRANCH  25  26
ENDBRANCH  24  25
ENDBRANCH  23  24
ENDBRANCH  22  23
ENDBRANCH  21  22
ENDBRANCH  20  21
ENDBRANCH  19  20
ENDBRANCH  18  19
ENDBRANCH  17  18
ENDBRANCH  16  17
ENDBRANCH  15  16
ENDBRANCH  14  15
ENDBRANCH  13  14
ENDBRANCH  12  13
ENDBRANCH  11  12
ENDBRANCH  10  11
ENDBRANCH   9  10
ENDBRANCH   8   9
ENDBRANCH   7   8
ENDBRANCH   6   7
ENDBRANCH   5   6
ENDBRANCH   3   5
BRANCH   1  66
HETATM   66  C   UNK N   1      25.311  19.825   3.192  0.00  0.00     0.271 C 
BRANCH  66  67
HETATM   67  O   UNK N   1      24.264  20.637   3.643  0.00  0.00    -0.373 OA
BRANCH  67  68
HETATM   68  C   UNK N   1      23.236  20.439   2.724  0.00  0.00     0.271 C 
BRANCH  68  69
HETATM   69  C   UNK N   1      22.063  19.842   3.415  0.00  0.00     0.242 C 
HETATM   70  N   UNK N   1      22.196  18.611   3.953  0.00  0.00    -0.346 N 
HETATM   71  H   UNK N   1      23.073  18.171   3.867  0.00  0.00     0.163 HD
HETATM   72  O   UNK N   1      20.995  20.436   3.439  0.00  0.00    -0.271 OA
BRANCH  70  73
HETATM   73  C   UNK N   1      21.159  17.891   4.646  0.00  0.00     0.177 C 
BRANCH  73  74
HETATM   74  C   UNK N   1      20.432  16.955   3.755  0.00  0.00     0.245 C 
HETATM   75  N   UNK N   1      20.973  15.772   3.324  0.00  0.00    -0.325 N 
HETATM   76  H   UNK N   1      21.887  15.499   3.568  0.00  0.00     0.169 HD
HETATM   77  O   UNK N   1      19.294  17.270   3.426  0.00  0.00    -0.271 OA
BRANCH  75  78
HETATM   78  C   UNK N   1      20.148  14.971   2.512  0.00  0.00     0.034 A 
HETATM   79  C   UNK N   1      20.560  14.817   1.183  0.00  0.00     0.030 A 
HETATM   80  C   UNK N   1      20.415  13.592   0.540  0.00  0.00     0.011 A 
HETATM   81  C   UNK N   1      19.882  12.505   1.231  0.00  0.00    -0.034 A 
HETATM   82  C   UNK N   1      19.358  12.687   2.519  0.00  0.00     0.011 A 
HETATM   83  C   UNK N   1      19.493  13.913   3.155  0.00  0.00     0.030 A 
BRANCH  81  84
HETATM   84  C   UNK N   1      20.062  11.135   0.647  0.00  0.00     0.219 C 
BRANCH  84  85
HETATM   85  O   UNK N   1      20.610  10.245   1.553  0.00  0.00    -0.293 OA
BRANCH  85  86
HETATM   86  C   UNK N   1      21.078   9.058   1.122  0.00  0.00     0.408 C 
HETATM   87  O   UNK N   1      20.313   8.226   0.656  0.00  0.00    -0.229 OA
BRANCH  86  88
HETATM   88  O   UNK N   1      22.411   8.835   1.190  0.00  0.00    -0.271 OA
BRANCH  88  89
HETATM   89  C   UNK N   1      23.445   9.550   0.628  0.00  0.00     0.188 C 
HETATM   90  C   UNK N   1      23.135   9.839  -0.829  0.00  0.00     0.299 C 
HETATM   91  O   UNK N   1      23.249  11.083  -1.353  0.00  0.00    -0.314 OA
HETATM   92  O   UNK N   1      22.782   8.925  -1.559  0.00  0.00    -0.261 OA
HETATM   93  C   UNK N   1      23.688  12.210  -0.687  0.00  0.00     0.224 C 
HETATM   94  C   UNK N   1      23.824  12.061   0.802  0.00  0.00     0.044 A 
HETATM   95  C   UNK N   1      23.697  10.803   1.431  0.00  0.00     0.003 A 
HETATM   96  C   UNK N   1      24.077  13.202   1.590  0.00  0.00     0.257 A 
HETATM   97  C   UNK N   1      23.772  10.715   2.836  0.00  0.00     0.043 A 
HETATM   98  C   UNK N   1      23.974  11.881   3.562  0.00  0.00     0.065 A 
HETATM   99  N   UNK N   1      24.144  13.069   2.952  0.00  0.00    -0.307 N 
HETATM  100  C   UNK N   1      24.004  12.060   4.978  0.00  0.00     0.068 A 
HETATM  101  C   UNK N   1      24.357  14.152   3.927  0.00  0.00     0.174 A 
HETATM  102  C   UNK N   1      24.228  13.388   5.226  0.00  0.00    -0.004 A 
HETATM  103  C   UNK N   1      24.291  13.863   6.539  0.00  0.00    -0.036 A 
HETATM  104  C   UNK N   1      24.098  12.930   7.584  0.00  0.00     0.000 A 
HETATM  105  C   UNK N   1      24.138  13.326   8.928  0.00  0.00     0.050 A 
HETATM  106  C   UNK N   1      23.848  11.559   7.266  0.00  0.00     0.043 A 
HETATM  107  C   UNK N   1      23.932  12.389   9.945  0.00  0.00     0.066 A 
HETATM  108  C   UNK N   1      23.682  11.051   9.628  0.00  0.00     0.039 A 
HETATM  109  C   UNK N   1      23.641  10.636   8.293  0.00  0.00     0.033 A 
HETATM  110  N   UNK N   1      23.810  11.149   5.964  0.00  0.00    -0.353 N 
ATOM    111  HN  UNK N   1      23.638  10.170   5.735  1.00  0.00     0.166 HD
HETATM  112  O   UNK N   1      24.213  14.298   1.071  0.00  0.00    -0.267 OA
BRANCH 103 113
HETATM  113  C   UNK N   1      24.559  15.312   6.824  0.00  0.00     0.036 C 
HETATM  114  C   UNK N   1      26.040  15.568   7.033  0.00  0.00     0.010 C 
ENDBRANCH 103 113
BRANCH 107 115
HETATM  115  O   UNK N   1      23.975  12.777  11.230  0.00  0.00    -0.361 OA
HETATM  116  H   UNK N   1      23.259  12.586  11.803  0.00  0.00     0.217 HD
ENDBRANCH 107 115
BRANCH  89 117
HETATM  117  C   UNK N   1      24.696   8.664   0.720  0.00  0.00     0.050 C 
HETATM  118  C   UNK N   1      24.399   7.246   1.198  0.00  0.00     0.009 C 
ENDBRANCH  89 117
ENDBRANCH  88  89
ENDBRANCH  86  88
ENDBRANCH  85  86
ENDBRANCH  84  85
ENDBRANCH  81  84
ENDBRANCH  75  78
ENDBRANCH  73  74
BRANCH  73 119
HETATM  119  C   UNK N   1      21.592  17.270   5.961  0.00  0.00     0.036 C 
BRANCH 119 120
HETATM  120  C   UNK N   1      20.435  16.434   6.496  0.00  0.00     0.021 C 
BRANCH 120 121
HETATM  121  C   UNK N   1      20.939  15.187   7.192  0.00  0.00     0.111 C 
BRANCH 121 122
HETATM  122  N   UNK N   1      20.312  14.012   6.614  0.00  0.00    -0.430 N 
HETATM  123  H   UNK N   1      19.360  13.699   6.804  0.00  0.00     0.149 HD
HETATM  124  H   UNK N   1      20.869  13.454   5.967  0.00  0.00     0.149 HD
ENDBRANCH 121 122
ENDBRANCH 120 121
ENDBRANCH 119 120
ENDBRANCH  73 119
ENDBRANCH  70  73
ENDBRANCH  68  69
ENDBRANCH  67  68
ENDBRANCH  66  67
ENDBRANCH   1  66
TORSDOF 57
ENDMDL
MODEL 8
REMARK VINA RESULT:      -6.0      3.230      7.425
REMARK WARNING: 32 MAX_TORS EXCEEDED!!!
REMARK  57 active torsions:
REMARK  status: ('A' for Active; 'I' for Inactive)
REMARK    1  A    between atoms: C_2  and  C_3 
REMARK    2  A    between atoms: C_6  and  O_114 
REMARK    3  A    between atoms: C_26  and  C_27 
REMARK    4  A    between atoms: C_26  and  O_29 
REMARK    5  A    between atoms: O_29  and  C_30 
REMARK    6  A    between atoms: C_30  and  O_32 
REMARK    7  A    between atoms: O_32  and  C_33 
REMARK    8  A    between atoms: C_33  and  C_34 
REMARK    9  A    between atoms: C_37  and  N_40 
REMARK       I    between atoms: N_40  and  C_41 
REMARK   10  A    between atoms: C_41  and  C_43 
REMARK   11  A    between atoms: C_43  and  C_44 
REMARK   12  A    between atoms: C_43  and  N_48 
REMARK   13  A    between atoms: C_44  and  C_45 
REMARK   14  A    between atoms: C_45  and  C_46 
REMARK   15  A    between atoms: C_46  and  N_47 
REMARK       I    between atoms: N_48  and  C_49 
REMARK   16  A    between atoms: C_49  and  C_51 
REMARK   17  A    between atoms: C_51  and  O_52 
REMARK   18  A    between atoms: O_52  and  C_53 
REMARK   19  A    between atoms: C_53  and  C_54 
REMARK       I    between atoms: C_54  and  N_56 
REMARK   20  A    between atoms: N_56  and  C_57 
REMARK   21  A    between atoms: C_57  and  C_58 
REMARK   22  A    between atoms: C_58  and  O_59 
REMARK   23  A    between atoms: O_59  and  C_60 
REMARK   24  A    between atoms: C_60  and  C_61 
REMARK   25  A    between atoms: C_61  and  O_62 
REMARK   26  A    between atoms: O_62  and  C_63 
REMARK   27  A    between atoms: C_63  and  C_64 
REMARK   28  A    between atoms: C_64  and  O_65 
REMARK   29  A    between atoms: O_65  and  C_66 
REMARK   30  A    between atoms: C_66  and  C_67 
REMARK   31  A    between atoms: C_67  and  O_68 
REMARK   32  A    between atoms: O_68  and  C_69 
REMARK   33  A    between atoms: C_69  and  C_70 
REMARK   34  A    between atoms: C_70  and  O_71 
REMARK   35  A    between atoms: O_71  and  C_72 
REMARK   36  A    between atoms: C_72  and  C_73 
REMARK   37  A    between atoms: C_73  and  O_74 
REMARK   38  A    between atoms: O_74  and  C_75 
REMARK   39  A    between atoms: C_75  and  C_76 
REMARK   40  A    between atoms: C_76  and  O_77 
REMARK   41  A    between atoms: O_77  and  C_78 
REMARK   42  A    between atoms: C_78  and  C_79 
REMARK   43  A    between atoms: C_79  and  O_80 
REMARK   44  A    between atoms: O_80  and  C_81 
REMARK   45  A    between atoms: C_81  and  C_82 
REMARK   46  A    between atoms: C_82  and  N_83 
REMARK   47  A    between atoms: C_85  and  C_89 
REMARK   48  A    between atoms: C_89  and  N_90 
REMARK       I    between atoms: N_90  and  C_91 
REMARK   49  A    between atoms: C_91  and  C_93 
REMARK   50  A    between atoms: C_96  and  C_99 
REMARK   51  A    between atoms: C_99  and  N_100 
REMARK   52  A    between atoms: C_104  and  S_107 
REMARK   53  A    between atoms: S_107  and  C_108 
REMARK   54  A    between atoms: C_108  and  C_109 
REMARK   55  A    between atoms: C_109  and  C_110 
REMARK   56  A    between atoms: C_109  and  N_113 
REMARK   57  A    between atoms: C_110  and  O_112 
ROOT
HETATM    1  C   UNK N   1      24.819  20.404   3.052  0.00  0.00     0.241 C 
HETATM    2  O   UNK N   1      24.618  20.940   1.973  0.00  0.00    -0.271 OA
HETATM    3  N   UNK N   1      26.066  20.447   3.589  0.00  0.00    -0.357 N 
HETATM    4  H   UNK N   1      26.759  20.947   3.101  0.00  0.00     0.162 HD
ENDROOT
BRANCH   3   5
HETATM    5  C   UNK N   1      26.446  19.805   4.835  0.00  0.00     0.148 C 
BRANCH   5   6
HETATM    6  C   UNK N   1      27.926  19.414   4.906  0.00  0.00     0.187 C 
BRANCH   6   7
HETATM    7  O   UNK N   1      28.200  18.616   6.020  0.00  0.00    -0.387 OA
BRANCH   7   8
HETATM    8  C   UNK N   1      27.845  19.397   7.124  0.00  0.00     0.193 C 
BRANCH   8   9
HETATM    9  C   UNK N   1      28.533  18.863   8.376  0.00  0.00     0.193 C 
BRANCH   9  10
HETATM   10  O   UNK N   1      29.522  17.934   8.058  0.00  0.00    -0.387 OA
BRANCH  10  11
HETATM   11  C   UNK N   1      30.630  18.242   8.855  0.00  0.00     0.193 C 
BRANCH  11  12
HETATM   12  C   UNK N   1      31.870  17.648   8.202  0.00  0.00     0.193 C 
BRANCH  12  13
HETATM   13  O   UNK N   1      33.034  18.080   8.857  0.00  0.00    -0.387 OA
BRANCH  13  14
HETATM   14  C   UNK N   1      34.034  18.186   7.877  0.00  0.00     0.193 C 
BRANCH  14  15
HETATM   15  C   UNK N   1      34.348  16.836   7.267  0.00  0.00     0.193 C 
BRANCH  15  16
HETATM   16  O   UNK N   1      34.949  15.974   8.197  0.00  0.00    -0.387 OA
BRANCH  16  17
HETATM   17  C   UNK N   1      34.912  14.688   7.640  0.00  0.00     0.193 C 
BRANCH  17  18
HETATM   18  C   UNK N   1      35.094  14.737   6.137  0.00  0.00     0.193 C 
BRANCH  18  19
HETATM   19  O   UNK N   1      34.315  13.748   5.521  0.00  0.00    -0.387 OA
BRANCH  19  20
HETATM   20  C   UNK N   1      33.780  12.980   6.563  0.00  0.00     0.193 C 
BRANCH  20  21
HETATM   21  C   UNK N   1      33.298  11.640   6.032  0.00  0.00     0.193 C 
BRANCH  21  22
HETATM   22  O   UNK N   1      33.535  10.627   6.972  0.00  0.00    -0.387 OA
BRANCH  22  23
HETATM   23  C   UNK N   1      34.540   9.824   6.414  0.00  0.00     0.193 C 
BRANCH  23  24
HETATM   24  C   UNK N   1      35.798   9.825   7.258  0.00  0.00     0.193 C 
BRANCH  24  25
HETATM   25  O   UNK N   1      36.931  10.137   6.492  0.00  0.00    -0.387 OA
BRANCH  25  26
HETATM   26  C   UNK N   1      37.143  11.510   6.666  0.00  0.00     0.193 C 
BRANCH  26  27
HETATM   27  C   UNK N   1      38.609  11.811   6.955  0.00  0.00     0.193 C 
BRANCH  27  28
HETATM   28  O   UNK N   1      39.136  10.947   7.933  0.00  0.00    -0.387 OA
BRANCH  28  29
HETATM   29  C   UNK N   1      38.750  11.447   9.191  0.00  0.00     0.189 C 
BRANCH  29  30
HETATM   30  C   UNK N   1      39.139  12.917   9.378  0.00  0.00     0.172 C 
BRANCH  30  31
HETATM   31  N   UNK N   1      38.089  13.616  10.099  0.00  0.00    -0.283 N 
HETATM   32  C   UNK N   1      37.075  13.043  10.771  0.00  0.00     0.135 A 
HETATM   33  C   UNK N   1      36.224  14.070  11.097  0.00  0.00     0.058 A 
HETATM   34  N   UNK N   1      36.746  15.226  10.639  0.00  0.00    -0.285 N 
HETATM   35  N   UNK N   1      37.882  14.920  10.032  0.00  0.00    -0.020 NA
ATOM     36  HN  UNK N   1      36.343  16.157  10.741  1.00  0.00     0.184 HD
BRANCH  33  37
HETATM   37  C   UNK N   1      34.875  13.918  11.713  0.00  0.00     0.182 C 
BRANCH  37  38
HETATM   38  N   UNK N   1      34.759  12.593  12.246  0.00  0.00    -0.355 N 
HETATM   39  C   UNK N   1      34.675  12.355  13.579  0.00  0.00     0.222 C 
HETATM   40  O   UNK N   1      34.814  13.264  14.385  0.00  0.00    -0.273 OA
HETATM   41  H   UNK N   1      34.740  11.830  11.624  0.00  0.00     0.162 HD
BRANCH  39  42
HETATM   42  C   UNK N   1      34.283  10.990  14.058  0.00  0.00     0.078 C 
HETATM   43  C   UNK N   1      34.233  10.922  15.603  0.00  0.00     0.014 C 
HETATM   44  C   UNK N   1      34.951   9.677  16.158  0.00  0.00     0.007 C 
HETATM   45  C   UNK N   1      36.420   9.693  15.709  0.00  0.00     0.004 C 
HETATM   46  C   UNK N   1      36.599  10.113  14.245  0.00  0.00     0.007 C 
HETATM   47  C   UNK N   1      35.289   9.993  13.470  0.00  0.00     0.014 C 
BRANCH  45  48
HETATM   48  C   UNK N   1      37.223   8.439  16.109  0.00  0.00     0.139 C 
BRANCH  48  49
HETATM   49  N   UNK N   1      37.766   7.694  14.980  0.00  0.00    -0.287 N 
HETATM   50  C   UNK N   1      37.121   6.725  14.329  0.00  0.00     0.228 A 
HETATM   51  O   UNK N   1      35.991   6.362  14.616  0.00  0.00    -0.273 OA
HETATM   52  C   UNK N   1      37.944   6.112  13.231  0.00  0.00     0.128 A 
HETATM   53  C   UNK N   1      39.254   6.947  13.307  0.00  0.00     0.148 A 
HETATM   54  C   UNK N   1      38.997   7.835  14.477  0.00  0.00     0.240 A 
HETATM   55  O   UNK N   1      39.829   8.607  14.929  0.00  0.00    -0.272 OA
BRANCH  53  56
HETATM   56  S   UNK N   1      40.701   5.896  13.617  0.00  0.00    -0.152 SA
BRANCH  56  57
HETATM   57  C   UNK N   1      41.542   6.485  12.104  0.00  0.00     0.110 C 
BRANCH  57  58
HETATM   58  C   UNK N   1      42.566   7.564  12.419  0.00  0.00     0.182 C 
BRANCH  58  59
HETATM   59  C   UNK N   1      43.924   7.173  11.932  0.00  0.00     0.163 C 
HETATM   60  O   UNK N   1      44.659   6.490  12.629  0.00  0.00    -0.648 OA
BRANCH  59  61
HETATM   61  O   UNK N   1      44.330   7.560  10.710  0.00  0.00    -0.775 OA
HETATM   62  H   UNK N   1      44.838   8.221  10.281  0.00  0.00     0.167 HD
ENDBRANCH  59  61
ENDBRANCH  58  59
BRANCH  58  63
HETATM   63  N   UNK N   1      42.602   7.803  13.852  0.00  0.00    -0.417 N 
HETATM   64  H   UNK N   1      43.442   8.186  14.287  0.00  0.00     0.150 HD
HETATM   65  H   UNK N   1      41.786   7.589  14.425  0.00  0.00     0.150 HD
ENDBRANCH  58  63
ENDBRANCH  57  58
ENDBRANCH  56  57
ENDBRANCH  53  56
ENDBRANCH  48  49
ENDBRANCH  45  48
ENDBRANCH  39  42
ENDBRANCH  37  38
ENDBRANCH  33  37
ENDBRANCH  30  31
ENDBRANCH  29  30
ENDBRANCH  28  29
ENDBRANCH  27  28
ENDBRANCH  26  27
ENDBRANCH  25  26
ENDBRANCH  24  25
ENDBRANCH  23  24
ENDBRANCH  22  23
ENDBRANCH  21  22
ENDBRANCH  20  21
ENDBRANCH  19  20
ENDBRANCH  18  19
ENDBRANCH  17  18
ENDBRANCH  16  17
ENDBRANCH  15  16
ENDBRANCH  14  15
ENDBRANCH  13  14
ENDBRANCH  12  13
ENDBRANCH  11  12
ENDBRANCH  10  11
ENDBRANCH   9  10
ENDBRANCH   8   9
ENDBRANCH   7   8
ENDBRANCH   6   7
ENDBRANCH   5   6
ENDBRANCH   3   5
BRANCH   1  66
HETATM   66  C   UNK N   1      23.672  19.765   3.794  0.00  0.00     0.271 C 
BRANCH  66  67
HETATM   67  O   UNK N   1      22.503  19.769   3.023  0.00  0.00    -0.373 OA
BRANCH  67  68
HETATM   68  C   UNK N   1      21.544  19.153   3.825  0.00  0.00     0.271 C 
BRANCH  68  69
HETATM   69  C   UNK N   1      20.800  18.147   3.022  0.00  0.00     0.242 C 
HETATM   70  N   UNK N   1      21.200  16.859   3.080  0.00  0.00    -0.346 N 
HETATM   71  H   UNK N   1      21.966  16.648   3.663  0.00  0.00     0.163 HD
HETATM   72  O   UNK N   1      19.889  18.498   2.288  0.00  0.00    -0.271 OA
BRANCH  70  73
HETATM   73  C   UNK N   1      20.597  15.768   2.360  0.00  0.00     0.177 C 
BRANCH  73  74
HETATM   74  C   UNK N   1      21.605  14.844   1.787  0.00  0.00     0.245 C 
HETATM   75  N   UNK N   1      22.706  14.425   2.487  0.00  0.00    -0.325 N 
HETATM   76  H   UNK N   1      22.893  14.741   3.401  0.00  0.00     0.169 HD
HETATM   77  O   UNK N   1      21.407  14.441   0.648  0.00  0.00    -0.271 OA
BRANCH  75  78
HETATM   78  C   UNK N   1      23.556  13.519   1.823  0.00  0.00     0.034 A 
HETATM   79  C   UNK N   1      24.739  14.057   1.303  0.00  0.00     0.030 A 
HETATM   80  C   UNK N   1      25.925  13.334   1.362  0.00  0.00     0.011 A 
HETATM   81  C   UNK N   1      25.942  12.079   1.968  0.00  0.00    -0.034 A 
HETATM   82  C   UNK N   1      24.739  11.488   2.380  0.00  0.00     0.011 A 
HETATM   83  C   UNK N   1      23.554  12.206   2.309  0.00  0.00     0.030 A 
BRANCH  81  84
HETATM   84  C   UNK N   1      27.270  11.485   2.333  0.00  0.00     0.219 C 
BRANCH  84  85
HETATM   85  O   UNK N   1      28.118  12.410   2.916  0.00  0.00    -0.293 OA
BRANCH  85  86
HETATM   86  C   UNK N   1      28.330  12.376   4.245  0.00  0.00     0.408 C 
HETATM   87  O   UNK N   1      28.022  11.385   4.894  0.00  0.00    -0.229 OA
BRANCH  86  88
HETATM   88  O   UNK N   1      28.918  13.447   4.827  0.00  0.00    -0.271 OA
BRANCH  88  89
HETATM   89  C   UNK N   1      28.647  14.787   4.662  0.00  0.00     0.188 C 
HETATM   90  C   UNK N   1      29.058  15.225   3.269  0.00  0.00     0.299 C 
HETATM   91  O   UNK N   1      28.227  15.929   2.463  0.00  0.00    -0.314 OA
HETATM   92  O   UNK N   1      30.175  14.947   2.859  0.00  0.00    -0.261 OA
HETATM   93  C   UNK N   1      26.960  16.374   2.789  0.00  0.00     0.224 C 
HETATM   94  C   UNK N   1      26.396  15.817   4.066  0.00  0.00     0.044 A 
HETATM   95  C   UNK N   1      27.189  15.053   4.951  0.00  0.00     0.003 A 
HETATM   96  C   UNK N   1      25.045  16.056   4.386  0.00  0.00     0.257 A 
HETATM   97  C   UNK N   1      26.606  14.499   6.108  0.00  0.00     0.043 A 
HETATM   98  C   UNK N   1      25.257  14.729   6.344  0.00  0.00     0.065 A 
HETATM   99  N   UNK N   1      24.520  15.499   5.522  0.00  0.00    -0.307 N 
HETATM  100  C   UNK N   1      24.431  14.214   7.389  0.00  0.00     0.068 A 
HETATM  101  C   UNK N   1      23.127  15.607   5.988  0.00  0.00     0.174 A 
HETATM  102  C   UNK N   1      23.169  14.714   7.207  0.00  0.00    -0.004 A 
HETATM  103  C   UNK N   1      22.135  14.362   8.080  0.00  0.00    -0.036 A 
HETATM  104  C   UNK N   1      22.441  13.469   9.132  0.00  0.00     0.000 A 
HETATM  105  C   UNK N   1      21.460  13.061  10.047  0.00  0.00     0.050 A 
HETATM  106  C   UNK N   1      23.771  12.964   9.262  0.00  0.00     0.043 A 
HETATM  107  C   UNK N   1      21.780  12.167  11.071  0.00  0.00     0.066 A 
HETATM  108  C   UNK N   1      23.082  11.671  11.191  0.00  0.00     0.039 A 
HETATM  109  C   UNK N   1      24.074  12.068  10.290  0.00  0.00     0.033 A 
HETATM  110  N   UNK N   1      24.745  13.352   8.387  0.00  0.00    -0.353 N 
ATOM    111  HN  UNK N   1      25.697  12.997   8.482  1.00  0.00     0.166 HD
HETATM  112  O   UNK N   1      24.342  16.731   3.651  0.00  0.00    -0.267 OA
BRANCH 103 113
HETATM  113  C   UNK N   1      20.753  14.922   7.904  0.00  0.00     0.036 C 
HETATM  114  C   UNK N   1      20.619  16.279   8.571  0.00  0.00     0.010 C 
ENDBRANCH 103 113
BRANCH 107 115
HETATM  115  O   UNK N   1      20.835  11.783  11.945  0.00  0.00    -0.361 OA
HETATM  116  H   UNK N   1      20.142  11.216  11.670  0.00  0.00     0.217 HD
ENDBRANCH 107 115
BRANCH  89 117
HETATM  117  C   UNK N   1      29.486  15.539   5.704  0.00  0.00     0.050 C 
HETATM  118  C   UNK N   1      30.778  14.818   6.075  0.00  0.00     0.009 C 
ENDBRANCH  89 117
ENDBRANCH  88  89
ENDBRANCH  86  88
ENDBRANCH  85  86
ENDBRANCH  84  85
ENDBRANCH  81  84
ENDBRANCH  75  78
ENDBRANCH  73  74
BRANCH  73 119
HETATM  119  C   UNK N   1      19.477  15.064   3.104  0.00  0.00     0.036 C 
BRANCH 119 120
HETATM  120  C   UNK N   1      19.992  13.705   3.565  0.00  0.00     0.021 C 
BRANCH 120 121
HETATM  121  C   UNK N   1      19.370  13.305   4.886  0.00  0.00     0.111 C 
BRANCH 121 122
HETATM  122  N   UNK N   1      19.835  11.985   5.271  0.00  0.00    -0.430 N 
HETATM  123  H   UNK N   1      19.238  11.171   5.419  0.00  0.00     0.149 HD
HETATM  124  H   UNK N   1      20.838  11.861   5.405  0.00  0.00     0.149 HD
ENDBRANCH 121 122
ENDBRANCH 120 121
ENDBRANCH 119 120
ENDBRANCH  73 119
ENDBRANCH  70  73
ENDBRANCH  68  69
ENDBRANCH  67  68
ENDBRANCH  66  67
ENDBRANCH   1  66
TORSDOF 57
ENDMDL
MODEL 9
REMARK VINA RESULT:      -6.0      2.954     12.583
REMARK WARNING: 32 MAX_TORS EXCEEDED!!!
REMARK  57 active torsions:
REMARK  status: ('A' for Active; 'I' for Inactive)
REMARK    1  A    between atoms: C_2  and  C_3 
REMARK    2  A    between atoms: C_6  and  O_114 
REMARK    3  A    between atoms: C_26  and  C_27 
REMARK    4  A    between atoms: C_26  and  O_29 
REMARK    5  A    between atoms: O_29  and  C_30 
REMARK    6  A    between atoms: C_30  and  O_32 
REMARK    7  A    between atoms: O_32  and  C_33 
REMARK    8  A    between atoms: C_33  and  C_34 
REMARK    9  A    between atoms: C_37  and  N_40 
REMARK       I    between atoms: N_40  and  C_41 
REMARK   10  A    between atoms: C_41  and  C_43 
REMARK   11  A    between atoms: C_43  and  C_44 
REMARK   12  A    between atoms: C_43  and  N_48 
REMARK   13  A    between atoms: C_44  and  C_45 
REMARK   14  A    between atoms: C_45  and  C_46 
REMARK   15  A    between atoms: C_46  and  N_47 
REMARK       I    between atoms: N_48  and  C_49 
REMARK   16  A    between atoms: C_49  and  C_51 
REMARK   17  A    between atoms: C_51  and  O_52 
REMARK   18  A    between atoms: O_52  and  C_53 
REMARK   19  A    between atoms: C_53  and  C_54 
REMARK       I    between atoms: C_54  and  N_56 
REMARK   20  A    between atoms: N_56  and  C_57 
REMARK   21  A    between atoms: C_57  and  C_58 
REMARK   22  A    between atoms: C_58  and  O_59 
REMARK   23  A    between atoms: O_59  and  C_60 
REMARK   24  A    between atoms: C_60  and  C_61 
REMARK   25  A    between atoms: C_61  and  O_62 
REMARK   26  A    between atoms: O_62  and  C_63 
REMARK   27  A    between atoms: C_63  and  C_64 
REMARK   28  A    between atoms: C_64  and  O_65 
REMARK   29  A    between atoms: O_65  and  C_66 
REMARK   30  A    between atoms: C_66  and  C_67 
REMARK   31  A    between atoms: C_67  and  O_68 
REMARK   32  A    between atoms: O_68  and  C_69 
REMARK   33  A    between atoms: C_69  and  C_70 
REMARK   34  A    between atoms: C_70  and  O_71 
REMARK   35  A    between atoms: O_71  and  C_72 
REMARK   36  A    between atoms: C_72  and  C_73 
REMARK   37  A    between atoms: C_73  and  O_74 
REMARK   38  A    between atoms: O_74  and  C_75 
REMARK   39  A    between atoms: C_75  and  C_76 
REMARK   40  A    between atoms: C_76  and  O_77 
REMARK   41  A    between atoms: O_77  and  C_78 
REMARK   42  A    between atoms: C_78  and  C_79 
REMARK   43  A    between atoms: C_79  and  O_80 
REMARK   44  A    between atoms: O_80  and  C_81 
REMARK   45  A    between atoms: C_81  and  C_82 
REMARK   46  A    between atoms: C_82  and  N_83 
REMARK   47  A    between atoms: C_85  and  C_89 
REMARK   48  A    between atoms: C_89  and  N_90 
REMARK       I    between atoms: N_90  and  C_91 
REMARK   49  A    between atoms: C_91  and  C_93 
REMARK   50  A    between atoms: C_96  and  C_99 
REMARK   51  A    between atoms: C_99  and  N_100 
REMARK   52  A    between atoms: C_104  and  S_107 
REMARK   53  A    between atoms: S_107  and  C_108 
REMARK   54  A    between atoms: C_108  and  C_109 
REMARK   55  A    between atoms: C_109  and  C_110 
REMARK   56  A    between atoms: C_109  and  N_113 
REMARK   57  A    between atoms: C_110  and  O_112 
ROOT
HETATM    1  C   UNK N   1      34.249  18.129   8.589  0.00  0.00     0.241 C 
HETATM    2  O   UNK N   1      35.041  19.018   8.310  0.00  0.00    -0.271 OA
HETATM    3  N   UNK N   1      32.936  18.294   8.280  0.00  0.00    -0.357 N 
HETATM    4  H   UNK N   1      32.677  19.115   7.803  0.00  0.00     0.162 HD
ENDROOT
BRANCH   3   5
HETATM    5  C   UNK N   1      31.891  17.341   8.605  0.00  0.00     0.148 C 
BRANCH   5   6
HETATM    6  C   UNK N   1      30.476  17.839   8.291  0.00  0.00     0.187 C 
BRANCH   6   7
HETATM    7  O   UNK N   1      29.857  18.391   9.416  0.00  0.00    -0.387 OA
BRANCH   7   8
HETATM    8  C   UNK N   1      28.560  17.866   9.411  0.00  0.00     0.193 C 
BRANCH   8   9
HETATM    9  C   UNK N   1      28.192  17.413   8.003  0.00  0.00     0.193 C 
BRANCH   9  10
HETATM   10  O   UNK N   1      27.212  16.423   8.025  0.00  0.00    -0.387 OA
BRANCH  10  11
HETATM   11  C   UNK N   1      26.997  16.043   6.696  0.00  0.00     0.193 C 
BRANCH  11  12
HETATM   12  C   UNK N   1      25.694  15.259   6.625  0.00  0.00     0.193 C 
BRANCH  12  13
HETATM   13  O   UNK N   1      25.610  14.335   7.676  0.00  0.00    -0.387 OA
BRANCH  13  14
HETATM   14  C   UNK N   1      24.427  13.606   7.481  0.00  0.00     0.193 C 
BRANCH  14  15
HETATM   15  C   UNK N   1      23.352  14.464   6.846  0.00  0.00     0.193 C 
BRANCH  15  16
HETATM   16  O   UNK N   1      22.066  14.000   7.160  0.00  0.00    -0.387 OA
BRANCH  16  17
HETATM   17  C   UNK N   1      22.014  13.864   8.555  0.00  0.00     0.193 C 
BRANCH  17  18
HETATM   18  C   UNK N   1      20.686  14.345   9.102  0.00  0.00     0.193 C 
BRANCH  18  19
HETATM   19  O   UNK N   1      19.913  14.907   8.077  0.00  0.00    -0.387 OA
BRANCH  19  20
HETATM   20  C   UNK N   1      19.454  16.134   8.575  0.00  0.00     0.193 C 
BRANCH  20  21
HETATM   21  C   UNK N   1      20.275  17.274   7.995  0.00  0.00     0.193 C 
BRANCH  21  22
HETATM   22  O   UNK N   1      20.699  16.960   6.696  0.00  0.00    -0.387 OA
BRANCH  22  23
HETATM   23  C   UNK N   1      21.349  18.111   6.225  0.00  0.00     0.193 C 
BRANCH  23  24
HETATM   24  C   UNK N   1      22.445  17.774   5.235  0.00  0.00     0.193 C 
BRANCH  24  25
HETATM   25  O   UNK N   1      22.513  18.720   4.201  0.00  0.00    -0.387 OA
BRANCH  25  26
HETATM   26  C   UNK N   1      21.261  19.347   4.176  0.00  0.00     0.193 C 
BRANCH  26  27
HETATM   27  C   UNK N   1      20.778  19.559   2.745  0.00  0.00     0.193 C 
BRANCH  27  28
HETATM   28  O   UNK N   1      19.554  18.908   2.505  0.00  0.00    -0.387 OA
BRANCH  28  29
HETATM   29  C   UNK N   1      19.814  17.526   2.445  0.00  0.00     0.189 C 
BRANCH  29  30
HETATM   30  C   UNK N   1      20.166  17.062   1.027  0.00  0.00     0.172 C 
BRANCH  30  31
HETATM   31  N   UNK N   1      20.335  15.618   1.011  0.00  0.00    -0.283 N 
HETATM   32  C   UNK N   1      19.448  14.713   1.458  0.00  0.00     0.135 A 
HETATM   33  C   UNK N   1      20.113  13.512   1.448  0.00  0.00     0.058 A 
HETATM   34  N   UNK N   1      21.362  13.712   0.982  0.00  0.00    -0.285 N 
HETATM   35  N   UNK N   1      21.472  15.007   0.726  0.00  0.00    -0.020 NA
ATOM     36  HN  UNK N   1      22.083  13.003   0.852  1.00  0.00     0.184 HD
BRANCH  33  37
HETATM   37  C   UNK N   1      19.597  12.229   2.006  0.00  0.00     0.182 C 
BRANCH  37  38
HETATM   38  N   UNK N   1      20.279  11.954   3.235  0.00  0.00    -0.355 N 
HETATM   39  C   UNK N   1      21.460  11.287   3.273  0.00  0.00     0.222 C 
HETATM   40  O   UNK N   1      21.928  10.790   2.258  0.00  0.00    -0.273 OA
HETATM   41  H   UNK N   1      19.878  12.259   4.080  0.00  0.00     0.162 HD
BRANCH  39  42
HETATM   42  C   UNK N   1      22.254  11.269   4.544  0.00  0.00     0.078 C 
HETATM   43  C   UNK N   1      23.725  11.683   4.301  0.00  0.00     0.014 C 
HETATM   44  C   UNK N   1      24.722  10.733   4.990  0.00  0.00     0.007 C 
HETATM   45  C   UNK N   1      24.515   9.305   4.461  0.00  0.00     0.004 C 
HETATM   46  C   UNK N   1      23.037   8.923   4.322  0.00  0.00     0.007 C 
HETATM   47  C   UNK N   1      22.143   9.858   5.132  0.00  0.00     0.014 C 
BRANCH  45  48
HETATM   48  C   UNK N   1      25.381   8.235   5.155  0.00  0.00     0.139 C 
BRANCH  48  49
HETATM   49  N   UNK N   1      26.421   7.668   4.308  0.00  0.00    -0.287 N 
HETATM   50  C   UNK N   1      26.218   6.736   3.375  0.00  0.00     0.228 A 
HETATM   51  O   UNK N   1      25.120   6.260   3.132  0.00  0.00    -0.273 OA
HETATM   52  C   UNK N   1      27.484   6.316   2.684  0.00  0.00     0.128 A 
HETATM   53  C   UNK N   1      28.542   7.231   3.366  0.00  0.00     0.148 A 
HETATM   54  C   UNK N   1      27.726   7.956   4.382  0.00  0.00     0.240 A 
HETATM   55  O   UNK N   1      28.202   8.730   5.198  0.00  0.00    -0.272 OA
BRANCH  53  56
HETATM   56  S   UNK N   1      29.843   6.260   4.177  0.00  0.00    -0.152 SA
BRANCH  56  57
HETATM   57  C   UNK N   1      31.053   7.622   4.022  0.00  0.00     0.110 C 
BRANCH  57  58
HETATM   58  C   UNK N   1      31.883   7.777   5.288  0.00  0.00     0.182 C 
BRANCH  58  59
HETATM   59  C   UNK N   1      31.102   8.469   6.359  0.00  0.00     0.163 C 
HETATM   60  O   UNK N   1      31.126   9.687   6.453  0.00  0.00    -0.648 OA
BRANCH  59  61
HETATM   61  O   UNK N   1      30.353   7.746   7.210  0.00  0.00    -0.775 OA
HETATM   62  H   UNK N   1      30.257   6.875   7.543  0.00  0.00     0.167 HD
ENDBRANCH  59  61
ENDBRANCH  58  59
BRANCH  58  63
HETATM   63  N   UNK N   1      33.093   8.526   4.993  0.00  0.00    -0.417 N 
HETATM   64  H   UNK N   1      33.980   8.255   5.418  0.00  0.00     0.150 HD
HETATM   65  H   UNK N   1      33.056   9.324   4.360  0.00  0.00     0.150 HD
ENDBRANCH  58  63
ENDBRANCH  57  58
ENDBRANCH  56  57
ENDBRANCH  53  56
ENDBRANCH  48  49
ENDBRANCH  45  48
ENDBRANCH  39  42
ENDBRANCH  37  38
ENDBRANCH  33  37
ENDBRANCH  30  31
ENDBRANCH  29  30
ENDBRANCH  28  29
ENDBRANCH  27  28
ENDBRANCH  26  27
ENDBRANCH  25  26
ENDBRANCH  24  25
ENDBRANCH  23  24
ENDBRANCH  22  23
ENDBRANCH  21  22
ENDBRANCH  20  21
ENDBRANCH  19  20
ENDBRANCH  18  19
ENDBRANCH  17  18
ENDBRANCH  16  17
ENDBRANCH  15  16
ENDBRANCH  14  15
ENDBRANCH  13  14
ENDBRANCH  12  13
ENDBRANCH  11  12
ENDBRANCH  10  11
ENDBRANCH   9  10
ENDBRANCH   8   9
ENDBRANCH   7   8
ENDBRANCH   6   7
ENDBRANCH   5   6
ENDBRANCH   3   5
BRANCH   1  66
HETATM   66  C   UNK N   1      34.750  16.849   9.208  0.00  0.00     0.271 C 
BRANCH  66  67
HETATM   67  O   UNK N   1      35.751  17.100  10.155  0.00  0.00    -0.373 OA
BRANCH  67  68
HETATM   68  C   UNK N   1      35.322  16.450  11.310  0.00  0.00     0.271 C 
BRANCH  68  69
HETATM   69  C   UNK N   1      35.501  14.983  11.148  0.00  0.00     0.242 C 
HETATM   70  N   UNK N   1      36.714  14.525  10.772  0.00  0.00    -0.346 N 
HETATM   71  H   UNK N   1      37.427  15.191  10.632  0.00  0.00     0.163 HD
HETATM   72  O   UNK N   1      34.553  14.227  11.296  0.00  0.00    -0.271 OA
BRANCH  70  73
HETATM   73  C   UNK N   1      37.051  13.141  10.562  0.00  0.00     0.177 C 
BRANCH  73  74
HETATM   74  C   UNK N   1      37.442  12.863   9.159  0.00  0.00     0.245 C 
HETATM   75  N   UNK N   1      36.655  13.204   8.091  0.00  0.00    -0.325 N 
HETATM   76  H   UNK N   1      35.775  13.632   8.208  0.00  0.00     0.169 HD
HETATM   77  O   UNK N   1      38.527  12.323   8.979  0.00  0.00    -0.271 OA
BRANCH  75  78
HETATM   78  C   UNK N   1      37.175  12.909   6.816  0.00  0.00     0.034 A 
HETATM   79  C   UNK N   1      36.505  11.913   6.097  0.00  0.00     0.030 A 
HETATM   80  C   UNK N   1      36.330  12.036   4.723  0.00  0.00     0.011 A 
HETATM   81  C   UNK N   1      36.799  13.170   4.063  0.00  0.00    -0.034 A 
HETATM   82  C   UNK N   1      37.575  14.109   4.758  0.00  0.00     0.011 A 
HETATM   83  C   UNK N   1      37.759  13.979   6.127  0.00  0.00     0.030 A 
BRANCH  81  84
HETATM   84  C   UNK N   1      36.296  13.444   2.677  0.00  0.00     0.219 C 
BRANCH  84  85
HETATM   85  O   UNK N   1      34.931  13.247   2.564  0.00  0.00    -0.293 OA
BRANCH  85  86
HETATM   86  C   UNK N   1      34.081  14.171   3.050  0.00  0.00     0.408 C 
HETATM   87  O   UNK N   1      33.845  15.188   2.412  0.00  0.00    -0.229 OA
BRANCH  86  88
HETATM   88  O   UNK N   1      33.480  13.924   4.237  0.00  0.00    -0.271 OA
BRANCH  88  89
HETATM   89  C   UNK N   1      32.876  14.804   5.107  0.00  0.00     0.188 C 
HETATM   90  C   UNK N   1      33.773  16.008   5.324  0.00  0.00     0.299 C 
HETATM   91  O   UNK N   1      33.310  17.276   5.216  0.00  0.00    -0.314 OA
HETATM   92  O   UNK N   1      34.948  15.836   5.613  0.00  0.00    -0.261 OA
HETATM   93  C   UNK N   1      32.005  17.647   4.954  0.00  0.00     0.224 C 
HETATM   94  C   UNK N   1      31.096  16.529   4.530  0.00  0.00     0.044 A 
HETATM   95  C   UNK N   1      31.509  15.180   4.589  0.00  0.00     0.003 A 
HETATM   96  C   UNK N   1      29.803  16.832   4.057  0.00  0.00     0.257 A 
HETATM   97  C   UNK N   1      30.647  14.165   4.126  0.00  0.00     0.043 A 
HETATM   98  C   UNK N   1      29.405  14.531   3.625  0.00  0.00     0.065 A 
HETATM   99  N   UNK N   1      28.998  15.814   3.618  0.00  0.00    -0.307 N 
HETATM  100  C   UNK N   1      28.402  13.706   3.030  0.00  0.00     0.068 A 
HETATM  101  C   UNK N   1      27.644  15.949   3.055  0.00  0.00     0.174 A 
HETATM  102  C   UNK N   1      27.351  14.513   2.683  0.00  0.00    -0.004 A 
HETATM  103  C   UNK N   1      26.221  13.975   2.059  0.00  0.00    -0.036 A 
HETATM  104  C   UNK N   1      26.219  12.587   1.789  0.00  0.00     0.000 A 
HETATM  105  C   UNK N   1      25.128  11.972   1.160  0.00  0.00     0.050 A 
HETATM  106  C   UNK N   1      27.352  11.798   2.156  0.00  0.00     0.043 A 
HETATM  107  C   UNK N   1      25.152  10.601   0.892  0.00  0.00     0.066 A 
HETATM  108  C   UNK N   1      26.266   9.833   1.247  0.00  0.00     0.039 A 
HETATM  109  C   UNK N   1      27.362  10.429   1.878  0.00  0.00     0.033 A 
HETATM  110  N   UNK N   1      28.424  12.375   2.776  0.00  0.00    -0.353 N 
ATOM    111  HN  UNK N   1      29.231  11.811   3.044  1.00  0.00     0.166 HD
HETATM  112  O   UNK N   1      29.411  17.987   4.016  0.00  0.00    -0.267 OA
BRANCH 103 113
HETATM  113  C   UNK N   1      25.054  14.846   1.695  0.00  0.00     0.036 C 
HETATM  114  C   UNK N   1      24.198  15.157   2.910  0.00  0.00     0.010 C 
ENDBRANCH 103 113
BRANCH 107 115
HETATM  115  O   UNK N   1      24.102  10.018   0.291  0.00  0.00    -0.361 OA
HETATM  116  H   UNK N   1      23.403  10.543  -0.048  0.00  0.00     0.217 HD
ENDBRANCH 107 115
BRANCH  89 117
HETATM  117  C   UNK N   1      32.695  14.055   6.436  0.00  0.00     0.050 C 
HETATM  118  C   UNK N   1      33.099  12.586   6.362  0.00  0.00     0.009 C 
ENDBRANCH  89 117
ENDBRANCH  88  89
ENDBRANCH  86  88
ENDBRANCH  85  86
ENDBRANCH  84  85
ENDBRANCH  81  84
ENDBRANCH  75  78
ENDBRANCH  73  74
BRANCH  73 119
HETATM  119  C   UNK N   1      38.007  12.561  11.589  0.00  0.00     0.036 C 
BRANCH 119 120
HETATM  120  C   UNK N   1      37.326  11.369  12.252  0.00  0.00     0.021 C 
BRANCH 120 121
HETATM  121  C   UNK N   1      36.222  11.820  13.185  0.00  0.00     0.111 C 
BRANCH 121 122
HETATM  122  N   UNK N   1      35.047  10.989  12.998  0.00  0.00    -0.430 N 
HETATM  123  H   UNK N   1      34.354  10.779  13.716  0.00  0.00     0.149 HD
HETATM  124  H   UNK N   1      34.903  10.582  12.074  0.00  0.00     0.149 HD
ENDBRANCH 121 122
ENDBRANCH 120 121
ENDBRANCH 119 120
ENDBRANCH  73 119
ENDBRANCH  70  73
ENDBRANCH  68  69
ENDBRANCH  67  68
ENDBRANCH  66  67
ENDBRANCH   1  66
TORSDOF 57
ENDMDL
