MODEL 1
REMARK VINA RESULT:      -7.6      0.000      0.000
REMARK  12 active torsions:
REMARK  status: ('A' for Active; 'I' for Inactive)
REMARK    1  A    between atoms: C_2  and  C_3 
REMARK    2  A    between atoms: C_3  and  C_4 
REMARK    3  A    between atoms: C_4  and  C_5 
REMARK    4  A    between atoms: C_5  and  N_6 
REMARK       I    between atoms: N_6  and  C_7 
REMARK    5  A    between atoms: C_7  and  C_9 
REMARK    6  A    between atoms: C_15  and  C_12 
REMARK    7  A    between atoms: C_20  and  C_21 
REMARK    8  A    between atoms: C_21  and  C_22 
REMARK    9  A    between atoms: C_27  and  C_28 
REMARK   10  A    between atoms: C_28  and  C_29 
REMARK   11  A    between atoms: C_29  and  C_30 
REMARK   12  A    between atoms: C_30  and  O_32 
ROOT
HETATM    1  C   UNK N   1      20.604  16.189   3.982  0.00  0.00     0.097 C 
HETATM    2  C   UNK N   1      21.073  15.279   2.821  0.00  0.00     0.134 C 
HETATM    3  C   UNK N   1      22.573  15.445   2.576  0.00  0.00     0.035 C 
HETATM    4  C   UNK N   1      23.145  14.788   3.813  0.00  0.00     0.035 C 
HETATM    5  C   UNK N   1      21.875  14.262   4.472  0.00  0.00     0.127 C 
HETATM    6  C   UNK N   1      21.128  15.391   5.155  0.00  0.00     0.033 C 
HETATM    7  O   UNK N   1      21.028  14.001   3.387  0.00  0.00    -0.379 OA
ENDROOT
BRANCH   1   8
HETATM    8  C   UNK N   1      21.034  17.627   3.868  0.00  0.00     0.131 A 
HETATM    9  O   UNK N   1      20.218  18.656   3.775  0.00  0.00    -0.307 OA
HETATM   10  C   UNK N   1      20.943  19.733   3.552  0.00  0.00     0.179 A 
HETATM   11  C   UNK N   1      22.263  19.316   3.524  0.00  0.00     0.125 A 
HETATM   12  N   UNK N   1      22.314  17.999   3.721  0.00  0.00    -0.334 N 
ATOM     13  HN  UNK N   1      23.143  17.405   3.753  1.00  0.00     0.168 HD
BRANCH  11  14
HETATM   14  C   UNK N   1      23.452  20.096   3.190  0.00  0.00     0.270 C 
HETATM   15  N   UNK N   1      24.680  19.558   3.331  0.00  0.00    -0.356 N 
HETATM   16  H   UNK N   1      24.767  18.601   3.549  0.00  0.00     0.162 HD
HETATM   17  O   UNK N   1      23.326  21.276   2.880  0.00  0.00    -0.266 OA
BRANCH  15  18
HETATM   18  C   UNK N   1      25.864  20.359   3.168  0.00  0.00     0.123 C 
BRANCH  18  19
HETATM   19  C   UNK N   1      27.030  19.682   3.848  0.00  0.00     0.020 C 
BRANCH  19  20
HETATM   20  C   UNK N   1      26.711  19.495   5.318  0.00  0.00     0.001 C 
BRANCH  20  21
HETATM   21  C   UNK N   1      27.573  20.413   6.160  0.00  0.00    -0.004 C 
HETATM   22  C   UNK N   1      26.813  21.681   6.500  0.00  0.00     0.005 C 
ENDBRANCH  20  21
ENDBRANCH  19  20
ENDBRANCH  18  19
ENDBRANCH  15  18
ENDBRANCH  11  14
ENDBRANCH   1   8
BRANCH   6  23
HETATM   23  C   UNK N   1      21.782  16.091   6.338  0.00  0.00     0.047 C 
BRANCH  23  24
HETATM   24  C   UNK N   1      21.496  15.267   7.554  0.00  0.00    -0.051 A 
HETATM   25  C   UNK N   1      22.422  14.292   7.940  0.00  0.00     0.007 A 
HETATM   26  C   UNK N   1      22.205  13.529   9.090  0.00  0.00     0.001 A 
HETATM   27  C   UNK N   1      21.058  13.735   9.860  0.00  0.00     0.001 A 
HETATM   28  C   UNK N   1      20.122  14.701   9.480  0.00  0.00     0.007 A 
HETATM   29  C   UNK N   1      20.332  15.475   8.331  0.00  0.00    -0.051 A 
BRANCH  29  30
HETATM   30  C   UNK N   1      19.311  16.504   7.932  0.00  0.00     0.049 C 
BRANCH  30  31
HETATM   31  C   UNK N   1      18.939  17.412   9.097  0.00  0.00     0.114 C 
BRANCH  31  32
HETATM   32  C   UNK N   1      19.793  18.641   9.099  0.00  0.00     0.139 C 
HETATM   33  O   UNK N   1      19.868  19.325  10.106  0.00  0.00    -0.650 OA
BRANCH  32  34
HETATM   34  O   UNK N   1      20.505  18.981   8.010  0.00  0.00    -0.776 OA
HETATM   35  H   UNK N   1      20.067  19.240   7.223  0.00  0.00     0.167 HD
ENDBRANCH  32  34
ENDBRANCH  31  32
ENDBRANCH  30  31
ENDBRANCH  29  30
ENDBRANCH  23  24
ENDBRANCH   6  23
TORSDOF 12
ENDMDL
MODEL 2
REMARK VINA RESULT:      -7.4      7.949     10.996
REMARK  12 active torsions:
REMARK  status: ('A' for Active; 'I' for Inactive)
REMARK    1  A    between atoms: C_2  and  C_3 
REMARK    2  A    between atoms: C_3  and  C_4 
REMARK    3  A    between atoms: C_4  and  C_5 
REMARK    4  A    between atoms: C_5  and  N_6 
REMARK       I    between atoms: N_6  and  C_7 
REMARK    5  A    between atoms: C_7  and  C_9 
REMARK    6  A    between atoms: C_15  and  C_12 
REMARK    7  A    between atoms: C_20  and  C_21 
REMARK    8  A    between atoms: C_21  and  C_22 
REMARK    9  A    between atoms: C_27  and  C_28 
REMARK   10  A    between atoms: C_28  and  C_29 
REMARK   11  A    between atoms: C_29  and  C_30 
REMARK   12  A    between atoms: C_30  and  O_32 
ROOT
HETATM    1  C   UNK N   1      32.023  17.544   4.949  0.00  0.00     0.097 C 
HETATM    2  C   UNK N   1      32.760  16.784   3.818  0.00  0.00     0.134 C 
HETATM    3  C   UNK N   1      32.549  15.277   3.955  0.00  0.00     0.035 C 
HETATM    4  C   UNK N   1      31.086  15.152   3.588  0.00  0.00     0.035 C 
HETATM    5  C   UNK N   1      30.766  16.590   3.194  0.00  0.00     0.127 C 
HETATM    6  C   UNK N   1      30.605  17.453   4.430  0.00  0.00     0.033 C 
HETATM    7  O   UNK N   1      31.983  17.069   2.692  0.00  0.00    -0.379 OA
ENDROOT
BRANCH   1   8
HETATM    8  C   UNK N   1      32.294  17.026   6.336  0.00  0.00     0.131 A 
HETATM    9  O   UNK N   1      31.391  16.509   7.141  0.00  0.00    -0.307 OA
HETATM   10  C   UNK N   1      31.959  16.296   8.310  0.00  0.00     0.179 A 
HETATM   11  C   UNK N   1      33.277  16.700   8.182  0.00  0.00     0.125 A 
HETATM   12  N   UNK N   1      33.481  17.156   6.946  0.00  0.00    -0.334 N 
ATOM     13  HN  UNK N   1      34.347  17.522   6.552  1.00  0.00     0.168 HD
BRANCH  11  14
HETATM   14  C   UNK N   1      34.302  16.788   9.219  0.00  0.00     0.270 C 
HETATM   15  N   UNK N   1      34.378  15.846  10.180  0.00  0.00    -0.356 N 
HETATM   16  H   UNK N   1      33.818  15.039  10.113  0.00  0.00     0.162 HD
HETATM   17  O   UNK N   1      35.022  17.780   9.266  0.00  0.00    -0.266 OA
BRANCH  15  18
HETATM   18  C   UNK N   1      35.267  16.001  11.301  0.00  0.00     0.123 C 
BRANCH  18  19
HETATM   19  C   UNK N   1      35.370  14.694  12.050  0.00  0.00     0.020 C 
BRANCH  19  20
HETATM   20  C   UNK N   1      36.282  14.874  13.247  0.00  0.00     0.001 C 
BRANCH  20  21
HETATM   21  C   UNK N   1      36.092  13.732  14.224  0.00  0.00    -0.004 C 
HETATM   22  C   UNK N   1      35.623  12.488  13.493  0.00  0.00     0.005 C 
ENDBRANCH  20  21
ENDBRANCH  19  20
ENDBRANCH  18  19
ENDBRANCH  15  18
ENDBRANCH  11  14
ENDBRANCH   1   8
BRANCH   6  23
HETATM   23  C   UNK N   1      29.451  17.165   5.379  0.00  0.00     0.047 C 
BRANCH  23  24
HETATM   24  C   UNK N   1      28.550  18.360   5.359  0.00  0.00    -0.051 A 
HETATM   25  C   UNK N   1      27.914  18.704   4.161  0.00  0.00     0.007 A 
HETATM   26  C   UNK N   1      27.040  19.792   4.114  0.00  0.00     0.001 A 
HETATM   27  C   UNK N   1      26.797  20.546   5.265  0.00  0.00     0.001 A 
HETATM   28  C   UNK N   1      27.434  20.216   6.466  0.00  0.00     0.007 A 
HETATM   29  C   UNK N   1      28.310  19.124   6.525  0.00  0.00    -0.051 A 
BRANCH  29  30
HETATM   30  C   UNK N   1      28.992  18.789   7.822  0.00  0.00     0.049 C 
BRANCH  30  31
HETATM   31  C   UNK N   1      28.151  17.848   8.675  0.00  0.00     0.114 C 
BRANCH  31  32
HETATM   32  C   UNK N   1      28.810  17.606   9.997  0.00  0.00     0.139 C 
HETATM   33  O   UNK N   1      28.562  16.588  10.621  0.00  0.00    -0.650 OA
BRANCH  32  34
HETATM   34  O   UNK N   1      29.699  18.486  10.489  0.00  0.00    -0.776 OA
HETATM   35  H   UNK N   1      29.426  19.137  11.105  0.00  0.00     0.167 HD
ENDBRANCH  32  34
ENDBRANCH  31  32
ENDBRANCH  30  31
ENDBRANCH  29  30
ENDBRANCH  23  24
ENDBRANCH   6  23
TORSDOF 12
ENDMDL
MODEL 3
REMARK VINA RESULT:      -7.4      7.759     10.866
REMARK  12 active torsions:
REMARK  status: ('A' for Active; 'I' for Inactive)
REMARK    1  A    between atoms: C_2  and  C_3 
REMARK    2  A    between atoms: C_3  and  C_4 
REMARK    3  A    between atoms: C_4  and  C_5 
REMARK    4  A    between atoms: C_5  and  N_6 
REMARK       I    between atoms: N_6  and  C_7 
REMARK    5  A    between atoms: C_7  and  C_9 
REMARK    6  A    between atoms: C_15  and  C_12 
REMARK    7  A    between atoms: C_20  and  C_21 
REMARK    8  A    between atoms: C_21  and  C_22 
REMARK    9  A    between atoms: C_27  and  C_28 
REMARK   10  A    between atoms: C_28  and  C_29 
REMARK   11  A    between atoms: C_29  and  C_30 
REMARK   12  A    between atoms: C_30  and  O_32 
ROOT
HETATM    1  C   UNK N   1      30.134  16.599   8.560  0.00  0.00     0.097 C 
HETATM    2  C   UNK N   1      29.395  17.196   9.784  0.00  0.00     0.134 C 
HETATM    3  C   UNK N   1      29.630  18.703   9.874  0.00  0.00     0.035 C 
HETATM    4  C   UNK N   1      28.831  19.195   8.686  0.00  0.00     0.035 C 
HETATM    5  C   UNK N   1      28.192  17.894   8.213  0.00  0.00     0.127 C 
HETATM    6  C   UNK N   1      29.202  17.052   7.458  0.00  0.00     0.033 C 
HETATM    7  O   UNK N   1      28.054  17.150   9.392  0.00  0.00    -0.379 OA
ENDROOT
BRANCH   1   8
HETATM    8  C   UNK N   1      31.585  16.984   8.452  0.00  0.00     0.131 A 
HETATM    9  O   UNK N   1      32.133  17.586   7.418  0.00  0.00    -0.307 OA
HETATM   10  C   UNK N   1      33.434  17.637   7.617  0.00  0.00     0.179 A 
HETATM   11  C   UNK N   1      33.663  17.042   8.847  0.00  0.00     0.125 A 
HETATM   12  N   UNK N   1      32.504  16.635   9.363  0.00  0.00    -0.334 N 
ATOM     13  HN  UNK N   1      32.350  16.164  10.254  1.00  0.00     0.168 HD
BRANCH  11  14
HETATM   14  C   UNK N   1      34.944  16.734   9.478  0.00  0.00     0.270 C 
HETATM   15  N   UNK N   1      35.380  15.460   9.542  0.00  0.00    -0.356 N 
HETATM   16  H   UNK N   1      34.889  14.756   9.060  0.00  0.00     0.162 HD
HETATM   17  O   UNK N   1      35.566  17.630  10.038  0.00  0.00    -0.266 OA
BRANCH  15  18
HETATM   18  C   UNK N   1      36.552  15.115  10.302  0.00  0.00     0.123 C 
BRANCH  18  19
HETATM   19  C   UNK N   1      36.201  14.057  11.321  0.00  0.00     0.020 C 
BRANCH  19  20
HETATM   20  C   UNK N   1      36.091  14.699  12.689  0.00  0.00     0.001 C 
BRANCH  20  21
HETATM   21  C   UNK N   1      36.332  13.666  13.771  0.00  0.00    -0.004 C 
HETATM   22  C   UNK N   1      36.801  14.341  15.046  0.00  0.00     0.005 C 
ENDBRANCH  20  21
ENDBRANCH  19  20
ENDBRANCH  18  19
ENDBRANCH  15  18
ENDBRANCH  11  14
ENDBRANCH   1   8
BRANCH   6  23
HETATM   23  C   UNK N   1      29.758  17.579   6.143  0.00  0.00     0.047 C 
BRANCH  23  24
HETATM   24  C   UNK N   1      28.829  17.134   5.058  0.00  0.00    -0.051 A 
HETATM   25  C   UNK N   1      28.862  15.797   4.649  0.00  0.00     0.007 A 
HETATM   26  C   UNK N   1      27.985  15.339   3.663  0.00  0.00     0.001 A 
HETATM   27  C   UNK N   1      27.068  16.216   3.079  0.00  0.00     0.001 A 
HETATM   28  C   UNK N   1      27.031  17.557   3.475  0.00  0.00     0.007 A 
HETATM   29  C   UNK N   1      27.904  18.026   4.465  0.00  0.00    -0.051 A 
BRANCH  29  30
HETATM   30  C   UNK N   1      27.856  19.472   4.873  0.00  0.00     0.049 C 
BRANCH  30  31
HETATM   31  C   UNK N   1      26.521  19.835   5.510  0.00  0.00     0.114 C 
BRANCH  31  32
HETATM   32  C   UNK N   1      26.694  20.950   6.493  0.00  0.00     0.139 C 
HETATM   33  O   UNK N   1      27.506  21.833   6.273  0.00  0.00    -0.650 OA
BRANCH  32  34
HETATM   34  O   UNK N   1      25.938  21.006   7.604  0.00  0.00    -0.776 OA
HETATM   35  H   UNK N   1      26.056  21.702   8.220  0.00  0.00     0.167 HD
ENDBRANCH  32  34
ENDBRANCH  31  32
ENDBRANCH  30  31
ENDBRANCH  29  30
ENDBRANCH  23  24
ENDBRANCH   6  23
TORSDOF 12
ENDMDL
MODEL 4
REMARK VINA RESULT:      -7.2     13.565     15.443
REMARK  12 active torsions:
REMARK  status: ('A' for Active; 'I' for Inactive)
REMARK    1  A    between atoms: C_2  and  C_3 
REMARK    2  A    between atoms: C_3  and  C_4 
REMARK    3  A    between atoms: C_4  and  C_5 
REMARK    4  A    between atoms: C_5  and  N_6 
REMARK       I    between atoms: N_6  and  C_7 
REMARK    5  A    between atoms: C_7  and  C_9 
REMARK    6  A    between atoms: C_15  and  C_12 
REMARK    7  A    between atoms: C_20  and  C_21 
REMARK    8  A    between atoms: C_21  and  C_22 
REMARK    9  A    between atoms: C_27  and  C_28 
REMARK   10  A    between atoms: C_28  and  C_29 
REMARK   11  A    between atoms: C_29  and  C_30 
REMARK   12  A    between atoms: C_30  and  O_32 
ROOT
HETATM    1  C   UNK N   1      26.564  25.275  -4.513  0.00  0.00     0.097 C 
HETATM    2  C   UNK N   1      25.988  26.712  -4.472  0.00  0.00     0.134 C 
HETATM    3  C   UNK N   1      26.947  27.697  -5.140  0.00  0.00     0.035 C 
HETATM    4  C   UNK N   1      26.819  27.291  -6.592  0.00  0.00     0.035 C 
HETATM    5  C   UNK N   1      25.723  26.234  -6.498  0.00  0.00     0.127 C 
HETATM    6  C   UNK N   1      26.288  24.934  -5.961  0.00  0.00     0.033 C 
HETATM    7  O   UNK N   1      24.951  26.660  -5.410  0.00  0.00    -0.379 OA
ENDROOT
BRANCH   1   8
HETATM    8  C   UNK N   1      27.982  25.152  -4.024  0.00  0.00     0.131 A 
HETATM    9  O   UNK N   1      28.954  25.995  -4.301  0.00  0.00    -0.307 OA
HETATM   10  C   UNK N   1      30.076  25.497  -3.822  0.00  0.00     0.179 A 
HETATM   11  C   UNK N   1      29.742  24.296  -3.218  0.00  0.00     0.125 A 
HETATM   12  N   UNK N   1      28.433  24.085  -3.348  0.00  0.00    -0.334 N 
ATOM     13  HN  UNK N   1      27.893  23.290  -3.008  1.00  0.00     0.168 HD
BRANCH  11  14
HETATM   14  C   UNK N   1      30.636  23.293  -2.644  0.00  0.00     0.270 C 
HETATM   15  N   UNK N   1      31.456  22.579  -3.441  0.00  0.00    -0.356 N 
HETATM   16  H   UNK N   1      31.534  22.818  -4.393  0.00  0.00     0.162 HD
HETATM   17  O   UNK N   1      30.557  23.036  -1.447  0.00  0.00    -0.266 OA
BRANCH  15  18
HETATM   18  C   UNK N   1      32.220  21.476  -2.920  0.00  0.00     0.123 C 
BRANCH  18  19
HETATM   19  C   UNK N   1      33.532  21.376  -3.660  0.00  0.00     0.020 C 
BRANCH  19  20
HETATM   20  C   UNK N   1      33.879  19.915  -3.864  0.00  0.00     0.001 C 
BRANCH  20  21
HETATM   21  C   UNK N   1      33.634  19.516  -5.305  0.00  0.00    -0.004 C 
HETATM   22  C   UNK N   1      33.765  20.723  -6.214  0.00  0.00     0.005 C 
ENDBRANCH  20  21
ENDBRANCH  19  20
ENDBRANCH  18  19
ENDBRANCH  15  18
ENDBRANCH  11  14
ENDBRANCH   1   8
BRANCH   6  23
HETATM   23  C   UNK N   1      27.321  24.185  -6.790  0.00  0.00     0.047 C 
BRANCH  23  24
HETATM   24  C   UNK N   1      26.695  22.895  -7.218  0.00  0.00    -0.051 A 
HETATM   25  C   UNK N   1      25.387  22.613  -6.812  0.00  0.00     0.007 A 
HETATM   26  C   UNK N   1      24.759  21.434  -7.222  0.00  0.00     0.001 A 
HETATM   27  C   UNK N   1      25.438  20.528  -8.040  0.00  0.00     0.001 A 
HETATM   28  C   UNK N   1      26.749  20.796  -8.446  0.00  0.00     0.007 A 
HETATM   29  C   UNK N   1      27.386  21.977  -8.043  0.00  0.00    -0.051 A 
BRANCH  29  30
HETATM   30  C   UNK N   1      28.799  22.244  -8.482  0.00  0.00     0.049 C 
BRANCH  30  31
HETATM   31  C   UNK N   1      29.768  21.209  -7.928  0.00  0.00     0.114 C 
BRANCH  31  32
HETATM   32  C   UNK N   1      30.186  21.570  -6.537  0.00  0.00     0.139 C 
HETATM   33  O   UNK N   1      30.200  20.716  -5.666  0.00  0.00    -0.650 OA
BRANCH  32  34
HETATM   34  O   UNK N   1      30.576  22.824  -6.244  0.00  0.00    -0.776 OA
HETATM   35  H   UNK N   1      30.633  23.103  -5.351  0.00  0.00     0.167 HD
ENDBRANCH  32  34
ENDBRANCH  31  32
ENDBRANCH  30  31
ENDBRANCH  29  30
ENDBRANCH  23  24
ENDBRANCH   6  23
TORSDOF 12
ENDMDL
MODEL 5
REMARK VINA RESULT:      -7.2     12.797     15.077
REMARK  12 active torsions:
REMARK  status: ('A' for Active; 'I' for Inactive)
REMARK    1  A    between atoms: C_2  and  C_3 
REMARK    2  A    between atoms: C_3  and  C_4 
REMARK    3  A    between atoms: C_4  and  C_5 
REMARK    4  A    between atoms: C_5  and  N_6 
REMARK       I    between atoms: N_6  and  C_7 
REMARK    5  A    between atoms: C_7  and  C_9 
REMARK    6  A    between atoms: C_15  and  C_12 
REMARK    7  A    between atoms: C_20  and  C_21 
REMARK    8  A    between atoms: C_21  and  C_22 
REMARK    9  A    between atoms: C_27  and  C_28 
REMARK   10  A    between atoms: C_28  and  C_29 
REMARK   11  A    between atoms: C_29  and  C_30 
REMARK   12  A    between atoms: C_30  and  O_32 
ROOT
HETATM    1  C   UNK N   1      27.381  23.506  -8.092  0.00  0.00     0.097 C 
HETATM    2  C   UNK N   1      26.945  22.658  -9.313  0.00  0.00     0.134 C 
HETATM    3  C   UNK N   1      26.730  21.200  -8.908  0.00  0.00     0.035 C 
HETATM    4  C   UNK N   1      25.474  21.312  -8.071  0.00  0.00     0.035 C 
HETATM    5  C   UNK N   1      25.139  22.789  -8.253  0.00  0.00     0.127 C 
HETATM    6  C   UNK N   1      26.047  23.647  -7.393  0.00  0.00     0.033 C 
HETATM    7  O   UNK N   1      25.630  23.079  -9.532  0.00  0.00    -0.379 OA
ENDROOT
BRANCH   1   8
HETATM    8  C   UNK N   1      28.526  22.930  -7.303  0.00  0.00     0.131 A 
HETATM    9  O   UNK N   1      28.473  21.827  -6.587  0.00  0.00    -0.307 OA
HETATM   10  C   UNK N   1      29.609  21.710  -5.931  0.00  0.00     0.179 A 
HETATM   11  C   UNK N   1      30.381  22.802  -6.291  0.00  0.00     0.125 A 
HETATM   12  N   UNK N   1      29.699  23.561  -7.148  0.00  0.00    -0.334 N 
ATOM     13  HN  UNK N   1      30.002  24.429  -7.589  1.00  0.00     0.168 HD
BRANCH  11  14
HETATM   14  C   UNK N   1      31.676  23.211  -5.754  0.00  0.00     0.270 C 
HETATM   15  N   UNK N   1      32.814  22.678  -6.244  0.00  0.00    -0.356 N 
HETATM   16  H   UNK N   1      32.774  22.101  -7.040  0.00  0.00     0.162 HD
HETATM   17  O   UNK N   1      31.712  23.964  -4.787  0.00  0.00    -0.266 OA
BRANCH  15  18
HETATM   18  C   UNK N   1      34.084  22.940  -5.620  0.00  0.00     0.123 C 
BRANCH  18  19
HETATM   19  C   UNK N   1      34.926  21.687  -5.642  0.00  0.00     0.020 C 
BRANCH  19  20
HETATM   20  C   UNK N   1      35.176  21.229  -4.219  0.00  0.00     0.001 C 
BRANCH  20  21
HETATM   21  C   UNK N   1      34.040  20.345  -3.748  0.00  0.00    -0.004 C 
HETATM   22  C   UNK N   1      33.284  21.019  -2.618  0.00  0.00     0.005 C 
ENDBRANCH  20  21
ENDBRANCH  19  20
ENDBRANCH  18  19
ENDBRANCH  15  18
ENDBRANCH  11  14
ENDBRANCH   1   8
BRANCH   6  23
HETATM   23  C   UNK N   1      25.950  23.528  -5.880  0.00  0.00     0.047 C 
BRANCH  23  24
HETATM   24  C   UNK N   1      25.896  24.918  -5.328  0.00  0.00    -0.051 A 
HETATM   25  C   UNK N   1      25.325  25.930  -6.107  0.00  0.00     0.007 A 
HETATM   26  C   UNK N   1      25.226  27.232  -5.610  0.00  0.00     0.001 A 
HETATM   27  C   UNK N   1      25.700  27.531  -4.330  0.00  0.00     0.001 A 
HETATM   28  C   UNK N   1      26.280  26.529  -3.546  0.00  0.00     0.007 A 
HETATM   29  C   UNK N   1      26.381  25.219  -4.034  0.00  0.00    -0.051 A 
BRANCH  29  30
HETATM   30  C   UNK N   1      27.015  24.156  -3.180  0.00  0.00     0.049 C 
BRANCH  30  31
HETATM   31  C   UNK N   1      28.523  24.096  -3.380  0.00  0.00     0.114 C 
BRANCH  31  32
HETATM   32  C   UNK N   1      29.181  23.410  -2.224  0.00  0.00     0.139 C 
HETATM   33  O   UNK N   1      28.497  22.871  -1.370  0.00  0.00    -0.650 OA
BRANCH  32  34
HETATM   34  O   UNK N   1      30.521  23.357  -2.133  0.00  0.00    -0.776 OA
HETATM   35  H   UNK N   1      30.928  22.952  -1.392  0.00  0.00     0.167 HD
ENDBRANCH  32  34
ENDBRANCH  31  32
ENDBRANCH  30  31
ENDBRANCH  29  30
ENDBRANCH  23  24
ENDBRANCH   6  23
TORSDOF 12
ENDMDL
MODEL 6
REMARK VINA RESULT:      -7.2      6.100     10.699
REMARK  12 active torsions:
REMARK  status: ('A' for Active; 'I' for Inactive)
REMARK    1  A    between atoms: C_2  and  C_3 
REMARK    2  A    between atoms: C_3  and  C_4 
REMARK    3  A    between atoms: C_4  and  C_5 
REMARK    4  A    between atoms: C_5  and  N_6 
REMARK       I    between atoms: N_6  and  C_7 
REMARK    5  A    between atoms: C_7  and  C_9 
REMARK    6  A    between atoms: C_15  and  C_12 
REMARK    7  A    between atoms: C_20  and  C_21 
REMARK    8  A    between atoms: C_21  and  C_22 
REMARK    9  A    between atoms: C_27  and  C_28 
REMARK   10  A    between atoms: C_28  and  C_29 
REMARK   11  A    between atoms: C_29  and  C_30 
REMARK   12  A    between atoms: C_30  and  O_32 
ROOT
HETATM    1  C   UNK N   1      28.548  17.918   7.001  0.00  0.00     0.097 C 
HETATM    2  C   UNK N   1      28.161  18.613   8.330  0.00  0.00     0.134 C 
HETATM    3  C   UNK N   1      28.031  17.588   9.457  0.00  0.00     0.035 C 
HETATM    4  C   UNK N   1      29.478  17.190   9.657  0.00  0.00     0.035 C 
HETATM    5  C   UNK N   1      30.174  18.147   8.695  0.00  0.00     0.127 C 
HETATM    6  C   UNK N   1      30.016  17.667   7.266  0.00  0.00     0.033 C 
HETATM    7  O   UNK N   1      29.339  19.272   8.693  0.00  0.00    -0.379 OA
ENDROOT
BRANCH   1   8
HETATM    8  C   UNK N   1      27.691  16.735   6.637  0.00  0.00     0.131 A 
HETATM    9  O   UNK N   1      27.638  16.176   5.446  0.00  0.00    -0.307 OA
HETATM   10  C   UNK N   1      26.687  15.265   5.464  0.00  0.00     0.179 A 
HETATM   11  C   UNK N   1      26.157  15.280   6.743  0.00  0.00     0.125 A 
HETATM   12  N   UNK N   1      26.788  16.201   7.472  0.00  0.00    -0.334 N 
ATOM     13  HN  UNK N   1      26.621  16.445   8.448  1.00  0.00     0.168 HD
BRANCH  11  14
HETATM   14  C   UNK N   1      24.999  14.550   7.252  0.00  0.00     0.270 C 
HETATM   15  N   UNK N   1      25.169  13.449   8.011  0.00  0.00    -0.356 N 
HETATM   16  H   UNK N   1      26.074  13.207   8.317  0.00  0.00     0.162 HD
HETATM   17  O   UNK N   1      23.875  14.888   6.896  0.00  0.00    -0.266 OA
BRANCH  15  18
HETATM   18  C   UNK N   1      24.051  12.623   8.381  0.00  0.00     0.123 C 
BRANCH  18  19
HETATM   19  C   UNK N   1      24.278  12.052   9.760  0.00  0.00     0.020 C 
BRANCH  19  20
HETATM   20  C   UNK N   1      22.987  11.443  10.268  0.00  0.00     0.001 C 
BRANCH  20  21
HETATM   21  C   UNK N   1      22.445  12.257  11.424  0.00  0.00    -0.004 C 
HETATM   22  C   UNK N   1      23.141  11.866  12.714  0.00  0.00     0.005 C 
ENDBRANCH  20  21
ENDBRANCH  19  20
ENDBRANCH  18  19
ENDBRANCH  15  18
ENDBRANCH  11  14
ENDBRANCH   1   8
BRANCH   6  23
HETATM   23  C   UNK N   1      30.661  16.350   6.859  0.00  0.00     0.047 C 
BRANCH  23  24
HETATM   24  C   UNK N   1      31.376  16.587   5.566  0.00  0.00    -0.051 A 
HETATM   25  C   UNK N   1      30.753  16.211   4.372  0.00  0.00     0.007 A 
HETATM   26  C   UNK N   1      31.375  16.449   3.145  0.00  0.00     0.001 A 
HETATM   27  C   UNK N   1      32.629  17.065   3.104  0.00  0.00     0.001 A 
HETATM   28  C   UNK N   1      33.265  17.438   4.292  0.00  0.00     0.007 A 
HETATM   29  C   UNK N   1      32.647  17.207   5.528  0.00  0.00    -0.051 A 
BRANCH  29  30
HETATM   30  C   UNK N   1      33.350  17.608   6.795  0.00  0.00     0.049 C 
BRANCH  30  31
HETATM   31  C   UNK N   1      34.352  16.552   7.243  0.00  0.00     0.114 C 
BRANCH  31  32
HETATM   32  C   UNK N   1      34.358  16.431   8.735  0.00  0.00     0.139 C 
HETATM   33  O   UNK N   1      35.303  15.904   9.297  0.00  0.00    -0.650 OA
BRANCH  32  34
HETATM   34  O   UNK N   1      33.342  16.926   9.465  0.00  0.00    -0.776 OA
HETATM   35  H   UNK N   1      33.433  17.751   9.899  0.00  0.00     0.167 HD
ENDBRANCH  32  34
ENDBRANCH  31  32
ENDBRANCH  30  31
ENDBRANCH  29  30
ENDBRANCH  23  24
ENDBRANCH   6  23
TORSDOF 12
ENDMDL
MODEL 7
REMARK VINA RESULT:      -7.1      8.567     11.671
REMARK  12 active torsions:
REMARK  status: ('A' for Active; 'I' for Inactive)
REMARK    1  A    between atoms: C_2  and  C_3 
REMARK    2  A    between atoms: C_3  and  C_4 
REMARK    3  A    between atoms: C_4  and  C_5 
REMARK    4  A    between atoms: C_5  and  N_6 
REMARK       I    between atoms: N_6  and  C_7 
REMARK    5  A    between atoms: C_7  and  C_9 
REMARK    6  A    between atoms: C_15  and  C_12 
REMARK    7  A    between atoms: C_20  and  C_21 
REMARK    8  A    between atoms: C_21  and  C_22 
REMARK    9  A    between atoms: C_27  and  C_28 
REMARK   10  A    between atoms: C_28  and  C_29 
REMARK   11  A    between atoms: C_29  and  C_30 
REMARK   12  A    between atoms: C_30  and  O_32 
ROOT
HETATM    1  C   UNK N   1      32.841  17.462   5.497  0.00  0.00     0.097 C 
HETATM    2  C   UNK N   1      33.224  17.323   4.003  0.00  0.00     0.134 C 
HETATM    3  C   UNK N   1      33.469  15.858   3.642  0.00  0.00     0.035 C 
HETATM    4  C   UNK N   1      32.063  15.301   3.715  0.00  0.00     0.035 C 
HETATM    5  C   UNK N   1      31.265  16.573   3.983  0.00  0.00     0.127 C 
HETATM    6  C   UNK N   1      31.406  16.989   5.434  0.00  0.00     0.033 C 
HETATM    7  O   UNK N   1      32.015  17.569   3.346  0.00  0.00    -0.379 OA
ENDROOT
BRANCH   1   8
HETATM    8  C   UNK N   1      33.768  16.758   6.452  0.00  0.00     0.131 A 
HETATM    9  O   UNK N   1      34.300  15.571   6.254  0.00  0.00    -0.307 OA
HETATM   10  C   UNK N   1      34.937  15.220   7.352  0.00  0.00     0.179 A 
HETATM   11  C   UNK N   1      34.783  16.269   8.244  0.00  0.00     0.125 A 
HETATM   12  N   UNK N   1      34.050  17.227   7.676  0.00  0.00    -0.334 N 
ATOM     13  HN  UNK N   1      33.768  18.118   8.082  1.00  0.00     0.168 HD
BRANCH  11  14
HETATM   14  C   UNK N   1      35.191  16.333   9.645  0.00  0.00     0.270 C 
HETATM   15  N   UNK N   1      35.227  15.213  10.394  0.00  0.00    -0.356 N 
HETATM   16  H   UNK N   1      35.090  14.338   9.963  0.00  0.00     0.162 HD
HETATM   17  O   UNK N   1      35.400  17.427  10.158  0.00  0.00    -0.266 OA
BRANCH  15  18
HETATM   18  C   UNK N   1      35.464  15.276  11.812  0.00  0.00     0.123 C 
BRANCH  18  19
HETATM   19  C   UNK N   1      35.281  13.905  12.417  0.00  0.00     0.020 C 
BRANCH  19  20
HETATM   20  C   UNK N   1      36.463  13.592  13.312  0.00  0.00     0.001 C 
BRANCH  20  21
HETATM   21  C   UNK N   1      36.070  13.744  14.767  0.00  0.00    -0.004 C 
HETATM   22  C   UNK N   1      37.105  14.570  15.507  0.00  0.00     0.005 C 
ENDBRANCH  20  21
ENDBRANCH  19  20
ENDBRANCH  18  19
ENDBRANCH  15  18
ENDBRANCH  11  14
ENDBRANCH   1   8
BRANCH   6  23
HETATM   23  C   UNK N   1      30.843  16.078   6.515  0.00  0.00     0.047 C 
BRANCH  23  24
HETATM   24  C   UNK N   1      30.100  16.945   7.483  0.00  0.00    -0.051 A 
HETATM   25  C   UNK N   1      30.801  17.520   8.548  0.00  0.00     0.007 A 
HETATM   26  C   UNK N   1      30.147  18.362   9.451  0.00  0.00     0.001 A 
HETATM   27  C   UNK N   1      28.786  18.635   9.293  0.00  0.00     0.001 A 
HETATM   28  C   UNK N   1      28.074  18.061   8.236  0.00  0.00     0.007 A 
HETATM   29  C   UNK N   1      28.721  17.217   7.323  0.00  0.00    -0.051 A 
BRANCH  29  30
HETATM   30  C   UNK N   1      27.938  16.601   6.197  0.00  0.00     0.049 C 
BRANCH  30  31
HETATM   31  C   UNK N   1      27.059  17.626   5.494  0.00  0.00     0.114 C 
BRANCH  31  32
HETATM   32  C   UNK N   1      27.870  18.452   4.546  0.00  0.00     0.139 C 
HETATM   33  O   UNK N   1      28.162  19.600   4.839  0.00  0.00    -0.650 OA
BRANCH  32  34
HETATM   34  O   UNK N   1      28.306  17.931   3.385  0.00  0.00    -0.776 OA
HETATM   35  H   UNK N   1      28.717  18.480   2.747  0.00  0.00     0.167 HD
ENDBRANCH  32  34
ENDBRANCH  31  32
ENDBRANCH  30  31
ENDBRANCH  29  30
ENDBRANCH  23  24
ENDBRANCH   6  23
TORSDOF 12
ENDMDL
MODEL 8
REMARK VINA RESULT:      -7.1     12.706     15.784
REMARK  12 active torsions:
REMARK  status: ('A' for Active; 'I' for Inactive)
REMARK    1  A    between atoms: C_2  and  C_3 
REMARK    2  A    between atoms: C_3  and  C_4 
REMARK    3  A    between atoms: C_4  and  C_5 
REMARK    4  A    between atoms: C_5  and  N_6 
REMARK       I    between atoms: N_6  and  C_7 
REMARK    5  A    between atoms: C_7  and  C_9 
REMARK    6  A    between atoms: C_15  and  C_12 
REMARK    7  A    between atoms: C_20  and  C_21 
REMARK    8  A    between atoms: C_21  and  C_22 
REMARK    9  A    between atoms: C_27  and  C_28 
REMARK   10  A    between atoms: C_28  and  C_29 
REMARK   11  A    between atoms: C_29  and  C_30 
REMARK   12  A    between atoms: C_30  and  O_32 
ROOT
HETATM    1  C   UNK N   1      27.597  27.255  -5.662  0.00  0.00     0.097 C 
HETATM    2  C   UNK N   1      26.742  28.528  -5.443  0.00  0.00     0.134 C 
HETATM    3  C   UNK N   1      25.821  28.357  -4.235  0.00  0.00     0.035 C 
HETATM    4  C   UNK N   1      26.821  28.385  -3.099  0.00  0.00     0.035 C 
HETATM    5  C   UNK N   1      28.108  28.687  -3.858  0.00  0.00     0.127 C 
HETATM    6  C   UNK N   1      28.614  27.441  -4.558  0.00  0.00     0.033 C 
HETATM    7  O   UNK N   1      27.672  29.448  -4.950  0.00  0.00    -0.379 OA
ENDROOT
BRANCH   1   8
HETATM    8  C   UNK N   1      26.817  25.968  -5.685  0.00  0.00     0.131 A 
HETATM    9  O   UNK N   1      26.169  25.458  -4.658  0.00  0.00    -0.307 OA
HETATM   10  C   UNK N   1      25.724  24.268  -5.006  0.00  0.00     0.179 A 
HETATM   11  C   UNK N   1      26.122  24.072  -6.318  0.00  0.00     0.125 A 
HETATM   12  N   UNK N   1      26.805  25.137  -6.737  0.00  0.00    -0.334 N 
ATOM     13  HN  UNK N   1      27.226  25.287  -7.653  1.00  0.00     0.168 HD
BRANCH  11  14
HETATM   14  C   UNK N   1      25.991  22.867  -7.133  0.00  0.00     0.270 C 
HETATM   15  N   UNK N   1      27.064  22.086  -7.370  0.00  0.00    -0.356 N 
HETATM   16  H   UNK N   1      27.908  22.268  -6.897  0.00  0.00     0.162 HD
HETATM   17  O   UNK N   1      24.920  22.630  -7.683  0.00  0.00    -0.266 OA
BRANCH  15  18
HETATM   18  C   UNK N   1      26.994  20.992  -8.302  0.00  0.00     0.123 C 
BRANCH  18  19
HETATM   19  C   UNK N   1      28.387  20.622  -8.753  0.00  0.00     0.020 C 
BRANCH  19  20
HETATM   20  C   UNK N   1      28.952  19.572  -7.818  0.00  0.00     0.001 C 
BRANCH  20  21
HETATM   21  C   UNK N   1      29.907  20.211  -6.831  0.00  0.00    -0.004 C 
HETATM   22  C   UNK N   1      30.745  21.270  -7.521  0.00  0.00     0.005 C 
ENDBRANCH  20  21
ENDBRANCH  19  20
ENDBRANCH  18  19
ENDBRANCH  15  18
ENDBRANCH  11  14
ENDBRANCH   1   8
BRANCH   6  23
HETATM   23  C   UNK N   1      29.064  26.258  -3.714  0.00  0.00     0.047 C 
BRANCH  23  24
HETATM   24  C   UNK N   1      30.361  25.775  -4.283  0.00  0.00    -0.051 A 
HETATM   25  C   UNK N   1      31.426  26.676  -4.393  0.00  0.00     0.007 A 
HETATM   26  C   UNK N   1      32.661  26.251  -4.887  0.00  0.00     0.001 A 
HETATM   27  C   UNK N   1      32.840  24.921  -5.276  0.00  0.00     0.001 A 
HETATM   28  C   UNK N   1      31.781  24.013  -5.177  0.00  0.00     0.007 A 
HETATM   29  C   UNK N   1      30.539  24.429  -4.679  0.00  0.00    -0.051 A 
BRANCH  29  30
HETATM   30  C   UNK N   1      29.409  23.441  -4.588  0.00  0.00     0.049 C 
BRANCH  30  31
HETATM   31  C   UNK N   1      29.692  22.353  -3.561  0.00  0.00     0.114 C 
BRANCH  31  32
HETATM   32  C   UNK N   1      29.428  22.855  -2.176  0.00  0.00     0.139 C 
HETATM   33  O   UNK N   1      28.281  23.042  -1.807  0.00  0.00    -0.650 OA
BRANCH  32  34
HETATM   34  O   UNK N   1      30.444  23.073  -1.322  0.00  0.00    -0.776 OA
HETATM   35  H   UNK N   1      31.218  23.514  -1.614  0.00  0.00     0.167 HD
ENDBRANCH  32  34
ENDBRANCH  31  32
ENDBRANCH  30  31
ENDBRANCH  29  30
ENDBRANCH  23  24
ENDBRANCH   6  23
TORSDOF 12
ENDMDL
MODEL 9
REMARK VINA RESULT:      -7.1      4.595      8.324
REMARK  12 active torsions:
REMARK  status: ('A' for Active; 'I' for Inactive)
REMARK    1  A    between atoms: C_2  and  C_3 
REMARK    2  A    between atoms: C_3  and  C_4 
REMARK    3  A    between atoms: C_4  and  C_5 
REMARK    4  A    between atoms: C_5  and  N_6 
REMARK       I    between atoms: N_6  and  C_7 
REMARK    5  A    between atoms: C_7  and  C_9 
REMARK    6  A    between atoms: C_15  and  C_12 
REMARK    7  A    between atoms: C_20  and  C_21 
REMARK    8  A    between atoms: C_21  and  C_22 
REMARK    9  A    between atoms: C_27  and  C_28 
REMARK   10  A    between atoms: C_28  and  C_29 
REMARK   11  A    between atoms: C_29  and  C_30 
REMARK   12  A    between atoms: C_30  and  O_32 
ROOT
HETATM    1  C   UNK N   1      26.363  16.621   4.688  0.00  0.00     0.097 C 
HETATM    2  C   UNK N   1      26.177  15.377   3.783  0.00  0.00     0.134 C 
HETATM    3  C   UNK N   1      26.753  15.632   2.391  0.00  0.00     0.035 C 
HETATM    4  C   UNK N   1      28.237  15.652   2.688  0.00  0.00     0.035 C 
HETATM    5  C   UNK N   1      28.237  15.285   4.168  0.00  0.00     0.127 C 
HETATM    6  C   UNK N   1      27.834  16.480   5.009  0.00  0.00     0.033 C 
HETATM    7  O   UNK N   1      27.105  14.471   4.303  0.00  0.00    -0.379 OA
ENDROOT
BRANCH   1   8
HETATM    8  C   UNK N   1      25.901  17.917   4.079  0.00  0.00     0.131 A 
HETATM    9  O   UNK N   1      26.669  18.959   3.843  0.00  0.00    -0.307 OA
HETATM   10  C   UNK N   1      25.902  19.950   3.439  0.00  0.00     0.179 A 
HETATM   11  C   UNK N   1      24.607  19.459   3.424  0.00  0.00     0.125 A 
HETATM   12  N   UNK N   1      24.612  18.188   3.826  0.00  0.00    -0.334 N 
ATOM     13  HN  UNK N   1      23.814  17.561   3.920  1.00  0.00     0.168 HD
BRANCH  11  14
HETATM   14  C   UNK N   1      23.366  20.187   3.171  0.00  0.00     0.270 C 
HETATM   15  N   UNK N   1      22.175  19.584   3.360  0.00  0.00    -0.356 N 
HETATM   16  H   UNK N   1      22.144  18.694   3.780  0.00  0.00     0.162 HD
HETATM   17  O   UNK N   1      23.420  21.312   2.687  0.00  0.00    -0.266 OA
BRANCH  15  18
HETATM   18  C   UNK N   1      20.949  20.223   2.960  0.00  0.00     0.123 C 
BRANCH  18  19
HETATM   19  C   UNK N   1      19.858  19.187   2.831  0.00  0.00     0.020 C 
BRANCH  19  20
HETATM   20  C   UNK N   1      20.340  18.063   1.937  0.00  0.00     0.001 C 
BRANCH  20  21
HETATM   21  C   UNK N   1      19.938  16.724   2.519  0.00  0.00    -0.004 C 
HETATM   22  C   UNK N   1      19.901  16.800   4.034  0.00  0.00     0.005 C 
ENDBRANCH  20  21
ENDBRANCH  19  20
ENDBRANCH  18  19
ENDBRANCH  15  18
ENDBRANCH  11  14
ENDBRANCH   1   8
BRANCH   6  23
HETATM   23  C   UNK N   1      28.742  17.702   5.029  0.00  0.00     0.047 C 
BRANCH  23  24
HETATM   24  C   UNK N   1      29.277  17.834   6.420  0.00  0.00    -0.051 A 
HETATM   25  C   UNK N   1      28.501  18.492   7.380  0.00  0.00     0.007 A 
HETATM   26  C   UNK N   1      28.954  18.604   8.697  0.00  0.00     0.001 A 
HETATM   27  C   UNK N   1      30.187  18.059   9.062  0.00  0.00     0.001 A 
HETATM   28  C   UNK N   1      30.974  17.406   8.109  0.00  0.00     0.007 A 
HETATM   29  C   UNK N   1      30.528  17.285   6.786  0.00  0.00    -0.051 A 
BRANCH  29  30
HETATM   30  C   UNK N   1      31.391  16.587   5.772  0.00  0.00     0.049 C 
BRANCH  30  31
HETATM   31  C   UNK N   1      32.462  17.512   5.209  0.00  0.00     0.114 C 
BRANCH  31  32
HETATM   32  C   UNK N   1      33.806  17.164   5.769  0.00  0.00     0.139 C 
HETATM   33  O   UNK N   1      34.403  16.187   5.350  0.00  0.00    -0.650 OA
BRANCH  32  34
HETATM   34  O   UNK N   1      34.376  17.938   6.710  0.00  0.00    -0.776 OA
HETATM   35  H   UNK N   1      34.246  17.747   7.618  0.00  0.00     0.167 HD
ENDBRANCH  32  34
ENDBRANCH  31  32
ENDBRANCH  30  31
ENDBRANCH  29  30
ENDBRANCH  23  24
ENDBRANCH   6  23
TORSDOF 12
ENDMDL
