REMARK  11 active torsions:
REMARK  status: ('A' for Active; 'I' for Inactive)
REMARK    1  A    between atoms: C_3  and  N_28 
REMARK    2  A    between atoms: C_9  and  N_10 
REMARK    3  A    between atoms: C_13  and  C_16 
REMARK    4  A    between atoms: N_28  and  C_29 
REMARK    5  A    between atoms: C_29  and  C_30 
REMARK    6  A    between atoms: C_30  and  C_31 
REMARK    7  A    between atoms: C_30  and  N_34 
REMARK    8  A    between atoms: C_31  and  O_33 
REMARK    9  A    between atoms: N_34  and  S_35 
REMARK   10  A    between atoms: S_35  and  C_38 
REMARK   11  A    between atoms: C_41  and  O_44 
ROOT
HETATM    1  C   UNK N   1      -4.777   0.407  -0.192  0.00  0.00     0.056 C 
HETATM    2  C   UNK N   1      -4.550   1.879  -0.268  0.00  0.00     0.026 A 
HETATM    3  C   UNK N   1      -5.648   2.760  -0.155  0.00  0.00     0.112 A 
HETATM    4  N   UNK N   1      -5.443   4.096  -0.253  0.00  0.00    -0.332 N 
ATOM      5  HN  UNK N   1      -6.242   4.727  -0.205  1.00  0.00     0.168 HD
HETATM    6  C   UNK N   1      -4.199   4.612  -0.415  0.00  0.00     0.080 A 
HETATM    7  N   UNK N   1      -3.120   3.789  -0.465  0.00  0.00    -0.332 N 
ATOM      8  HN  UNK N   1      -2.188   4.197  -0.544  1.00  0.00     0.168 HD
HETATM    9  C   UNK N   1      -3.247   2.436  -0.412  0.00  0.00     0.114 A 
HETATM   10  C   UNK N   1      -4.015   6.083  -0.497  0.00  0.00     0.089 C 
ENDROOT
BRANCH   3  11
HETATM   11  N   UNK N   1      -6.962   2.294   0.138  0.00  0.00    -0.373 N 
HETATM   12  H   UNK N   1      -7.733   2.760  -0.258  0.00  0.00     0.161 HD
BRANCH  11  13
HETATM   13  C   UNK N   1      -7.197   1.154   1.001  0.00  0.00     0.158 C 
BRANCH  13  14
HETATM   14  C   UNK N   1      -8.106   0.101   0.380  0.00  0.00     0.208 C 
BRANCH  14  15
HETATM   15  C   UNK N   1      -9.484   0.647   0.178  0.00  0.00     0.165 C 
HETATM   16  O   UNK N   1     -10.410   0.213   0.842  0.00  0.00    -0.648 OA
BRANCH  15  17
HETATM   17  O   UNK N   1      -9.704   1.630  -0.714  0.00  0.00    -0.775 OA
HETATM   18  H   UNK N   1      -9.188   2.106  -1.335  0.00  0.00     0.167 HD
ENDBRANCH  15  17
ENDBRANCH  14  15
BRANCH  14  19
HETATM   19  N   UNK N   1      -7.557  -0.416  -0.870  0.00  0.00    -0.299 N 
HETATM   20  H   UNK N   1      -7.353   0.137  -1.703  0.00  0.00     0.173 HD
BRANCH  19  21
HETATM   21  S   UNK N   1      -7.302  -2.164  -0.702  0.00  0.00     0.259 S 
HETATM   22  O   UNK N   1      -6.695  -2.584  -2.049  0.00  0.00    -0.201 OA
HETATM   23  O   UNK N   1      -6.114  -2.334   0.259  0.00  0.00    -0.201 OA
BRANCH  21  24
HETATM   24  C   UNK N   1      -8.731  -3.155  -0.285  0.00  0.00     0.079 A 
HETATM   25  C   UNK N   1      -8.656  -4.551  -0.257  0.00  0.00     0.028 A 
HETATM   26  C   UNK N   1      -9.797  -5.302   0.053  0.00  0.00     0.038 A 
HETATM   27  C   UNK N   1     -11.016  -4.655   0.339  0.00  0.00     0.068 A 
HETATM   28  C   UNK N   1     -11.073  -3.262   0.313  0.00  0.00     0.038 A 
HETATM   29  C   UNK N   1      -9.938  -2.520  -0.001  0.00  0.00     0.028 A 
BRANCH  27  30
HETATM   30  O   UNK N   1     -12.142  -5.345   0.631  0.00  0.00    -0.356 OA
HETATM   31  C   UNK N   1     -12.206  -6.719   0.640  0.00  0.00     0.210 C 
ENDBRANCH  27  30
ENDBRANCH  21  24
ENDBRANCH  19  21
ENDBRANCH  14  19
ENDBRANCH  13  14
ENDBRANCH  11  13
ENDBRANCH   3  11
BRANCH   9  32
HETATM   32  N   UNK N   1      -2.061   1.624  -0.432  0.00  0.00    -0.367 N 
HETATM   33  C   UNK N   1      -0.805   2.176   0.024  0.00  0.00     0.125 C 
HETATM   34  C   UNK N   1      -0.460   1.546   1.390  0.00  0.00     0.030 C 
HETATM   35  C   UNK N   1      -0.633   0.005   1.408  0.00  0.00     0.038 C 
HETATM   36  C   UNK N   1      -1.965  -0.414   0.789  0.00  0.00     0.030 C 
HETATM   37  C   UNK N   1      -2.106   0.195  -0.593  0.00  0.00     0.125 C 
BRANCH  35  38
HETATM   38  C   UNK N   1       0.501  -0.753   0.780  0.00  0.00     0.015 A 
HETATM   39  C   UNK N   1       0.377  -2.137   0.583  0.00  0.00     0.026 A 
HETATM   40  C   UNK N   1       1.418  -2.847  -0.007  0.00  0.00     0.013 A 
HETATM   41  C   UNK N   1       2.584  -2.178  -0.365  0.00  0.00    -0.014 A 
HETATM   42  C   UNK N   1       2.693  -0.798  -0.128  0.00  0.00     0.107 A 
HETATM   43  C   UNK N   1       3.717  -2.923  -0.993  0.00  0.00     0.044 C 
HETATM   44  N   UNK N   1       1.653  -0.119   0.424  0.00  0.00    -0.345 N 
HETATM   45  N   UNK N   1       3.898  -0.117  -0.436  0.00  0.00    -0.376 N 
ATOM     46  HN  UNK N   1       1.736   0.886   0.575  1.00  0.00     0.167 HD
HETATM   47  C   UNK N   1       5.073  -0.816  -0.925  0.00  0.00     0.121 C 
HETATM   48  H   UNK N   1       3.939   0.859  -0.315  0.00  0.00     0.161 HD
HETATM   49  C   UNK N   1       5.041  -2.304  -0.563  0.00  0.00     0.024 C 
ENDBRANCH  35  38
ENDBRANCH   9  32
TORSDOF 11
