MODEL 1
REMARK VINA RESULT:      -9.4      0.000      0.000
REMARK  10 active torsions:
REMARK  status: ('A' for Active; 'I' for Inactive)
REMARK    1  A    between atoms: C_28  and  C_6 
REMARK    2  A    between atoms: C_23  and  C_21 
REMARK    3  A    between atoms: N_43  and  C_21 
REMARK    4  A    between atoms: N_45  and  C_22 
REMARK    5  A    between atoms: C_32  and  C_24 
REMARK    6  A    between atoms: C_25  and  N_37 
REMARK    7  A    between atoms: C_26  and  N_44 
REMARK    8  A    between atoms: N_39  and  C_27 
REMARK    9  A    between atoms: O_48  and  C_30 
REMARK   10  A    between atoms: C_32  and  O_46 
REMARK       I    between atoms: N_39  and  C_34 
ROOT
HETATM    1  C   UNK N   1      35.104  16.891  10.655  0.00  0.00     0.018 A 
HETATM    2  C   UNK N   1      35.392  15.758  11.425  0.00  0.00     0.034 A 
HETATM    3  C   UNK N   1      35.007  15.527   8.677  0.00  0.00     0.054 A 
HETATM    4  C   UNK N   1      34.857  16.771   9.282  0.00  0.00     0.017 A 
HETATM    5  C   UNK N   1      35.490  14.494  10.832  0.00  0.00     0.082 A 
HETATM    6  C   UNK N   1      35.345  14.389   9.417  0.00  0.00     0.096 A 
ENDROOT
BRANCH   4   7
HETATM    7  C   UNK N   1      34.567  17.982   8.470  0.00  0.00     0.146 C 
HETATM    8  N   UNK N   1      33.552  18.092   7.666  0.00  0.00    -0.366 N 
ATOM      9  HN  UNK N   1      33.560  18.903   7.049  1.00  0.00     0.162 HD
BRANCH   8  10
HETATM   10  C   UNK N   1      32.408  17.206   7.539  0.00  0.00     0.083 C 
HETATM   11  C   UNK N   1      32.158  16.884   6.065  0.00  0.00     0.027 C 
HETATM   12  C   UNK N   1      30.860  16.090   5.893  0.00  0.00     0.027 C 
HETATM   13  C   UNK N   1      29.644  16.850   6.444  0.00  0.00     0.079 C 
HETATM   14  C   UNK N   1      29.882  17.224   7.916  0.00  0.00     0.027 C 
HETATM   15  C   UNK N   1      31.207  17.956   8.125  0.00  0.00     0.027 C 
BRANCH  13  16
HETATM   16  N   UNK N   1      29.267  17.986   5.567  0.00  0.00    -0.405 N 
HETATM   17  C   UNK N   1      28.236  18.918   6.064  0.00  0.00     0.147 C 
HETATM   18  C   UNK N   1      26.829  18.521   5.613  0.00  0.00     0.291 C 
HETATM   19  N   UNK N   1      26.796  18.394   4.161  0.00  0.00     0.091 N 
HETATM   20  C   UNK N   1      27.657  17.274   3.807  0.00  0.00     0.291 C 
HETATM   21  C   UNK N   1      29.106  17.618   4.151  0.00  0.00     0.147 C 
BRANCH  19  22
HETATM   22  C   UNK N   1      25.440  18.044   3.763  0.00  0.00     0.277 C 
BRANCH  22  23
HETATM   23  C   UNK N   1      24.435  18.963   4.439  0.00  0.00     0.014 A 
HETATM   24  C   UNK N   1      23.753  19.811   3.388  0.00  0.00     0.007 A 
HETATM   25  C   UNK N   1      23.040  18.607   3.965  0.00  0.00     0.007 A 
ENDBRANCH  22  23
ENDBRANCH  19  22
ENDBRANCH  13  16
ENDBRANCH   8  10
BRANCH   7  26
HETATM   26  O   UNK N   1      35.409  19.027   8.575  0.00  0.00    -0.346 OA
HETATM   27  H   UNK N   1      35.179  19.802   9.049  0.00  0.00     0.219 HD
ENDBRANCH   7  26
ENDBRANCH   4   7
BRANCH   6  28
HETATM   28  O   UNK N   1      35.564  13.214   8.778  0.00  0.00    -0.354 OA
HETATM   29  C   UNK N   1      36.423  13.069   7.711  0.00  0.00     0.210 C 
ENDBRANCH   6  28
BRANCH   5  30
HETATM   30  N   UNK N   1      35.789  13.371  11.668  0.00  0.00    -0.189 N 
HETATM   31  C   UNK N   1      36.058  13.474  13.059  0.00  0.00     0.684 A 
HETATM   32  N   UNK N   1      36.615  14.609  13.561  0.00  0.00    -0.199 N 
HETATM   33  N   UNK N   1      35.649  12.488  13.902  0.00  0.00    -0.174 N 
HETATM   34  C   UNK N   1      36.672  14.833  14.894  0.00  0.00     0.139 A 
ATOM     35  HN  UNK N   1      36.996  15.306  12.921  1.00  0.00     0.183 HD
HETATM   36  C   UNK N   1      36.197  13.870  15.779  0.00  0.00     0.098 A 
HETATM   37  C   UNK N   1      35.721  12.652  15.254  0.00  0.00     0.148 A 
HETATM   38  N   UNK N   1      36.059  14.152  17.175  0.00  0.00    -0.316 N 
HETATM   39  N   UNK N   1      35.227  11.651  16.157  0.00  0.00    -0.347 N 
HETATM   40  C   UNK N   1      35.706  11.727  17.535  0.00  0.00     0.178 C 
HETATM   41  C   UNK N   1      35.682  13.157  18.027  0.00  0.00     0.247 C 
HETATM   42  O   UNK N   1      35.375  13.412  19.185  0.00  0.00    -0.271 OA
HETATM   43  C   UNK N   1      36.165  15.514  17.650  0.00  0.00     0.159 C 
ATOM     44  HN  UNK N   1      35.285  11.616  13.517  1.00  0.00     0.186 HD
HETATM   45  H   UNK N   1      35.810  12.478  11.255  0.00  0.00     0.184 HD
BRANCH  39  46
HETATM   46  C   UNK N   1      34.639  10.406  15.677  0.00  0.00     0.079 C 
HETATM   47  C   UNK N   1      33.542  10.620  14.643  0.00  0.00     0.032 C 
HETATM   48  C   UNK N   1      35.697   9.433  15.192  0.00  0.00     0.032 C 
ENDBRANCH  39  46
BRANCH  40  49
HETATM   49  C   UNK N   1      35.081  10.707  18.500  0.00  0.00     0.030 C 
HETATM   50  C   UNK N   1      36.127   9.865  19.209  0.00  0.00     0.007 C 
ENDBRANCH  40  49
ENDBRANCH   5  30
TORSDOF 10
ENDMDL
MODEL 2
REMARK VINA RESULT:      -9.1      2.446     12.899
REMARK  10 active torsions:
REMARK  status: ('A' for Active; 'I' for Inactive)
REMARK    1  A    between atoms: C_28  and  C_6 
REMARK    2  A    between atoms: C_23  and  C_21 
REMARK    3  A    between atoms: N_43  and  C_21 
REMARK    4  A    between atoms: N_45  and  C_22 
REMARK    5  A    between atoms: C_32  and  C_24 
REMARK    6  A    between atoms: C_25  and  N_37 
REMARK    7  A    between atoms: C_26  and  N_44 
REMARK    8  A    between atoms: N_39  and  C_27 
REMARK    9  A    between atoms: O_48  and  C_30 
REMARK   10  A    between atoms: C_32  and  O_46 
REMARK       I    between atoms: N_39  and  C_34 
ROOT
HETATM    1  C   UNK N   1      36.172  15.660  11.291  0.00  0.00     0.018 A 
HETATM    2  C   UNK N   1      35.216  16.530  10.756  0.00  0.00     0.034 A 
HETATM    3  C   UNK N   1      35.068  13.796  10.245  0.00  0.00     0.054 A 
HETATM    4  C   UNK N   1      36.132  14.292  10.993  0.00  0.00     0.017 A 
HETATM    5  C   UNK N   1      34.173  16.046   9.957  0.00  0.00     0.082 A 
HETATM    6  C   UNK N   1      34.072  14.640   9.743  0.00  0.00     0.096 A 
ENDROOT
BRANCH   4   7
HETATM    7  C   UNK N   1      37.144  13.373  11.579  0.00  0.00     0.146 C 
HETATM    8  N   UNK N   1      37.147  12.991  12.820  0.00  0.00    -0.366 N 
ATOM      9  HN  UNK N   1      37.982  12.496  13.131  1.00  0.00     0.162 HD
BRANCH   8  10
HETATM   10  C   UNK N   1      36.108  13.178  13.819  0.00  0.00     0.083 C 
HETATM   11  C   UNK N   1      36.740  13.424  15.190  0.00  0.00     0.027 C 
HETATM   12  C   UNK N   1      35.671  13.456  16.284  0.00  0.00     0.027 C 
HETATM   13  C   UNK N   1      34.866  12.149  16.341  0.00  0.00     0.079 C 
HETATM   14  C   UNK N   1      34.250  11.853  14.964  0.00  0.00     0.027 C 
HETATM   15  C   UNK N   1      35.287  11.884  13.842  0.00  0.00     0.027 C 
BRANCH  13  16
HETATM   16  N   UNK N   1      35.665  11.040  16.917  0.00  0.00    -0.405 N 
HETATM   17  C   UNK N   1      35.182   9.664  16.695  0.00  0.00     0.147 C 
HETATM   18  C   UNK N   1      34.281   9.174  17.830  0.00  0.00     0.291 C 
HETATM   19  N   UNK N   1      34.978   9.309  19.103  0.00  0.00     0.091 N 
HETATM   20  C   UNK N   1      35.176  10.733  19.338  0.00  0.00     0.291 C 
HETATM   21  C   UNK N   1      36.135  11.292  18.289  0.00  0.00     0.147 C 
BRANCH  19  22
HETATM   22  C   UNK N   1      34.107   8.810  20.157  0.00  0.00     0.277 C 
BRANCH  22  23
HETATM   23  C   UNK N   1      32.725   8.504  19.602  0.00  0.00     0.014 A 
HETATM   24  C   UNK N   1      32.083   7.419  20.440  0.00  0.00     0.007 A 
HETATM   25  C   UNK N   1      31.682   8.866  20.640  0.00  0.00     0.007 A 
ENDBRANCH  22  23
ENDBRANCH  19  22
ENDBRANCH  13  16
ENDBRANCH   8  10
BRANCH   7  26
HETATM   26  O   UNK N   1      38.116  12.910  10.770  0.00  0.00    -0.346 OA
HETATM   27  H   UNK N   1      38.639  13.485  10.246  0.00  0.00     0.219 HD
ENDBRANCH   7  26
ENDBRANCH   4   7
BRANCH   6  28
HETATM   28  O   UNK N   1      33.009  14.107   9.093  0.00  0.00    -0.354 OA
HETATM   29  C   UNK N   1      33.110  13.148   8.110  0.00  0.00     0.210 C 
ENDBRANCH   6  28
BRANCH   5  30
HETATM   30  N   UNK N   1      33.222  16.981   9.438  0.00  0.00    -0.189 N 
HETATM   31  C   UNK N   1      32.828  17.029   8.074  0.00  0.00     0.684 A 
HETATM   32  N   UNK N   1      33.695  16.637   7.101  0.00  0.00    -0.199 N 
HETATM   33  N   UNK N   1      31.547  17.354   7.751  0.00  0.00    -0.174 N 
HETATM   34  C   UNK N   1      33.283  16.451   5.826  0.00  0.00     0.139 A 
ATOM     35  HN  UNK N   1      34.674  16.478   7.339  1.00  0.00     0.183 HD
HETATM   36  C   UNK N   1      31.961  16.709   5.482  0.00  0.00     0.098 A 
HETATM   37  C   UNK N   1      31.095  17.219   6.471  0.00  0.00     0.148 A 
HETATM   38  N   UNK N   1      31.444  16.339   4.200  0.00  0.00    -0.316 N 
HETATM   39  N   UNK N   1      29.727  17.487   6.127  0.00  0.00    -0.347 N 
HETATM   40  C   UNK N   1      29.446  17.709   4.711  0.00  0.00     0.178 C 
HETATM   41  C   UNK N   1      30.172  16.691   3.860  0.00  0.00     0.247 C 
HETATM   42  O   UNK N   1      29.645  16.228   2.856  0.00  0.00    -0.271 OA
HETATM   43  C   UNK N   1      32.210  15.463   3.340  0.00  0.00     0.159 C 
ATOM     44  HN  UNK N   1      30.918  17.702   8.475  1.00  0.00     0.186 HD
HETATM   45  H   UNK N   1      32.818  17.627  10.061  0.00  0.00     0.184 HD
BRANCH  39  46
HETATM   46  C   UNK N   1      28.758  17.931   7.123  0.00  0.00     0.079 C 
HETATM   47  C   UNK N   1      28.044  16.781   7.818  0.00  0.00     0.032 C 
HETATM   48  C   UNK N   1      29.373  18.903   8.113  0.00  0.00     0.032 C 
ENDBRANCH  39  46
BRANCH  40  49
HETATM   49  C   UNK N   1      27.960  17.891   4.363  0.00  0.00     0.030 C 
HETATM   50  C   UNK N   1      27.612  19.336   4.051  0.00  0.00     0.007 C 
ENDBRANCH  40  49
ENDBRANCH   5  30
TORSDOF 10
ENDMDL
MODEL 3
REMARK VINA RESULT:      -8.9      2.396     12.620
REMARK  10 active torsions:
REMARK  status: ('A' for Active; 'I' for Inactive)
REMARK    1  A    between atoms: C_28  and  C_6 
REMARK    2  A    between atoms: C_23  and  C_21 
REMARK    3  A    between atoms: N_43  and  C_21 
REMARK    4  A    between atoms: N_45  and  C_22 
REMARK    5  A    between atoms: C_32  and  C_24 
REMARK    6  A    between atoms: C_25  and  N_37 
REMARK    7  A    between atoms: C_26  and  N_44 
REMARK    8  A    between atoms: N_39  and  C_27 
REMARK    9  A    between atoms: O_48  and  C_30 
REMARK   10  A    between atoms: C_32  and  O_46 
REMARK       I    between atoms: N_39  and  C_34 
ROOT
HETATM    1  C   UNK N   1      35.650  12.540   9.808  0.00  0.00     0.018 A 
HETATM    2  C   UNK N   1      34.616  12.726   8.882  0.00  0.00     0.034 A 
HETATM    3  C   UNK N   1      36.135  14.895   9.744  0.00  0.00     0.054 A 
HETATM    4  C   UNK N   1      36.380  13.636  10.284  0.00  0.00     0.017 A 
HETATM    5  C   UNK N   1      34.326  13.999   8.376  0.00  0.00     0.082 A 
HETATM    6  C   UNK N   1      35.141  15.097   8.780  0.00  0.00     0.096 A 
ENDROOT
BRANCH   4   7
HETATM    7  C   UNK N   1      37.486  13.427  11.256  0.00  0.00     0.146 C 
HETATM    8  N   UNK N   1      37.308  13.202  12.522  0.00  0.00    -0.366 N 
ATOM      9  HN  UNK N   1      38.145  13.242  13.103  1.00  0.00     0.162 HD
BRANCH   8  10
HETATM   10  C   UNK N   1      36.067  12.901  13.215  0.00  0.00     0.083 C 
HETATM   11  C   UNK N   1      36.127  13.426  14.649  0.00  0.00     0.027 C 
HETATM   12  C   UNK N   1      34.902  12.973  15.447  0.00  0.00     0.027 C 
HETATM   13  C   UNK N   1      34.775  11.443  15.489  0.00  0.00     0.079 C 
HETATM   14  C   UNK N   1      34.752  10.880  14.058  0.00  0.00     0.027 C 
HETATM   15  C   UNK N   1      35.929  11.374  13.218  0.00  0.00     0.027 C 
BRANCH  13  16
HETATM   16  N   UNK N   1      35.792  10.835  16.380  0.00  0.00    -0.405 N 
HETATM   17  C   UNK N   1      35.897   9.363  16.392  0.00  0.00     0.147 C 
HETATM   18  C   UNK N   1      35.031   8.728  17.481  0.00  0.00     0.291 C 
HETATM   19  N   UNK N   1      35.366   9.309  18.776  0.00  0.00     0.091 N 
HETATM   20  C   UNK N   1      34.981  10.713  18.730  0.00  0.00     0.291 C 
HETATM   21  C   UNK N   1      35.858  11.448  17.717  0.00  0.00     0.147 C 
BRANCH  19  22
HETATM   22  C   UNK N   1      34.545   8.666  19.792  0.00  0.00     0.277 C 
BRANCH  22  23
HETATM   23  C   UNK N   1      33.083   8.679  19.380  0.00  0.00     0.014 A 
HETATM   24  C   UNK N   1      32.436   7.378  19.804  0.00  0.00     0.007 A 
HETATM   25  C   UNK N   1      32.217   8.633  20.622  0.00  0.00     0.007 A 
ENDBRANCH  22  23
ENDBRANCH  19  22
ENDBRANCH  13  16
ENDBRANCH   8  10
BRANCH   7  26
HETATM   26  O   UNK N   1      38.749  13.475  10.791  0.00  0.00    -0.346 OA
HETATM   27  H   UNK N   1      38.942  13.724   9.908  0.00  0.00     0.219 HD
ENDBRANCH   7  26
ENDBRANCH   4   7
BRANCH   6  28
HETATM   28  O   UNK N   1      34.992  16.321   8.218  0.00  0.00    -0.354 OA
HETATM   29  C   UNK N   1      34.601  17.444   8.914  0.00  0.00     0.210 C 
ENDBRANCH   6  28
BRANCH   5  30
HETATM   30  N   UNK N   1      33.260  14.129   7.430  0.00  0.00    -0.189 N 
HETATM   31  C   UNK N   1      32.126  14.960   7.632  0.00  0.00     0.684 A 
HETATM   32  N   UNK N   1      31.682  15.211   8.894  0.00  0.00    -0.199 N 
HETATM   33  N   UNK N   1      31.558  15.599   6.573  0.00  0.00    -0.174 N 
HETATM   34  C   UNK N   1      30.759  16.170   9.136  0.00  0.00     0.139 A 
ATOM     35  HN  UNK N   1      32.053  14.666   9.672  1.00  0.00     0.183 HD
HETATM   36  C   UNK N   1      30.212  16.887   8.078  0.00  0.00     0.098 A 
HETATM   37  C   UNK N   1      30.598  16.548   6.765  0.00  0.00     0.148 A 
HETATM   38  N   UNK N   1      29.389  18.034   8.308  0.00  0.00    -0.316 N 
HETATM   39  N   UNK N   1      30.041  17.283   5.664  0.00  0.00    -0.347 N 
HETATM   40  C   UNK N   1      28.769  17.958   5.912  0.00  0.00     0.178 C 
HETATM   41  C   UNK N   1      28.792  18.657   7.253  0.00  0.00     0.247 C 
HETATM   42  O   UNK N   1      28.242  19.741   7.400  0.00  0.00    -0.271 OA
HETATM   43  C   UNK N   1      29.320  18.618   9.630  0.00  0.00     0.159 C 
ATOM     44  HN  UNK N   1      31.856  15.365   5.626  1.00  0.00     0.186 HD
HETATM   45  H   UNK N   1      33.316  13.614   6.593  0.00  0.00     0.184 HD
BRANCH  39  46
HETATM   46  C   UNK N   1      30.462  17.043   4.289  0.00  0.00     0.079 C 
HETATM   47  C   UNK N   1      31.925  17.383   4.042  0.00  0.00     0.032 C 
HETATM   48  C   UNK N   1      30.118  15.638   3.831  0.00  0.00     0.032 C 
ENDBRANCH  39  46
BRANCH  40  49
HETATM   49  C   UNK N   1      28.251  18.819   4.749  0.00  0.00     0.030 C 
HETATM   50  C   UNK N   1      26.824  18.472   4.363  0.00  0.00     0.007 C 
ENDBRANCH  40  49
ENDBRANCH   5  30
TORSDOF 10
ENDMDL
MODEL 4
REMARK VINA RESULT:      -8.8      2.828     13.503
REMARK  10 active torsions:
REMARK  status: ('A' for Active; 'I' for Inactive)
REMARK    1  A    between atoms: C_28  and  C_6 
REMARK    2  A    between atoms: C_23  and  C_21 
REMARK    3  A    between atoms: N_43  and  C_21 
REMARK    4  A    between atoms: N_45  and  C_22 
REMARK    5  A    between atoms: C_32  and  C_24 
REMARK    6  A    between atoms: C_25  and  N_37 
REMARK    7  A    between atoms: C_26  and  N_44 
REMARK    8  A    between atoms: N_39  and  C_27 
REMARK    9  A    between atoms: O_48  and  C_30 
REMARK   10  A    between atoms: C_32  and  O_46 
REMARK       I    between atoms: N_39  and  C_34 
ROOT
HETATM    1  C   UNK N   1      31.444  16.071   5.697  0.00  0.00     0.018 A 
HETATM    2  C   UNK N   1      30.050  15.988   5.794  0.00  0.00     0.034 A 
HETATM    3  C   UNK N   1      31.487  17.585   7.566  0.00  0.00     0.054 A 
HETATM    4  C   UNK N   1      32.174  16.831   6.620  0.00  0.00     0.017 A 
HETATM    5  C   UNK N   1      29.355  16.700   6.779  0.00  0.00     0.082 A 
HETATM    6  C   UNK N   1      30.090  17.558   7.649  0.00  0.00     0.096 A 
ENDROOT
BRANCH   4   7
HETATM    7  C   UNK N   1      33.653  16.926   6.500  0.00  0.00     0.146 C 
HETATM    8  N   UNK N   1      34.485  16.161   7.140  0.00  0.00    -0.366 N 
ATOM      9  HN  UNK N   1      35.466  16.436   7.098  1.00  0.00     0.162 HD
BRANCH   8  10
HETATM   10  C   UNK N   1      34.193  14.962   7.908  0.00  0.00     0.083 C 
HETATM   11  C   UNK N   1      33.828  15.337   9.345  0.00  0.00     0.027 C 
HETATM   12  C   UNK N   1      33.682  14.085  10.214  0.00  0.00     0.027 C 
HETATM   13  C   UNK N   1      34.968  13.245  10.235  0.00  0.00     0.079 C 
HETATM   14  C   UNK N   1      35.383  12.886   8.799  0.00  0.00     0.027 C 
HETATM   15  C   UNK N   1      35.469  14.112   7.892  0.00  0.00     0.027 C 
BRANCH  13  16
HETATM   16  N   UNK N   1      36.028  13.892  11.046  0.00  0.00    -0.405 N 
HETATM   17  C   UNK N   1      37.231  13.095  11.356  0.00  0.00     0.147 C 
HETATM   18  C   UNK N   1      37.110  12.357  12.690  0.00  0.00     0.291 C 
HETATM   19  N   UNK N   1      36.796  13.307  13.751  0.00  0.00     0.091 N 
HETATM   20  C   UNK N   1      35.470  13.842  13.472  0.00  0.00     0.291 C 
HETATM   21  C   UNK N   1      35.517  14.669  12.187  0.00  0.00     0.147 C 
BRANCH  19  22
HETATM   22  C   UNK N   1      36.715  12.578  15.009  0.00  0.00     0.277 C 
BRANCH  22  23
HETATM   23  C   UNK N   1      35.329  12.719  15.616  0.00  0.00     0.014 A 
HETATM   24  C   UNK N   1      35.250  11.883  16.875  0.00  0.00     0.007 A 
HETATM   25  C   UNK N   1      35.447  13.381  16.974  0.00  0.00     0.007 A 
ENDBRANCH  22  23
ENDBRANCH  19  22
ENDBRANCH  13  16
ENDBRANCH   8  10
BRANCH   7  26
HETATM   26  O   UNK N   1      34.159  17.864   5.678  0.00  0.00    -0.346 OA
HETATM   27  H   UNK N   1      34.973  17.742   5.229  0.00  0.00     0.219 HD
ENDBRANCH   7  26
ENDBRANCH   4   7
BRANCH   6  28
HETATM   28  O   UNK N   1      29.456  18.372   8.527  0.00  0.00    -0.354 OA
HETATM   29  C   UNK N   1      29.616  18.303   9.894  0.00  0.00     0.210 C 
ENDBRANCH   6  28
BRANCH   5  30
HETATM   30  N   UNK N   1      27.930  16.579   6.829  0.00  0.00    -0.189 N 
HETATM   31  C   UNK N   1      27.039  17.528   6.259  0.00  0.00     0.684 A 
HETATM   32  N   UNK N   1      27.407  18.834   6.162  0.00  0.00    -0.199 N 
HETATM   33  N   UNK N   1      25.869  17.109   5.704  0.00  0.00    -0.174 N 
HETATM   34  C   UNK N   1      26.689  19.713   5.426  0.00  0.00     0.139 A 
ATOM     35  HN  UNK N   1      28.241  19.157   6.654  1.00  0.00     0.183 HD
HETATM   36  C   UNK N   1      25.525  19.295   4.790  0.00  0.00     0.098 A 
HETATM   37  C   UNK N   1      25.093  17.968   4.983  0.00  0.00     0.148 A 
HETATM   38  N   UNK N   1      24.853  20.138   3.849  0.00  0.00    -0.316 N 
HETATM   39  N   UNK N   1      23.893  17.524   4.330  0.00  0.00    -0.347 N 
HETATM   40  C   UNK N   1      22.942  18.565   3.944  0.00  0.00     0.178 C 
HETATM   41  C   UNK N   1      23.664  19.736   3.316  0.00  0.00     0.247 C 
HETATM   42  O   UNK N   1      23.166  20.343   2.376  0.00  0.00    -0.271 OA
HETATM   43  C   UNK N   1      25.506  21.328   3.351  0.00  0.00     0.159 C 
ATOM     44  HN  UNK N   1      25.571  16.141   5.829  1.00  0.00     0.186 HD
HETATM   45  H   UNK N   1      27.546  15.795   7.283  0.00  0.00     0.184 HD
BRANCH  39  46
HETATM   46  C   UNK N   1      23.438  16.142   4.416  0.00  0.00     0.079 C 
HETATM   47  C   UNK N   1      24.399  15.153   3.772  0.00  0.00     0.032 C 
HETATM   48  C   UNK N   1      23.088  15.751   5.840  0.00  0.00     0.032 C 
ENDBRANCH  39  46
BRANCH  40  49
HETATM   49  C   UNK N   1      21.719  18.069   3.157  0.00  0.00     0.030 C 
HETATM   50  C   UNK N   1      20.410  18.419   3.842  0.00  0.00     0.007 C 
ENDBRANCH  40  49
ENDBRANCH   5  30
TORSDOF 10
ENDMDL
MODEL 5
REMARK VINA RESULT:      -8.5      3.931      7.561
REMARK  10 active torsions:
REMARK  status: ('A' for Active; 'I' for Inactive)
REMARK    1  A    between atoms: C_28  and  C_6 
REMARK    2  A    between atoms: C_23  and  C_21 
REMARK    3  A    between atoms: N_43  and  C_21 
REMARK    4  A    between atoms: N_45  and  C_22 
REMARK    5  A    between atoms: C_32  and  C_24 
REMARK    6  A    between atoms: C_25  and  N_37 
REMARK    7  A    between atoms: C_26  and  N_44 
REMARK    8  A    between atoms: N_39  and  C_27 
REMARK    9  A    between atoms: O_48  and  C_30 
REMARK   10  A    between atoms: C_32  and  O_46 
REMARK       I    between atoms: N_39  and  C_34 
ROOT
HETATM    1  C   UNK N   1      35.597  13.652  16.663  0.00  0.00     0.018 A 
HETATM    2  C   UNK N   1      35.111  12.553  17.382  0.00  0.00     0.034 A 
HETATM    3  C   UNK N   1      36.878  12.175  15.261  0.00  0.00     0.054 A 
HETATM    4  C   UNK N   1      36.442  13.463  15.563  0.00  0.00     0.017 A 
HETATM    5  C   UNK N   1      35.501  11.250  17.049  0.00  0.00     0.082 A 
HETATM    6  C   UNK N   1      36.447  11.066  15.998  0.00  0.00     0.096 A 
ENDROOT
BRANCH   4   7
HETATM    7  C   UNK N   1      36.964  14.636  14.815  0.00  0.00     0.146 C 
HETATM    8  N   UNK N   1      36.788  14.825  13.542  0.00  0.00    -0.366 N 
ATOM      9  HN  UNK N   1      37.334  15.578  13.124  1.00  0.00     0.162 HD
BRANCH   8  10
HETATM   10  C   UNK N   1      35.910  14.098  12.641  0.00  0.00     0.083 C 
HETATM   11  C   UNK N   1      36.731  13.431  11.536  0.00  0.00     0.027 C 
HETATM   12  C   UNK N   1      35.816  12.802  10.482  0.00  0.00     0.027 C 
HETATM   13  C   UNK N   1      34.879  13.837   9.842  0.00  0.00     0.079 C 
HETATM   14  C   UNK N   1      34.067  14.554  10.932  0.00  0.00     0.027 C 
HETATM   15  C   UNK N   1      34.954  15.131  12.035  0.00  0.00     0.027 C 
BRANCH  13  16
HETATM   16  N   UNK N   1      35.610  14.737   8.917  0.00  0.00    -0.405 N 
HETATM   17  C   UNK N   1      35.098  16.111   8.756  0.00  0.00     0.147 C 
HETATM   18  C   UNK N   1      34.120  16.233   7.586  0.00  0.00     0.291 C 
HETATM   19  N   UNK N   1      34.748  15.738   6.366  0.00  0.00     0.091 N 
HETATM   20  C   UNK N   1      34.976  14.311   6.548  0.00  0.00     0.291 C 
HETATM   21  C   UNK N   1      36.010  14.097   7.653  0.00  0.00     0.147 C 
BRANCH  19  22
HETATM   22  C   UNK N   1      33.803  15.893   5.270  0.00  0.00     0.277 C 
BRANCH  22  23
HETATM   23  C   UNK N   1      33.247  17.307   5.245  0.00  0.00     0.014 A 
HETATM   24  C   UNK N   1      32.724  17.610   3.857  0.00  0.00     0.007 A 
HETATM   25  C   UNK N   1      31.759  17.250   4.967  0.00  0.00     0.007 A 
ENDBRANCH  22  23
ENDBRANCH  19  22
ENDBRANCH  13  16
ENDBRANCH   8  10
BRANCH   7  26
HETATM   26  O   UNK N   1      37.664  15.560  15.501  0.00  0.00    -0.346 OA
HETATM   27  H   UNK N   1      38.144  16.239  15.069  0.00  0.00     0.219 HD
ENDBRANCH   7  26
ENDBRANCH   4   7
BRANCH   6  28
HETATM   28  O   UNK N   1      36.960   9.842  15.726  0.00  0.00    -0.354 OA
HETATM   29  C   UNK N   1      38.121   9.635  15.015  0.00  0.00     0.210 C 
ENDBRANCH   6  28
BRANCH   5  30
HETATM   30  N   UNK N   1      34.976  10.165  17.820  0.00  0.00    -0.189 N 
HETATM   31  C   UNK N   1      35.481   9.786  19.093  0.00  0.00     0.684 A 
HETATM   32  N   UNK N   1      36.790  10.002  19.397  0.00  0.00    -0.199 N 
HETATM   33  N   UNK N   1      34.631   9.318  20.046  0.00  0.00    -0.174 N 
HETATM   34  C   UNK N   1      37.248   9.870  20.663  0.00  0.00     0.139 A 
ATOM     35  HN  UNK N   1      37.437  10.271  18.657  1.00  0.00     0.183 HD
HETATM   36  C   UNK N   1      36.383   9.459  21.673  0.00  0.00     0.098 A 
HETATM   37  C   UNK N   1      35.055   9.133  21.329  0.00  0.00     0.148 A 
HETATM   38  N   UNK N   1      36.778   9.498  23.047  0.00  0.00    -0.316 N 
HETATM   39  N   UNK N   1      34.153   8.710  22.363  0.00  0.00    -0.347 N 
HETATM   40  C   UNK N   1      34.764   8.157  23.570  0.00  0.00     0.178 C 
HETATM   41  C   UNK N   1      35.943   9.000  24.001  0.00  0.00     0.247 C 
HETATM   42  O   UNK N   1      36.171   9.191  25.190  0.00  0.00    -0.271 OA
HETATM   43  C   UNK N   1      37.982  10.203  23.431  0.00  0.00     0.159 C 
ATOM     44  HN  UNK N   1      33.664   9.104  19.798  1.00  0.00     0.186 HD
HETATM   45  H   UNK N   1      34.223   9.653  17.448  0.00  0.00     0.184 HD
BRANCH  39  46
HETATM   46  C   UNK N   1      32.745   8.443  22.092  0.00  0.00     0.079 C 
HETATM   47  C   UNK N   1      31.992   9.661  21.578  0.00  0.00     0.032 C 
HETATM   48  C   UNK N   1      32.564   7.238  21.188  0.00  0.00     0.032 C 
ENDBRANCH  39  46
BRANCH  40  49
HETATM   49  C   UNK N   1      33.778   7.809  24.697  0.00  0.00     0.030 C 
HETATM   50  C   UNK N   1      33.784   6.328  25.034  0.00  0.00     0.007 C 
ENDBRANCH  40  49
ENDBRANCH   5  30
TORSDOF 10
ENDMDL
MODEL 6
REMARK VINA RESULT:      -8.5      3.483     12.560
REMARK  10 active torsions:
REMARK  status: ('A' for Active; 'I' for Inactive)
REMARK    1  A    between atoms: C_28  and  C_6 
REMARK    2  A    between atoms: C_23  and  C_21 
REMARK    3  A    between atoms: N_43  and  C_21 
REMARK    4  A    between atoms: N_45  and  C_22 
REMARK    5  A    between atoms: C_32  and  C_24 
REMARK    6  A    between atoms: C_25  and  N_37 
REMARK    7  A    between atoms: C_26  and  N_44 
REMARK    8  A    between atoms: N_39  and  C_27 
REMARK    9  A    between atoms: O_48  and  C_30 
REMARK   10  A    between atoms: C_32  and  O_46 
REMARK       I    between atoms: N_39  and  C_34 
ROOT
HETATM    1  C   UNK N   1      33.786  17.583   6.091  0.00  0.00     0.018 A 
HETATM    2  C   UNK N   1      32.819  17.248   5.135  0.00  0.00     0.034 A 
HETATM    3  C   UNK N   1      32.132  17.418   7.829  0.00  0.00     0.054 A 
HETATM    4  C   UNK N   1      33.457  17.617   7.451  0.00  0.00     0.017 A 
HETATM    5  C   UNK N   1      31.496  16.992   5.513  0.00  0.00     0.082 A 
HETATM    6  C   UNK N   1      31.138  17.133   6.886  0.00  0.00     0.096 A 
ENDROOT
BRANCH   4   7
HETATM    7  C   UNK N   1      34.486  17.988   8.457  0.00  0.00     0.146 C 
HETATM    8  N   UNK N   1      34.908  17.193   9.393  0.00  0.00    -0.366 N 
ATOM      9  HN  UNK N   1      35.489  17.622  10.113  1.00  0.00     0.162 HD
BRANCH   8  10
HETATM   10  C   UNK N   1      34.656  15.769   9.543  0.00  0.00     0.083 C 
HETATM   11  C   UNK N   1      34.404  15.435  11.014  0.00  0.00     0.027 C 
HETATM   12  C   UNK N   1      34.304  13.921  11.218  0.00  0.00     0.027 C 
HETATM   13  C   UNK N   1      35.576  13.193  10.759  0.00  0.00     0.079 C 
HETATM   14  C   UNK N   1      35.879  13.542   9.293  0.00  0.00     0.027 C 
HETATM   15  C   UNK N   1      35.915  15.049   9.047  0.00  0.00     0.027 C 
BRANCH  13  16
HETATM   16  N   UNK N   1      36.702  13.417  11.697  0.00  0.00    -0.405 N 
HETATM   17  C   UNK N   1      37.680  12.325  11.863  0.00  0.00     0.147 C 
HETATM   18  C   UNK N   1      37.322  11.395  13.023  0.00  0.00     0.291 C 
HETATM   19  N   UNK N   1      37.161  12.174  14.246  0.00  0.00     0.091 N 
HETATM   20  C   UNK N   1      36.004  13.038  14.057  0.00  0.00     0.291 C 
HETATM   21  C   UNK N   1      36.307  14.060  12.961  0.00  0.00     0.147 C 
BRANCH  19  22
HETATM   22  C   UNK N   1      36.848  11.258  15.333  0.00  0.00     0.277 C 
BRANCH  22  23
HETATM   23  C   UNK N   1      35.344  11.151  15.520  0.00  0.00     0.014 A 
HETATM   24  C   UNK N   1      34.906   9.733  15.221  0.00  0.00     0.007 A 
HETATM   25  C   UNK N   1      35.052  10.192  16.656  0.00  0.00     0.007 A 
ENDBRANCH  22  23
ENDBRANCH  19  22
ENDBRANCH  13  16
ENDBRANCH   8  10
BRANCH   7  26
HETATM   26  O   UNK N   1      35.012  19.226   8.392  0.00  0.00    -0.346 OA
HETATM   27  H   UNK N   1      35.265  19.613   7.577  0.00  0.00     0.219 HD
ENDBRANCH   7  26
ENDBRANCH   4   7
BRANCH   6  28
HETATM   28  O   UNK N   1      29.846  17.030   7.285  0.00  0.00    -0.354 OA
HETATM   29  C   UNK N   1      28.985  18.100   7.384  0.00  0.00     0.210 C 
ENDBRANCH   6  28
BRANCH   5  30
HETATM   30  N   UNK N   1      30.549  16.657   4.494  0.00  0.00    -0.189 N 
HETATM   31  C   UNK N   1      30.133  15.328   4.212  0.00  0.00     0.684 A 
HETATM   32  N   UNK N   1      30.978  14.287   4.444  0.00  0.00    -0.199 N 
HETATM   33  N   UNK N   1      28.851  15.088   3.823  0.00  0.00    -0.174 N 
HETATM   34  C   UNK N   1      30.542  13.007   4.407  0.00  0.00     0.139 A 
ATOM     35  HN  UNK N   1      31.959  14.475   4.651  1.00  0.00     0.183 HD
HETATM   36  C   UNK N   1      29.217  12.736   4.080  0.00  0.00     0.098 A 
HETATM   37  C   UNK N   1      28.376  13.813   3.736  0.00  0.00     0.148 A 
HETATM   38  N   UNK N   1      28.674  11.420   4.224  0.00  0.00    -0.316 N 
HETATM   39  N   UNK N   1      27.006  13.546   3.399  0.00  0.00    -0.347 N 
HETATM   40  C   UNK N   1      26.704  12.192   2.938  0.00  0.00     0.178 C 
HETATM   41  C   UNK N   1      27.401  11.169   3.805  0.00  0.00     0.247 C 
HETATM   42  O   UNK N   1      26.851  10.111   4.086  0.00  0.00    -0.271 OA
HETATM   43  C   UNK N   1      29.413  10.410   4.949  0.00  0.00     0.159 C 
ATOM     44  HN  UNK N   1      28.239  15.872   3.596  1.00  0.00     0.186 HD
HETATM   45  H   UNK N   1      30.165  17.387   3.958  0.00  0.00     0.184 HD
BRANCH  39  46
HETATM   46  C   UNK N   1      26.060  14.620   3.119  0.00  0.00     0.079 C 
HETATM   47  C   UNK N   1      25.820  15.533   4.313  0.00  0.00     0.032 C 
HETATM   48  C   UNK N   1      26.443  15.398   1.874  0.00  0.00     0.032 C 
ENDBRANCH  39  46
BRANCH  40  49
HETATM   49  C   UNK N   1      25.215  11.909   2.683  0.00  0.00     0.030 C 
HETATM   50  C   UNK N   1      24.902  11.743   1.207  0.00  0.00     0.007 C 
ENDBRANCH  40  49
ENDBRANCH   5  30
TORSDOF 10
ENDMDL
MODEL 7
REMARK VINA RESULT:      -8.2      3.539     14.002
REMARK  10 active torsions:
REMARK  status: ('A' for Active; 'I' for Inactive)
REMARK    1  A    between atoms: C_28  and  C_6 
REMARK    2  A    between atoms: C_23  and  C_21 
REMARK    3  A    between atoms: N_43  and  C_21 
REMARK    4  A    between atoms: N_45  and  C_22 
REMARK    5  A    between atoms: C_32  and  C_24 
REMARK    6  A    between atoms: C_25  and  N_37 
REMARK    7  A    between atoms: C_26  and  N_44 
REMARK    8  A    between atoms: N_39  and  C_27 
REMARK    9  A    between atoms: O_48  and  C_30 
REMARK   10  A    between atoms: C_32  and  O_46 
REMARK       I    between atoms: N_39  and  C_34 
ROOT
HETATM    1  C   UNK N   1      29.564  14.876   4.407  0.00  0.00     0.018 A 
HETATM    2  C   UNK N   1      28.193  14.898   4.690  0.00  0.00     0.034 A 
HETATM    3  C   UNK N   1      29.938  16.585   6.057  0.00  0.00     0.054 A 
HETATM    4  C   UNK N   1      30.451  15.683   5.129  0.00  0.00     0.017 A 
HETATM    5  C   UNK N   1      27.676  15.764   5.662  0.00  0.00     0.082 A 
HETATM    6  C   UNK N   1      28.566  16.662   6.320  0.00  0.00     0.096 A 
ENDROOT
BRANCH   4   7
HETATM    7  C   UNK N   1      31.903  15.663   4.810  0.00  0.00     0.146 C 
HETATM    8  N   UNK N   1      32.836  15.999   5.649  0.00  0.00    -0.366 N 
ATOM      9  HN  UNK N   1      33.772  16.100   5.257  1.00  0.00     0.162 HD
BRANCH   8  10
HETATM   10  C   UNK N   1      32.713  16.249   7.075  0.00  0.00     0.083 C 
HETATM   11  C   UNK N   1      33.947  16.995   7.583  0.00  0.00     0.027 C 
HETATM   12  C   UNK N   1      33.918  17.120   9.109  0.00  0.00     0.027 C 
HETATM   13  C   UNK N   1      33.855  15.748   9.797  0.00  0.00     0.079 C 
HETATM   14  C   UNK N   1      32.645  14.956   9.276  0.00  0.00     0.027 C 
HETATM   15  C   UNK N   1      32.612  14.877   7.751  0.00  0.00     0.027 C 
BRANCH  13  16
HETATM   16  N   UNK N   1      35.151  15.033   9.709  0.00  0.00    -0.405 N 
HETATM   17  C   UNK N   1      35.118  13.558   9.721  0.00  0.00     0.147 C 
HETATM   18  C   UNK N   1      35.264  12.984  11.131  0.00  0.00     0.291 C 
HETATM   19  N   UNK N   1      36.476  13.508  11.751  0.00  0.00     0.091 N 
HETATM   20  C   UNK N   1      36.287  14.942  11.923  0.00  0.00     0.291 C 
HETATM   21  C   UNK N   1      36.211  15.612  10.551  0.00  0.00     0.147 C 
BRANCH  19  22
HETATM   22  C   UNK N   1      36.600  12.922  13.079  0.00  0.00     0.277 C 
BRANCH  22  23
HETATM   23  C   UNK N   1      36.158  13.917  14.140  0.00  0.00     0.014 A 
HETATM   24  C   UNK N   1      35.411  13.180  15.230  0.00  0.00     0.007 A 
HETATM   25  C   UNK N   1      36.853  13.588  15.446  0.00  0.00     0.007 A 
ENDBRANCH  22  23
ENDBRANCH  19  22
ENDBRANCH  13  16
ENDBRANCH   8  10
BRANCH   7  26
HETATM   26  O   UNK N   1      32.271  15.273   3.575  0.00  0.00    -0.346 OA
HETATM   27  H   UNK N   1      32.420  14.372   3.365  0.00  0.00     0.219 HD
ENDBRANCH   7  26
ENDBRANCH   4   7
BRANCH   6  28
HETATM   28  O   UNK N   1      28.100  17.612   7.168  0.00  0.00    -0.354 OA
HETATM   29  C   UNK N   1      28.162  17.515   8.540  0.00  0.00     0.210 C 
ENDBRANCH   6  28
BRANCH   5  30
HETATM   30  N   UNK N   1      26.266  15.746   5.909  0.00  0.00    -0.189 N 
HETATM   31  C   UNK N   1      25.382  16.779   5.496  0.00  0.00     0.684 A 
HETATM   32  N   UNK N   1      25.835  18.057   5.384  0.00  0.00    -0.199 N 
HETATM   33  N   UNK N   1      24.118  16.469   5.100  0.00  0.00    -0.174 N 
HETATM   34  C   UNK N   1      25.093  19.014   4.780  0.00  0.00     0.139 A 
ATOM     35  HN  UNK N   1      26.751  18.298   5.762  1.00  0.00     0.183 HD
HETATM   36  C   UNK N   1      23.823  18.708   4.303  0.00  0.00     0.098 A 
HETATM   37  C   UNK N   1      23.319  17.409   4.519  0.00  0.00     0.148 A 
HETATM   38  N   UNK N   1      23.096  19.632   3.489  0.00  0.00    -0.316 N 
HETATM   39  N   UNK N   1      22.010  17.081   4.029  0.00  0.00    -0.347 N 
HETATM   40  C   UNK N   1      21.099  18.202   3.809  0.00  0.00     0.178 C 
HETATM   41  C   UNK N   1      21.817  19.340   3.118  0.00  0.00     0.247 C 
HETATM   42  O   UNK N   1      21.243  20.017   2.274  0.00  0.00    -0.271 OA
HETATM   43  C   UNK N   1      23.765  20.789   2.937  0.00  0.00     0.159 C 
ATOM     44  HN  UNK N   1      23.765  15.522   5.239  1.00  0.00     0.186 HD
HETATM   45  H   UNK N   1      25.889  14.976   6.391  0.00  0.00     0.184 HD
BRANCH  39  46
HETATM   46  C   UNK N   1      21.464  15.733   4.141  0.00  0.00     0.079 C 
HETATM   47  C   UNK N   1      22.221  14.709   3.307  0.00  0.00     0.032 C 
HETATM   48  C   UNK N   1      21.325  15.300   5.588  0.00  0.00     0.032 C 
ENDBRANCH  39  46
BRANCH  40  49
HETATM   49  C   UNK N   1      19.744  17.828   3.188  0.00  0.00     0.030 C 
HETATM   50  C   UNK N   1      19.878  17.341   1.756  0.00  0.00     0.007 C 
ENDBRANCH  40  49
ENDBRANCH   5  30
TORSDOF 10
ENDMDL
MODEL 8
REMARK VINA RESULT:      -7.9      4.088     12.802
REMARK  10 active torsions:
REMARK  status: ('A' for Active; 'I' for Inactive)
REMARK    1  A    between atoms: C_28  and  C_6 
REMARK    2  A    between atoms: C_23  and  C_21 
REMARK    3  A    between atoms: N_43  and  C_21 
REMARK    4  A    between atoms: N_45  and  C_22 
REMARK    5  A    between atoms: C_32  and  C_24 
REMARK    6  A    between atoms: C_25  and  N_37 
REMARK    7  A    between atoms: C_26  and  N_44 
REMARK    8  A    between atoms: N_39  and  C_27 
REMARK    9  A    between atoms: O_48  and  C_30 
REMARK   10  A    between atoms: C_32  and  O_46 
REMARK       I    between atoms: N_39  and  C_34 
ROOT
HETATM    1  C   UNK N   1      30.914  14.654   2.760  0.00  0.00     0.018 A 
HETATM    2  C   UNK N   1      29.542  14.428   2.602  0.00  0.00     0.034 A 
HETATM    3  C   UNK N   1      30.456  16.847   3.636  0.00  0.00     0.054 A 
HETATM    4  C   UNK N   1      31.375  15.848   3.329  0.00  0.00     0.017 A 
HETATM    5  C   UNK N   1      28.608  15.408   2.960  0.00  0.00     0.082 A 
HETATM    6  C   UNK N   1      29.083  16.664   3.439  0.00  0.00     0.096 A 
ENDROOT
BRANCH   4   7
HETATM    7  C   UNK N   1      32.835  16.086   3.480  0.00  0.00     0.146 C 
HETATM    8  N   UNK N   1      33.396  16.493   4.578  0.00  0.00    -0.366 N 
ATOM      9  HN  UNK N   1      34.373  16.773   4.501  1.00  0.00     0.162 HD
BRANCH   8  10
HETATM   10  C   UNK N   1      32.806  16.598   5.902  0.00  0.00     0.083 C 
HETATM   11  C   UNK N   1      33.658  17.511   6.783  0.00  0.00     0.027 C 
HETATM   12  C   UNK N   1      33.151  17.503   8.228  0.00  0.00     0.027 C 
HETATM   13  C   UNK N   1      33.157  16.091   8.832  0.00  0.00     0.079 C 
HETATM   14  C   UNK N   1      32.340  15.138   7.945  0.00  0.00     0.027 C 
HETATM   15  C   UNK N   1      32.781  15.179   6.482  0.00  0.00     0.027 C 
BRANCH  13  16
HETATM   16  N   UNK N   1      34.535  15.632   9.133  0.00  0.00    -0.405 N 
HETATM   17  C   UNK N   1      34.785  14.178   9.135  0.00  0.00     0.147 C 
HETATM   18  C   UNK N   1      34.622  13.562  10.526  0.00  0.00     0.291 C 
HETATM   19  N   UNK N   1      35.476  14.264  11.477  0.00  0.00     0.091 N 
HETATM   20  C   UNK N   1      34.973  15.627  11.584  0.00  0.00     0.291 C 
HETATM   21  C   UNK N   1      35.172  16.348  10.251  0.00  0.00     0.147 C 
BRANCH  19  22
HETATM   22  C   UNK N   1      35.318  13.638  12.782  0.00  0.00     0.277 C 
BRANCH  22  23
HETATM   23  C   UNK N   1      36.673  13.436  13.440  0.00  0.00     0.014 A 
HETATM   24  C   UNK N   1      36.708  14.199  14.747  0.00  0.00     0.007 A 
HETATM   25  C   UNK N   1      36.481  12.702  14.752  0.00  0.00     0.007 A 
ENDBRANCH  22  23
ENDBRANCH  19  22
ENDBRANCH  13  16
ENDBRANCH   8  10
BRANCH   7  26
HETATM   26  O   UNK N   1      33.622  15.865   2.410  0.00  0.00    -0.346 OA
HETATM   27  H   UNK N   1      33.925  16.565   1.866  0.00  0.00     0.219 HD
ENDBRANCH   7  26
ENDBRANCH   4   7
BRANCH   6  28
HETATM   28  O   UNK N   1      28.230  17.691   3.670  0.00  0.00    -0.354 OA
HETATM   29  C   UNK N   1      28.391  18.611   4.682  0.00  0.00     0.210 C 
ENDBRANCH   6  28
BRANCH   5  30
HETATM   30  N   UNK N   1      27.217  15.123   2.774  0.00  0.00    -0.189 N 
HETATM   31  C   UNK N   1      26.379  14.595   3.791  0.00  0.00     0.684 A 
HETATM   32  N   UNK N   1      26.906  13.801   4.763  0.00  0.00    -0.199 N 
HETATM   33  N   UNK N   1      25.075  14.978   3.861  0.00  0.00    -0.174 N 
HETATM   34  C   UNK N   1      26.193  13.473   5.865  0.00  0.00     0.139 A 
ATOM     35  HN  UNK N   1      27.857  13.448   4.660  1.00  0.00     0.183 HD
HETATM   36  C   UNK N   1      24.879  13.910   5.995  0.00  0.00     0.098 A 
HETATM   37  C   UNK N   1      24.305  14.641   4.934  0.00  0.00     0.148 A 
HETATM   38  N   UNK N   1      24.164  13.752   7.224  0.00  0.00    -0.316 N 
HETATM   39  N   UNK N   1      22.950  15.099   5.058  0.00  0.00    -0.347 N 
HETATM   40  C   UNK N   1      22.103  14.371   6.001  0.00  0.00     0.178 C 
HETATM   41  C   UNK N   1      22.849  14.104   7.288  0.00  0.00     0.247 C 
HETATM   42  O   UNK N   1      22.270  14.157   8.366  0.00  0.00    -0.271 OA
HETATM   43  C   UNK N   1      24.873  13.370   8.426  0.00  0.00     0.159 C 
ATOM     44  HN  UNK N   1      24.670  15.526   3.101  1.00  0.00     0.186 HD
HETATM   45  H   UNK N   1      26.821  15.303   1.891  0.00  0.00     0.184 HD
BRANCH  39  46
HETATM   46  C   UNK N   1      22.326  15.933   4.038  0.00  0.00     0.079 C 
HETATM   47  C   UNK N   1      22.950  17.317   3.931  0.00  0.00     0.032 C 
HETATM   48  C   UNK N   1      22.263  15.230   2.695  0.00  0.00     0.032 C 
ENDBRANCH  39  46
BRANCH  40  49
HETATM   49  C   UNK N   1      20.690  14.948   6.186  0.00  0.00     0.030 C 
HETATM   50  C   UNK N   1      19.637  14.150   5.439  0.00  0.00     0.007 C 
ENDBRANCH  40  49
ENDBRANCH   5  30
TORSDOF 10
ENDMDL
MODEL 9
REMARK VINA RESULT:      -7.9      4.191     13.781
REMARK  10 active torsions:
REMARK  status: ('A' for Active; 'I' for Inactive)
REMARK    1  A    between atoms: C_28  and  C_6 
REMARK    2  A    between atoms: C_23  and  C_21 
REMARK    3  A    between atoms: N_43  and  C_21 
REMARK    4  A    between atoms: N_45  and  C_22 
REMARK    5  A    between atoms: C_32  and  C_24 
REMARK    6  A    between atoms: C_25  and  N_37 
REMARK    7  A    between atoms: C_26  and  N_44 
REMARK    8  A    between atoms: N_39  and  C_27 
REMARK    9  A    between atoms: O_48  and  C_30 
REMARK   10  A    between atoms: C_32  and  O_46 
REMARK       I    between atoms: N_39  and  C_34 
ROOT
HETATM    1  C   UNK N   1      29.997  15.152   5.160  0.00  0.00     0.018 A 
HETATM    2  C   UNK N   1      28.619  15.288   5.365  0.00  0.00     0.034 A 
HETATM    3  C   UNK N   1      30.153  17.491   4.623  0.00  0.00     0.054 A 
HETATM    4  C   UNK N   1      30.780  16.268   4.839  0.00  0.00     0.017 A 
HETATM    5  C   UNK N   1      27.989  16.528   5.204  0.00  0.00     0.082 A 
HETATM    6  C   UNK N   1      28.769  17.641   4.772  0.00  0.00     0.096 A 
ENDROOT
BRANCH   4   7
HETATM    7  C   UNK N   1      32.240  16.111   4.607  0.00  0.00     0.146 C 
HETATM    8  N   UNK N   1      33.145  16.298   5.520  0.00  0.00    -0.366 N 
ATOM      9  HN  UNK N   1      34.110  16.319   5.192  1.00  0.00     0.162 HD
BRANCH   8  10
HETATM   10  C   UNK N   1      32.954  16.479   6.949  0.00  0.00     0.083 C 
HETATM   11  C   UNK N   1      34.179  17.161   7.558  0.00  0.00     0.027 C 
HETATM   12  C   UNK N   1      34.074  17.210   9.084  0.00  0.00     0.027 C 
HETATM   13  C   UNK N   1      33.937  15.808   9.697  0.00  0.00     0.079 C 
HETATM   14  C   UNK N   1      32.735  15.079   9.074  0.00  0.00     0.027 C 
HETATM   15  C   UNK N   1      32.781  15.078   7.547  0.00  0.00     0.027 C 
BRANCH  13  16
HETATM   16  N   UNK N   1      35.216  15.060   9.638  0.00  0.00    -0.405 N 
HETATM   17  C   UNK N   1      35.144  13.586   9.617  0.00  0.00     0.147 C 
HETATM   18  C   UNK N   1      35.226  12.980  11.019  0.00  0.00     0.291 C 
HETATM   19  N   UNK N   1      36.428  13.458  11.692  0.00  0.00     0.091 N 
HETATM   20  C   UNK N   1      36.271  14.893  11.887  0.00  0.00     0.291 C 
HETATM   21  C   UNK N   1      36.261  15.592  10.529  0.00  0.00     0.147 C 
BRANCH  19  22
HETATM   22  C   UNK N   1      36.490  12.842  13.010  0.00  0.00     0.277 C 
BRANCH  22  23
HETATM   23  C   UNK N   1      36.037  13.826  14.076  0.00  0.00     0.014 A 
HETATM   24  C   UNK N   1      35.395  13.063  15.215  0.00  0.00     0.007 A 
HETATM   25  C   UNK N   1      36.815  13.569  15.350  0.00  0.00     0.007 A 
ENDBRANCH  22  23
ENDBRANCH  19  22
ENDBRANCH  13  16
ENDBRANCH   8  10
BRANCH   7  26
HETATM   26  O   UNK N   1      32.647  15.753   3.375  0.00  0.00    -0.346 OA
HETATM   27  H   UNK N   1      33.372  15.173   3.242  0.00  0.00     0.219 HD
ENDBRANCH   7  26
ENDBRANCH   4   7
BRANCH   6  28
HETATM   28  O   UNK N   1      28.187  18.827   4.469  0.00  0.00    -0.354 OA
HETATM   29  C   UNK N   1      28.006  19.847   5.376  0.00  0.00     0.210 C 
ENDBRANCH   6  28
BRANCH   5  30
HETATM   30  N   UNK N   1      26.577  16.609   5.425  0.00  0.00    -0.189 N 
HETATM   31  C   UNK N   1      25.607  16.172   4.483  0.00  0.00     0.684 A 
HETATM   32  N   UNK N   1      25.888  16.206   3.152  0.00  0.00    -0.199 N 
HETATM   33  N   UNK N   1      24.446  15.612   4.918  0.00  0.00    -0.174 N 
HETATM   34  C   UNK N   1      25.089  15.591   2.250  0.00  0.00     0.139 A 
ATOM     35  HN  UNK N   1      26.718  16.703   2.828  1.00  0.00     0.183 HD
HETATM   36  C   UNK N   1      23.930  14.949   2.675  0.00  0.00     0.098 A 
HETATM   37  C   UNK N   1      23.590  15.011   4.042  0.00  0.00     0.148 A 
HETATM   38  N   UNK N   1      23.171  14.126   1.785  0.00  0.00    -0.316 N 
HETATM   39  N   UNK N   1      22.398  14.351   4.493  0.00  0.00    -0.347 N 
HETATM   40  C   UNK N   1      21.369  14.109   3.483  0.00  0.00     0.178 C 
HETATM   41  C   UNK N   1      21.991  13.590   2.207  0.00  0.00     0.247 C 
HETATM   42  O   UNK N   1      21.421  12.736   1.538  0.00  0.00    -0.271 OA
HETATM   43  C   UNK N   1      23.729  13.740   0.507  0.00  0.00     0.159 C 
ATOM     44  HN  UNK N   1      24.215  15.640   5.911  1.00  0.00     0.186 HD
HETATM   45  H   UNK N   1      26.261  16.987   6.276  0.00  0.00     0.184 HD
BRANCH  39  46
HETATM   46  C   UNK N   1      22.035  14.302   5.904  0.00  0.00     0.079 C 
HETATM   47  C   UNK N   1      23.009  13.491   6.746  0.00  0.00     0.032 C 
HETATM   48  C   UNK N   1      21.804  15.688   6.476  0.00  0.00     0.032 C 
ENDBRANCH  39  46
BRANCH  40  49
HETATM   49  C   UNK N   1      20.151  13.311   3.974  0.00  0.00     0.030 C 
HETATM   50  C   UNK N   1      18.928  14.188   4.176  0.00  0.00     0.007 C 
ENDBRANCH  40  49
ENDBRANCH   5  30
TORSDOF 10
ENDMDL
