REMARK  8 active torsions:
REMARK  status: ('A' for Active; 'I' for Inactive)
REMARK    1  A    between atoms: C_2  and  C_3 
REMARK    2  A    between atoms: C_2  and  N_35 
REMARK       I    between atoms: C_3  and  N_5 
REMARK    3  A    between atoms: C_6  and  N_5 
REMARK    4  A    between atoms: C_6  and  C_7 
REMARK    5  A    between atoms: C_6  and  C_13 
REMARK       I    between atoms: C_13  and  N_15 
REMARK    6  A    between atoms: C_19  and  C_20 
REMARK    7  A    between atoms: C_23  and  C_26 
REMARK    8  A    between atoms: C_26  and  C_28 
ROOT
HETATM    1  C   UNK N   1       4.086  -3.472   0.543  0.00  0.00     0.243 C 
HETATM    2  O   UNK N   1       4.512  -3.140   1.644  0.00  0.00    -0.271 OA
HETATM    3  N   UNK N   1       2.784  -3.844   0.408  0.00  0.00    -0.340 N 
HETATM    4  C   UNK N   1       1.910  -4.035   1.527  0.00  0.00     0.127 C 
HETATM    5  C   UNK N   1       0.641  -4.628   0.923  0.00  0.00     0.022 C 
HETATM    6  C   UNK N   1       0.940  -4.854  -0.565  0.00  0.00     0.034 C 
HETATM    7  C   UNK N   1       2.148  -3.988  -0.875  0.00  0.00     0.144 C 
ENDROOT
BRANCH   1   8
HETATM    8  C   UNK N   1       5.051  -3.693  -0.600  0.00  0.00     0.181 C 
BRANCH   8   9
HETATM    9  N   UNK N   1       6.285  -2.924  -0.501  0.00  0.00    -0.346 N 
HETATM   10  C   UNK N   1       7.235  -3.045   0.465  0.00  0.00     0.240 C 
HETATM   11  O   UNK N   1       7.140  -3.897   1.333  0.00  0.00    -0.271 OA
HETATM   12  H   UNK N   1       6.447  -2.251  -1.202  0.00  0.00     0.163 HD
BRANCH  10  13
HETATM   13  C   UNK N   1       8.399  -2.098   0.492  0.00  0.00     0.165 C 
HETATM   14  C   UNK N   1       7.908  -0.666   0.617  0.00  0.00     0.042 C 
BRANCH  13  15
HETATM   15  N   UNK N   1       9.207  -2.233  -0.708  0.00  0.00    -0.414 N 
HETATM   16  C   UNK N   1      10.343  -3.070  -0.361  0.00  0.00     0.140 C 
HETATM   17  H   UNK N   1       9.014  -1.819  -1.620  0.00  0.00     0.153 HD
ENDBRANCH  13  15
ENDBRANCH  10  13
ENDBRANCH   8   9
BRANCH   8  18
HETATM   18  C   UNK N   1       5.224  -5.228  -0.735  0.00  0.00     0.018 C 
HETATM   19  C   UNK N   1       6.283  -5.747  -1.710  0.00  0.00     0.007 C 
HETATM   20  C   UNK N   1       6.490  -7.271  -1.563  0.00  0.00     0.000 C 
HETATM   21  C   UNK N   1       5.234  -7.985  -1.044  0.00  0.00     0.000 C 
HETATM   22  C   UNK N   1       4.803  -7.458   0.333  0.00  0.00     0.000 C 
HETATM   23  C   UNK N   1       5.249  -6.016   0.583  0.00  0.00     0.007 C 
ENDBRANCH   8  18
ENDBRANCH   1   8
BRANCH   7  24
HETATM   24  C   UNK N   1       1.680  -2.596  -1.175  0.00  0.00     0.074 A 
HETATM   25  N   UNK N   1       0.819  -1.952  -0.345  0.00  0.00    -0.349 N 
HETATM   26  C   UNK N   1       0.909  -0.592  -0.447  0.00  0.00     0.091 A 
ATOM     27  HN  UNK N   1       0.175  -2.431   0.285  1.00  0.00     0.166 HD
HETATM   28  C   UNK N   1       1.866  -0.115  -1.370  0.00  0.00     0.085 A 
HETATM   29  S   UNK N   1       2.567  -1.476  -1.995  0.00  0.00    -0.084 SA
BRANCH  26  30
HETATM   30  C   UNK N   1       0.118   0.307   0.413  0.00  0.00     0.209 C 
HETATM   31  O   UNK N   1      -0.804  -0.114   1.096  0.00  0.00    -0.285 OA
BRANCH  30  32
HETATM   32  C   UNK N   1       0.471   1.721   0.410  0.00  0.00     0.017 A 
HETATM   33  C   UNK N   1      -0.302   2.614  -0.334  0.00  0.00     0.018 A 
HETATM   34  C   UNK N   1       0.201   3.883  -0.630  0.00  0.00     0.043 A 
HETATM   35  C   UNK N   1       1.478   4.251  -0.191  0.00  0.00     0.116 A 
HETATM   36  C   UNK N   1       2.243   3.364   0.567  0.00  0.00     0.043 A 
HETATM   37  F   UNK N   1       1.988   5.457  -0.528  0.00  0.00    -0.206 F 
HETATM   38  C   UNK N   1       1.751   2.092   0.843  0.00  0.00     0.018 A 
ENDBRANCH  30  32
ENDBRANCH  26  30
ENDBRANCH   7  24
TORSDOF 8
