MODEL 1
REMARK VINA RESULT:      -8.8      0.000      0.000
REMARK  8 active torsions:
REMARK  status: ('A' for Active; 'I' for Inactive)
REMARK    1  A    between atoms: O_2  and  C_3 
REMARK    2  A    between atoms: C_7  and  N_9 
REMARK       I    between atoms: N_12  and  C_15 
REMARK    3  A    between atoms: C_25  and  C_39 
REMARK    4  A    between atoms: N_26  and  C_27 
REMARK    5  A    between atoms: C_29  and  C_35 
REMARK    6  A    between atoms: C_32  and  O_33 
REMARK    7  A    between atoms: C_39  and  C_40 
REMARK    8  A    between atoms: C_40  and  O_42 
ROOT
HETATM    1  N   UNK N   1      23.944  13.740   7.975  0.00  0.00    -0.378 N 
HETATM    2  C   UNK N   1      23.117  13.685   6.779  0.00  0.00     0.143 C 
HETATM    3  C   UNK N   1      23.751  14.265   5.521  0.00  0.00     0.161 C 
HETATM    4  N   UNK N   1      24.450  15.447   5.895  0.00  0.00    -0.214 N 
HETATM    5  C   UNK N   1      25.596  15.195   6.742  0.00  0.00     0.161 C 
HETATM    6  C   UNK N   1      25.206  14.471   8.033  0.00  0.00     0.143 C 
HETATM    7  C   UNK N   1      24.363  16.722   5.207  0.00  0.00     0.684 A 
HETATM    8  N   UNK N   1      25.433  17.440   5.289  0.00  0.00    -0.188 N 
ATOM      9  HN  UNK N   1      26.148  17.132   5.948  1.00  0.00     0.184 HD
HETATM   10  C   UNK N   1      25.703  18.601   4.558  0.00  0.00     0.096 A 
HETATM   11  C   UNK N   1      24.775  19.076   3.651  0.00  0.00    -0.004 A 
HETATM   12  C   UNK N   1      25.108  20.190   2.858  0.00  0.00     0.012 A 
HETATM   13  C   UNK N   1      26.345  20.822   2.996  0.00  0.00     0.004 A 
HETATM   14  C   UNK N   1      27.263  20.348   3.932  0.00  0.00     0.045 A 
HETATM   15  C   UNK N   1      26.947  19.234   4.709  0.00  0.00     0.144 A 
HETATM   16  F   UNK N   1      27.853  18.759   5.599  0.00  0.00    -0.204 F 
HETATM   17  C   UNK N   1      23.413  18.423   3.549  0.00  0.00     0.153 A 
HETATM   18  N   UNK N   1      23.229  17.179   4.351  0.00  0.00    -0.171 N 
ENDROOT
BRANCH  18  19
HETATM   19  C   UNK N   1      21.892  16.544   4.305  0.00  0.00     0.086 A 
HETATM   20  C   UNK N   1      21.452  15.841   3.165  0.00  0.00     0.049 A 
HETATM   21  C   UNK N   1      20.187  15.232   3.075  0.00  0.00     0.050 A 
HETATM   22  C   UNK N   1      19.349  15.244   4.177  0.00  0.00     0.019 A 
HETATM   23  C   UNK N   1      19.738  15.897   5.331  0.00  0.00     0.040 A 
HETATM   24  C   UNK N   1      20.973  16.567   5.419  0.00  0.00     0.095 A 
BRANCH  21  25
HETATM   25  C   UNK N   1      19.693  14.634   1.781  0.00  0.00     0.417 C 
HETATM   26  F   UNK N   1      19.212  15.623   0.946  0.00  0.00    -0.166 F 
HETATM   27  F   UNK N   1      20.704  13.950   1.126  0.00  0.00    -0.166 F 
HETATM   28  F   UNK N   1      18.689  13.721   2.050  0.00  0.00    -0.166 F 
ENDBRANCH  21  25
BRANCH  24  29
HETATM   29  O   UNK N   1      21.255  17.240   6.561  0.00  0.00    -0.354 OA
HETATM   30  C   UNK N   1      20.410  17.262   7.652  0.00  0.00     0.210 C 
ENDBRANCH  24  29
ENDBRANCH  18  19
BRANCH  17  31
HETATM   31  C   UNK N   1      22.358  19.485   3.939  0.00  0.00     0.141 C 
BRANCH  31  32
HETATM   32  C   UNK N   1      21.626  20.045   2.745  0.00  0.00     0.141 C 
HETATM   33  O   UNK N   1      21.039  19.294   1.987  0.00  0.00    -0.650 OA
BRANCH  32  34
HETATM   34  O   UNK N   1      21.571  21.375   2.538  0.00  0.00    -0.776 OA
HETATM   35  H   UNK N   1      21.585  22.014   1.852  0.00  0.00     0.167 HD
ENDBRANCH  32  34
ENDBRANCH  31  32
ENDBRANCH  17  31
BRANCH   1  36
HETATM   36  C   UNK N   1      23.482  13.065   9.144  0.00  0.00     0.032 A 
HETATM   37  C   UNK N   1      24.395  12.530  10.068  0.00  0.00     0.029 A 
HETATM   38  C   UNK N   1      23.944  11.883  11.220  0.00  0.00     0.005 A 
HETATM   39  C   UNK N   1      22.575  11.811  11.488  0.00  0.00     0.037 A 
HETATM   40  C   UNK N   1      21.651  12.369  10.599  0.00  0.00     0.070 A 
HETATM   41  C   UNK N   1      22.109  12.973   9.415  0.00  0.00     0.066 A 
BRANCH  40  42
HETATM   42  O   UNK N   1      20.336  12.345  10.919  0.00  0.00    -0.356 OA
HETATM   43  C   UNK N   1      19.859  11.806  12.093  0.00  0.00     0.210 C 
ENDBRANCH  40  42
ENDBRANCH   1  36
TORSDOF 8
ENDMDL
MODEL 2
REMARK VINA RESULT:      -8.1      4.030      7.113
REMARK  8 active torsions:
REMARK  status: ('A' for Active; 'I' for Inactive)
REMARK    1  A    between atoms: O_2  and  C_3 
REMARK    2  A    between atoms: C_7  and  N_9 
REMARK       I    between atoms: N_12  and  C_15 
REMARK    3  A    between atoms: C_25  and  C_39 
REMARK    4  A    between atoms: N_26  and  C_27 
REMARK    5  A    between atoms: C_29  and  C_35 
REMARK    6  A    between atoms: C_32  and  O_33 
REMARK    7  A    between atoms: C_39  and  C_40 
REMARK    8  A    between atoms: C_40  and  O_42 
ROOT
HETATM    1  N   UNK N   1      27.597  17.490   6.279  0.00  0.00    -0.378 N 
HETATM    2  C   UNK N   1      27.190  16.144   5.901  0.00  0.00     0.143 C 
HETATM    3  C   UNK N   1      26.247  16.060   4.707  0.00  0.00     0.161 C 
HETATM    4  N   UNK N   1      25.306  17.122   4.824  0.00  0.00    -0.214 N 
HETATM    5  C   UNK N   1      25.898  18.434   4.670  0.00  0.00     0.161 C 
HETATM    6  C   UNK N   1      27.000  18.690   5.700  0.00  0.00     0.143 C 
HETATM    7  C   UNK N   1      23.870  16.986   4.670  0.00  0.00     0.684 A 
HETATM    8  N   UNK N   1      23.284  18.048   4.227  0.00  0.00    -0.188 N 
ATOM      9  HN  UNK N   1      23.839  18.903   4.192  1.00  0.00     0.184 HD
HETATM   10  C   UNK N   1      21.958  18.135   3.790  0.00  0.00     0.096 A 
HETATM   11  C   UNK N   1      21.149  17.015   3.815  0.00  0.00    -0.004 A 
HETATM   12  C   UNK N   1      19.850  17.102   3.281  0.00  0.00     0.012 A 
HETATM   13  C   UNK N   1      19.373  18.304   2.754  0.00  0.00     0.004 A 
HETATM   14  C   UNK N   1      20.190  19.433   2.757  0.00  0.00     0.045 A 
HETATM   15  C   UNK N   1      21.485  19.349   3.268  0.00  0.00     0.144 A 
HETATM   16  F   UNK N   1      22.287  20.442   3.245  0.00  0.00    -0.204 F 
HETATM   17  C   UNK N   1      21.652  15.732   4.443  0.00  0.00     0.153 A 
HETATM   18  N   UNK N   1      23.084  15.732   4.858  0.00  0.00    -0.171 N 
ENDROOT
BRANCH  18  19
HETATM   19  C   UNK N   1      23.591  14.505   5.515  0.00  0.00     0.086 A 
HETATM   20  C   UNK N   1      23.728  14.426   6.916  0.00  0.00     0.049 A 
HETATM   21  C   UNK N   1      24.215  13.284   7.580  0.00  0.00     0.050 A 
HETATM   22  C   UNK N   1      24.503  12.145   6.847  0.00  0.00     0.019 A 
HETATM   23  C   UNK N   1      24.363  12.157   5.473  0.00  0.00     0.040 A 
HETATM   24  C   UNK N   1      23.939  13.309   4.783  0.00  0.00     0.095 A 
BRANCH  21  25
HETATM   25  C   UNK N   1      24.502  13.299   9.061  0.00  0.00     0.417 C 
HETATM   26  F   UNK N   1      25.581  14.116   9.334  0.00  0.00    -0.166 F 
HETATM   27  F   UNK N   1      23.407  13.751   9.779  0.00  0.00    -0.166 F 
HETATM   28  F   UNK N   1      24.770  12.012   9.491  0.00  0.00    -0.166 F 
ENDBRANCH  21  25
BRANCH  24  29
HETATM   29  O   UNK N   1      23.890  13.263   3.431  0.00  0.00    -0.354 OA
HETATM   30  C   UNK N   1      22.878  12.632   2.733  0.00  0.00     0.210 C 
ENDBRANCH  24  29
ENDBRANCH  18  19
BRANCH  17  31
HETATM   31  C   UNK N   1      20.734  15.412   5.646  0.00  0.00     0.141 C 
BRANCH  31  32
HETATM   32  C   UNK N   1      19.927  14.155   5.445  0.00  0.00     0.141 C 
HETATM   33  O   UNK N   1      20.427  13.069   5.679  0.00  0.00    -0.650 OA
BRANCH  32  34
HETATM   34  O   UNK N   1      18.638  14.223   5.061  0.00  0.00    -0.776 OA
HETATM   35  H   UNK N   1      17.893  14.793   5.077  0.00  0.00     0.167 HD
ENDBRANCH  32  34
ENDBRANCH  31  32
ENDBRANCH  17  31
BRANCH   1  36
HETATM   36  C   UNK N   1      28.607  17.632   7.276  0.00  0.00     0.032 A 
HETATM   37  C   UNK N   1      28.266  17.980   8.594  0.00  0.00     0.029 A 
HETATM   38  C   UNK N   1      29.253  18.104   9.574  0.00  0.00     0.005 A 
HETATM   39  C   UNK N   1      30.586  17.829   9.260  0.00  0.00     0.037 A 
HETATM   40  C   UNK N   1      30.940  17.446   7.963  0.00  0.00     0.070 A 
HETATM   41  C   UNK N   1      29.950  17.373   6.968  0.00  0.00     0.066 A 
BRANCH  40  42
HETATM   42  O   UNK N   1      32.228  17.118   7.706  0.00  0.00    -0.356 OA
HETATM   43  C   UNK N   1      33.274  17.999   7.870  0.00  0.00     0.210 C 
ENDBRANCH  40  42
ENDBRANCH   1  36
TORSDOF 8
ENDMDL
MODEL 3
REMARK VINA RESULT:      -7.9      8.710     12.467
REMARK  8 active torsions:
REMARK  status: ('A' for Active; 'I' for Inactive)
REMARK    1  A    between atoms: O_2  and  C_3 
REMARK    2  A    between atoms: C_7  and  N_9 
REMARK       I    between atoms: N_12  and  C_15 
REMARK    3  A    between atoms: C_25  and  C_39 
REMARK    4  A    between atoms: N_26  and  C_27 
REMARK    5  A    between atoms: C_29  and  C_35 
REMARK    6  A    between atoms: C_32  and  O_33 
REMARK    7  A    between atoms: C_39  and  C_40 
REMARK    8  A    between atoms: C_40  and  O_42 
ROOT
HETATM    1  N   UNK N   1      30.776  12.927   2.805  0.00  0.00    -0.378 N 
HETATM    2  C   UNK N   1      31.824  12.690   3.788  0.00  0.00     0.143 C 
HETATM    3  C   UNK N   1      31.449  13.011   5.229  0.00  0.00     0.161 C 
HETATM    4  N   UNK N   1      30.688  14.214   5.221  0.00  0.00    -0.214 N 
HETATM    5  C   UNK N   1      29.398  14.074   4.581  0.00  0.00     0.161 C 
HETATM    6  C   UNK N   1      29.527  13.608   3.129  0.00  0.00     0.143 C 
HETATM    7  C   UNK N   1      30.907  15.347   6.101  0.00  0.00     0.684 A 
HETATM    8  N   UNK N   1      29.840  16.027   6.361  0.00  0.00    -0.188 N 
ATOM      9  HN  UNK N   1      29.010  15.815   5.808  1.00  0.00     0.184 HD
HETATM   10  C   UNK N   1      29.718  17.027   7.330  0.00  0.00     0.096 A 
HETATM   11  C   UNK N   1      30.806  17.368   8.111  0.00  0.00    -0.004 A 
HETATM   12  C   UNK N   1      30.634  18.308   9.144  0.00  0.00     0.012 A 
HETATM   13  C   UNK N   1      29.393  18.907   9.367  0.00  0.00     0.004 A 
HETATM   14  C   UNK N   1      28.309  18.573   8.556  0.00  0.00     0.045 A 
HETATM   15  C   UNK N   1      28.468  17.629   7.542  0.00  0.00     0.144 A 
HETATM   16  F   UNK N   1      27.404  17.287   6.773  0.00  0.00    -0.204 F 
HETATM   17  C   UNK N   1      32.162  16.759   7.825  0.00  0.00     0.153 A 
HETATM   18  N   UNK N   1      32.187  15.687   6.789  0.00  0.00    -0.171 N 
ENDROOT
BRANCH  18  19
HETATM   19  C   UNK N   1      33.508  15.105   6.458  0.00  0.00     0.086 A 
HETATM   20  C   UNK N   1      34.197  14.282   7.371  0.00  0.00     0.049 A 
HETATM   21  C   UNK N   1      35.458  13.717   7.101  0.00  0.00     0.050 A 
HETATM   22  C   UNK N   1      36.030  13.903   5.854  0.00  0.00     0.019 A 
HETATM   23  C   UNK N   1      35.388  14.680   4.910  0.00  0.00     0.040 A 
HETATM   24  C   UNK N   1      34.157  15.307   5.183  0.00  0.00     0.095 A 
BRANCH  21  25
HETATM   25  C   UNK N   1      36.232  12.980   8.164  0.00  0.00     0.417 C 
HETATM   26  F   UNK N   1      35.416  12.077   8.817  0.00  0.00    -0.166 F 
HETATM   27  F   UNK N   1      37.308  12.297   7.619  0.00  0.00    -0.166 F 
HETATM   28  F   UNK N   1      36.744  13.889   9.074  0.00  0.00    -0.166 F 
ENDBRANCH  21  25
BRANCH  24  29
HETATM   29  O   UNK N   1      33.622  16.107   4.230  0.00  0.00    -0.354 OA
HETATM   30  C   UNK N   1      33.449  15.709   2.919  0.00  0.00     0.210 C 
ENDBRANCH  24  29
ENDBRANCH  18  19
BRANCH  17  31
HETATM   31  C   UNK N   1      33.118  17.913   7.439  0.00  0.00     0.141 C 
BRANCH  31  32
HETATM   32  C   UNK N   1      34.207  18.134   8.458  0.00  0.00     0.141 C 
HETATM   33  O   UNK N   1      34.997  19.050   8.313  0.00  0.00    -0.650 OA
BRANCH  32  34
HETATM   34  O   UNK N   1      34.283  17.360   9.557  0.00  0.00    -0.776 OA
HETATM   35  H   UNK N   1      34.589  17.367  10.444  0.00  0.00     0.167 HD
ENDBRANCH  32  34
ENDBRANCH  31  32
ENDBRANCH  17  31
BRANCH   1  36
HETATM   36  C   UNK N   1      31.000  12.491   1.466  0.00  0.00     0.032 A 
HETATM   37  C   UNK N   1      29.919  12.290   0.591  0.00  0.00     0.029 A 
HETATM   38  C   UNK N   1      30.138  11.878  -0.725  0.00  0.00     0.005 A 
HETATM   39  C   UNK N   1      31.442  11.713  -1.197  0.00  0.00     0.037 A 
HETATM   40  C   UNK N   1      32.532  11.943  -0.352  0.00  0.00     0.070 A 
HETATM   41  C   UNK N   1      32.304  12.307   0.987  0.00  0.00     0.066 A 
BRANCH  40  42
HETATM   42  O   UNK N   1      33.784  11.843  -0.855  0.00  0.00    -0.356 OA
HETATM   43  C   UNK N   1      34.914  12.116  -0.116  0.00  0.00     0.210 C 
ENDBRANCH  40  42
ENDBRANCH   1  36
TORSDOF 8
ENDMDL
MODEL 4
REMARK VINA RESULT:      -7.7      4.983      7.658
REMARK  8 active torsions:
REMARK  status: ('A' for Active; 'I' for Inactive)
REMARK    1  A    between atoms: O_2  and  C_3 
REMARK    2  A    between atoms: C_7  and  N_9 
REMARK       I    between atoms: N_12  and  C_15 
REMARK    3  A    between atoms: C_25  and  C_39 
REMARK    4  A    between atoms: N_26  and  C_27 
REMARK    5  A    between atoms: C_29  and  C_35 
REMARK    6  A    between atoms: C_32  and  O_33 
REMARK    7  A    between atoms: C_39  and  C_40 
REMARK    8  A    between atoms: C_40  and  O_42 
ROOT
HETATM    1  N   UNK N   1      25.400  14.114   6.694  0.00  0.00    -0.378 N 
HETATM    2  C   UNK N   1      25.583  15.522   6.372  0.00  0.00     0.143 C 
HETATM    3  C   UNK N   1      26.427  15.803   5.136  0.00  0.00     0.161 C 
HETATM    4  N   UNK N   1      27.518  14.888   5.139  0.00  0.00    -0.214 N 
HETATM    5  C   UNK N   1      27.114  13.512   4.943  0.00  0.00     0.161 C 
HETATM    6  C   UNK N   1      26.127  13.046   6.015  0.00  0.00     0.143 C 
HETATM    7  C   UNK N   1      28.907  15.243   4.915  0.00  0.00     0.684 A 
HETATM    8  N   UNK N   1      29.612  14.302   4.381  0.00  0.00    -0.188 N 
ATOM      9  HN  UNK N   1      29.186  13.377   4.328  1.00  0.00     0.184 HD
HETATM   10  C   UNK N   1      30.906  14.434   3.868  0.00  0.00     0.096 A 
HETATM   11  C   UNK N   1      31.544  15.660   3.913  0.00  0.00    -0.004 A 
HETATM   12  C   UNK N   1      32.806  15.792   3.305  0.00  0.00     0.012 A 
HETATM   13  C   UNK N   1      33.419  14.701   2.684  0.00  0.00     0.004 A 
HETATM   14  C   UNK N   1      32.776  13.464   2.667  0.00  0.00     0.045 A 
HETATM   15  C   UNK N   1      31.517  13.331   3.252  0.00  0.00     0.144 A 
HETATM   16  F   UNK N   1      30.882  12.133   3.210  0.00  0.00    -0.204 F 
HETATM   17  C   UNK N   1      30.901  16.821   4.640  0.00  0.00     0.153 A 
HETATM   18  N   UNK N   1      29.512  16.589   5.132  0.00  0.00    -0.171 N 
ENDROOT
BRANCH  18  19
HETATM   19  C   UNK N   1      28.875  17.694   5.885  0.00  0.00     0.086 A 
HETATM   20  C   UNK N   1      28.165  18.718   5.227  0.00  0.00     0.049 A 
HETATM   21  C   UNK N   1      27.554  19.791   5.902  0.00  0.00     0.050 A 
HETATM   22  C   UNK N   1      27.572  19.818   7.286  0.00  0.00     0.019 A 
HETATM   23  C   UNK N   1      28.232  18.827   7.986  0.00  0.00     0.040 A 
HETATM   24  C   UNK N   1      28.904  17.780   7.327  0.00  0.00     0.095 A 
BRANCH  21  25
HETATM   25  C   UNK N   1      26.948  20.949   5.151  0.00  0.00     0.417 C 
HETATM   26  F   UNK N   1      25.570  20.864   5.163  0.00  0.00    -0.166 F 
HETATM   27  F   UNK N   1      27.325  22.161   5.708  0.00  0.00    -0.166 F 
HETATM   28  F   UNK N   1      27.405  20.940   3.845  0.00  0.00    -0.166 F 
ENDBRANCH  21  25
BRANCH  24  29
HETATM   29  O   UNK N   1      29.584  16.882   8.080  0.00  0.00    -0.354 OA
HETATM   30  C   UNK N   1      29.955  17.121   9.388  0.00  0.00     0.210 C 
ENDBRANCH  24  29
ENDBRANCH  18  19
BRANCH  17  31
HETATM   31  C   UNK N   1      31.836  17.214   5.808  0.00  0.00     0.141 C 
BRANCH  31  32
HETATM   32  C   UNK N   1      32.389  16.018   6.540  0.00  0.00     0.141 C 
HETATM   33  O   UNK N   1      33.593  15.898   6.684  0.00  0.00    -0.650 OA
BRANCH  32  34
HETATM   34  O   UNK N   1      31.561  15.105   7.083  0.00  0.00    -0.776 OA
HETATM   35  H   UNK N   1      31.006  14.964   7.826  0.00  0.00     0.167 HD
ENDBRANCH  32  34
ENDBRANCH  31  32
ENDBRANCH  17  31
BRANCH   1  36
HETATM   36  C   UNK N   1      24.486  13.776   7.734  0.00  0.00     0.032 A 
HETATM   37  C   UNK N   1      23.102  13.947   7.553  0.00  0.00     0.029 A 
HETATM   38  C   UNK N   1      22.205  13.602   8.565  0.00  0.00     0.005 A 
HETATM   39  C   UNK N   1      22.676  13.031   9.750  0.00  0.00     0.037 A 
HETATM   40  C   UNK N   1      24.045  12.819   9.935  0.00  0.00     0.070 A 
HETATM   41  C   UNK N   1      24.948  13.217   8.934  0.00  0.00     0.066 A 
BRANCH  40  42
HETATM   42  O   UNK N   1      24.466  12.201  11.063  0.00  0.00    -0.356 OA
HETATM   43  C   UNK N   1      23.627  11.904  12.114  0.00  0.00     0.210 C 
ENDBRANCH  40  42
ENDBRANCH   1  36
TORSDOF 8
ENDMDL
MODEL 5
REMARK VINA RESULT:      -7.5      5.235      8.101
REMARK  8 active torsions:
REMARK  status: ('A' for Active; 'I' for Inactive)
REMARK    1  A    between atoms: O_2  and  C_3 
REMARK    2  A    between atoms: C_7  and  N_9 
REMARK       I    between atoms: N_12  and  C_15 
REMARK    3  A    between atoms: C_25  and  C_39 
REMARK    4  A    between atoms: N_26  and  C_27 
REMARK    5  A    between atoms: C_29  and  C_35 
REMARK    6  A    between atoms: C_32  and  O_33 
REMARK    7  A    between atoms: C_39  and  C_40 
REMARK    8  A    between atoms: C_40  and  O_42 
ROOT
HETATM    1  N   UNK N   1      25.132  13.851   6.865  0.00  0.00    -0.378 N 
HETATM    2  C   UNK N   1      25.527  15.229   6.614  0.00  0.00     0.143 C 
HETATM    3  C   UNK N   1      26.299  15.459   5.321  0.00  0.00     0.161 C 
HETATM    4  N   UNK N   1      27.211  14.377   5.163  0.00  0.00    -0.214 N 
HETATM    5  C   UNK N   1      26.560  13.107   4.923  0.00  0.00     0.161 C 
HETATM    6  C   UNK N   1      25.602  12.731   6.056  0.00  0.00     0.143 C 
HETATM    7  C   UNK N   1      28.616  14.511   4.827  0.00  0.00     0.684 A 
HETATM    8  N   UNK N   1      29.100  13.509   4.171  0.00  0.00    -0.188 N 
ATOM      9  HN  UNK N   1      28.517  12.675   4.103  1.00  0.00     0.184 HD
HETATM   10  C   UNK N   1      30.349  13.462   3.544  0.00  0.00     0.096 A 
HETATM   11  C   UNK N   1      31.191  14.557   3.602  0.00  0.00    -0.004 A 
HETATM   12  C   UNK N   1      32.401  14.523   2.883  0.00  0.00     0.012 A 
HETATM   13  C   UNK N   1      32.760  13.396   2.141  0.00  0.00     0.004 A 
HETATM   14  C   UNK N   1      31.914  12.289   2.111  0.00  0.00     0.045 A 
HETATM   15  C   UNK N   1      30.705  12.323   2.806  0.00  0.00     0.144 A 
HETATM   16  F   UNK N   1      29.871  11.254   2.753  0.00  0.00    -0.204 F 
HETATM   17  C   UNK N   1      30.823  15.751   4.457  0.00  0.00     0.153 A 
HETATM   18  N   UNK N   1      29.463  15.717   5.066  0.00  0.00    -0.171 N 
ENDROOT
BRANCH  18  19
HETATM   19  C   UNK N   1      29.093  16.851   5.943  0.00  0.00     0.086 A 
HETATM   20  C   UNK N   1      29.396  16.844   7.320  0.00  0.00     0.049 A 
HETATM   21  C   UNK N   1      29.054  17.896   8.191  0.00  0.00     0.050 A 
HETATM   22  C   UNK N   1      28.461  19.036   7.676  0.00  0.00     0.019 A 
HETATM   23  C   UNK N   1      28.163  19.109   6.329  0.00  0.00     0.040 A 
HETATM   24  C   UNK N   1      28.439  18.042   5.453  0.00  0.00     0.095 A 
BRANCH  21  25
HETATM   25  C   UNK N   1      29.249  17.776   9.682  0.00  0.00     0.417 C 
HETATM   26  F   UNK N   1      28.082  17.353  10.287  0.00  0.00    -0.166 F 
HETATM   27  F   UNK N   1      30.260  16.879   9.985  0.00  0.00    -0.166 F 
HETATM   28  F   UNK N   1      29.623  19.004  10.197  0.00  0.00    -0.166 F 
ENDBRANCH  21  25
BRANCH  24  29
HETATM   29  O   UNK N   1      28.057  18.163   4.159  0.00  0.00    -0.354 OA
HETATM   30  C   UNK N   1      27.294  19.214   3.691  0.00  0.00     0.210 C 
ENDBRANCH  24  29
ENDBRANCH  18  19
BRANCH  17  31
HETATM   31  C   UNK N   1      31.908  15.892   5.550  0.00  0.00     0.141 C 
BRANCH  31  32
HETATM   32  C   UNK N   1      32.744  17.136   5.386  0.00  0.00     0.141 C 
HETATM   33  O   UNK N   1      32.656  17.794   4.364  0.00  0.00    -0.650 OA
BRANCH  32  34
HETATM   34  O   UNK N   1      33.547  17.558   6.381  0.00  0.00    -0.776 OA
HETATM   35  H   UNK N   1      34.447  17.579   6.642  0.00  0.00     0.167 HD
ENDBRANCH  32  34
ENDBRANCH  31  32
ENDBRANCH  17  31
BRANCH   1  36
HETATM   36  C   UNK N   1      24.264  13.591   7.967  0.00  0.00     0.032 A 
HETATM   37  C   UNK N   1      22.889  13.865   7.873  0.00  0.00     0.029 A 
HETATM   38  C   UNK N   1      22.036  13.597   8.945  0.00  0.00     0.005 A 
HETATM   39  C   UNK N   1      22.539  13.003  10.105  0.00  0.00     0.037 A 
HETATM   40  C   UNK N   1      23.898  12.689  10.204  0.00  0.00     0.070 A 
HETATM   41  C   UNK N   1      24.761  13.009   9.142  0.00  0.00     0.066 A 
BRANCH  40  42
HETATM   42  O   UNK N   1      24.344  12.050  11.311  0.00  0.00    -0.356 OA
HETATM   43  C   UNK N   1      23.565  11.855  12.430  0.00  0.00     0.210 C 
ENDBRANCH  40  42
ENDBRANCH   1  36
TORSDOF 8
ENDMDL
MODEL 6
REMARK VINA RESULT:      -7.4     15.236     16.575
REMARK  8 active torsions:
REMARK  status: ('A' for Active; 'I' for Inactive)
REMARK    1  A    between atoms: O_2  and  C_3 
REMARK    2  A    between atoms: C_7  and  N_9 
REMARK       I    between atoms: N_12  and  C_15 
REMARK    3  A    between atoms: C_25  and  C_39 
REMARK    4  A    between atoms: N_26  and  C_27 
REMARK    5  A    between atoms: C_29  and  C_35 
REMARK    6  A    between atoms: C_32  and  O_33 
REMARK    7  A    between atoms: C_39  and  C_40 
REMARK    8  A    between atoms: C_40  and  O_42 
ROOT
HETATM    1  N   UNK N   1      32.878  23.035  -5.714  0.00  0.00    -0.378 N 
HETATM    2  C   UNK N   1      32.284  22.867  -7.033  0.00  0.00     0.143 C 
HETATM    3  C   UNK N   1      31.374  24.001  -7.486  0.00  0.00     0.161 C 
HETATM    4  N   UNK N   1      30.602  24.412  -6.363  0.00  0.00    -0.214 N 
HETATM    5  C   UNK N   1      31.389  25.033  -5.319  0.00  0.00     0.161 C 
HETATM    6  C   UNK N   1      32.488  24.103  -4.799  0.00  0.00     0.143 C 
HETATM    7  C   UNK N   1      29.166  24.624  -6.368  0.00  0.00     0.684 A 
HETATM    8  N   UNK N   1      28.760  25.511  -5.522  0.00  0.00    -0.188 N 
ATOM      9  HN  UNK N   1      29.439  25.841  -4.836  1.00  0.00     0.184 HD
HETATM   10  C   UNK N   1      27.477  26.062  -5.459  0.00  0.00     0.096 A 
HETATM   11  C   UNK N   1      26.507  25.654  -6.356  0.00  0.00    -0.004 A 
HETATM   12  C   UNK N   1      25.252  26.291  -6.336  0.00  0.00     0.012 A 
HETATM   13  C   UNK N   1      24.978  27.302  -5.413  0.00  0.00     0.004 A 
HETATM   14  C   UNK N   1      25.956  27.686  -4.497  0.00  0.00     0.045 A 
HETATM   15  C   UNK N   1      27.208  27.072  -4.523  0.00  0.00     0.144 A 
HETATM   16  F   UNK N   1      28.167  27.467  -3.649  0.00  0.00    -0.204 F 
HETATM   17  C   UNK N   1      26.792  24.517  -7.313  0.00  0.00     0.153 A 
HETATM   18  N   UNK N   1      28.195  24.012  -7.321  0.00  0.00    -0.171 N 
ENDROOT
BRANCH  18  19
HETATM   19  C   UNK N   1      28.490  22.870  -8.216  0.00  0.00     0.086 A 
HETATM   20  C   UNK N   1      28.781  21.590  -7.703  0.00  0.00     0.049 A 
HETATM   21  C   UNK N   1      29.078  20.480  -8.517  0.00  0.00     0.050 A 
HETATM   22  C   UNK N   1      29.008  20.612  -9.893  0.00  0.00     0.019 A 
HETATM   23  C   UNK N   1      28.703  21.838 -10.453  0.00  0.00     0.040 A 
HETATM   24  C   UNK N   1      28.467  22.975  -9.657  0.00  0.00     0.095 A 
BRANCH  21  25
HETATM   25  C   UNK N   1      29.544  19.174  -7.925  0.00  0.00     0.417 C 
HETATM   26  F   UNK N   1      30.319  18.481  -8.835  0.00  0.00    -0.166 F 
HETATM   27  F   UNK N   1      30.288  19.382  -6.774  0.00  0.00    -0.166 F 
HETATM   28  F   UNK N   1      28.446  18.411  -7.570  0.00  0.00    -0.166 F 
ENDBRANCH  21  25
BRANCH  24  29
HETATM   29  O   UNK N   1      28.238  24.155 -10.281  0.00  0.00    -0.354 OA
HETATM   30  C   UNK N   1      27.539  24.260 -11.467  0.00  0.00     0.210 C 
ENDBRANCH  24  29
ENDBRANCH  18  19
BRANCH  17  31
HETATM   31  C   UNK N   1      25.801  23.374  -6.985  0.00  0.00     0.141 C 
BRANCH  31  32
HETATM   32  C   UNK N   1      24.905  23.028  -8.147  0.00  0.00     0.141 C 
HETATM   33  O   UNK N   1      24.928  23.713  -9.156  0.00  0.00    -0.650 OA
BRANCH  32  34
HETATM   34  O   UNK N   1      24.117  21.937  -8.103  0.00  0.00    -0.776 OA
HETATM   35  H   UNK N   1      23.300  21.605  -8.421  0.00  0.00     0.167 HD
ENDBRANCH  32  34
ENDBRANCH  31  32
ENDBRANCH  17  31
BRANCH   1  36
HETATM   36  C   UNK N   1      33.869  22.097  -5.299  0.00  0.00     0.032 A 
HETATM   37  C   UNK N   1      35.214  22.486  -5.176  0.00  0.00     0.029 A 
HETATM   38  C   UNK N   1      36.183  21.573  -4.755  0.00  0.00     0.005 A 
HETATM   39  C   UNK N   1      35.809  20.274  -4.401  0.00  0.00     0.037 A 
HETATM   40  C   UNK N   1      34.471  19.878  -4.482  0.00  0.00     0.070 A 
HETATM   41  C   UNK N   1      33.508  20.786  -4.956  0.00  0.00     0.066 A 
BRANCH  40  42
HETATM   42  O   UNK N   1      34.128  18.637  -4.066  0.00  0.00    -0.356 OA
HETATM   43  C   UNK N   1      34.854  17.511  -4.387  0.00  0.00     0.210 C 
ENDBRANCH  40  42
ENDBRANCH   1  36
TORSDOF 8
ENDMDL
MODEL 7
REMARK VINA RESULT:      -7.4     11.372     14.256
REMARK  8 active torsions:
REMARK  status: ('A' for Active; 'I' for Inactive)
REMARK    1  A    between atoms: O_2  and  C_3 
REMARK    2  A    between atoms: C_7  and  N_9 
REMARK       I    between atoms: N_12  and  C_15 
REMARK    3  A    between atoms: C_25  and  C_39 
REMARK    4  A    between atoms: N_26  and  C_27 
REMARK    5  A    between atoms: C_29  and  C_35 
REMARK    6  A    between atoms: C_32  and  O_33 
REMARK    7  A    between atoms: C_39  and  C_40 
REMARK    8  A    between atoms: C_40  and  O_42 
ROOT
HETATM    1  N   UNK N   1      36.143  14.548  12.125  0.00  0.00    -0.378 N 
HETATM    2  C   UNK N   1      36.975  13.802  11.191  0.00  0.00     0.143 C 
HETATM    3  C   UNK N   1      37.187  14.465   9.836  0.00  0.00     0.161 C 
HETATM    4  N   UNK N   1      35.948  15.043   9.439  0.00  0.00    -0.214 N 
HETATM    5  C   UNK N   1      35.537  16.151  10.274  0.00  0.00     0.161 C 
HETATM    6  C   UNK N   1      35.397  15.741  11.741  0.00  0.00     0.143 C 
HETATM    7  C   UNK N   1      35.340  14.898   8.129  0.00  0.00     0.684 A 
HETATM    8  N   UNK N   1      34.608  15.900   7.773  0.00  0.00    -0.188 N 
ATOM      9  HN  UNK N   1      34.395  16.595   8.488  1.00  0.00     0.184 HD
HETATM   10  C   UNK N   1      34.080  16.121   6.497  0.00  0.00     0.096 A 
HETATM   11  C   UNK N   1      34.326  15.215   5.483  0.00  0.00    -0.004 A 
HETATM   12  C   UNK N   1      33.866  15.507   4.185  0.00  0.00     0.012 A 
HETATM   13  C   UNK N   1      33.153  16.679   3.925  0.00  0.00     0.004 A 
HETATM   14  C   UNK N   1      32.890  17.572   4.962  0.00  0.00     0.045 A 
HETATM   15  C   UNK N   1      33.359  17.299   6.247  0.00  0.00     0.144 A 
HETATM   16  F   UNK N   1      33.124  18.183   7.248  0.00  0.00    -0.204 F 
HETATM   17  C   UNK N   1      35.046  13.918   5.784  0.00  0.00     0.153 A 
HETATM   18  N   UNK N   1      35.590  13.785   7.166  0.00  0.00    -0.171 N 
ENDROOT
BRANCH  18  19
HETATM   19  C   UNK N   1      36.261  12.508   7.502  0.00  0.00     0.086 A 
HETATM   20  C   UNK N   1      37.489  12.147   6.912  0.00  0.00     0.049 A 
HETATM   21  C   UNK N   1      38.156  10.940   7.195  0.00  0.00     0.050 A 
HETATM   22  C   UNK N   1      37.636  10.088   8.154  0.00  0.00     0.019 A 
HETATM   23  C   UNK N   1      36.447  10.403   8.784  0.00  0.00     0.040 A 
HETATM   24  C   UNK N   1      35.733  11.575   8.469  0.00  0.00     0.095 A 
BRANCH  21  25
HETATM   25  C   UNK N   1      39.379  10.518   6.420  0.00  0.00     0.417 C 
HETATM   26  F   UNK N   1      39.014   9.922   5.229  0.00  0.00    -0.166 F 
HETATM   27  F   UNK N   1      40.197  11.602   6.145  0.00  0.00    -0.166 F 
HETATM   28  F   UNK N   1      40.120   9.629   7.179  0.00  0.00    -0.166 F 
ENDBRANCH  21  25
BRANCH  24  29
HETATM   29  O   UNK N   1      34.542  11.781   9.081  0.00  0.00    -0.354 OA
HETATM   30  C   UNK N   1      34.279  11.379  10.376  0.00  0.00     0.210 C 
ENDBRANCH  24  29
ENDBRANCH  18  19
BRANCH  17  31
HETATM   31  C   UNK N   1      34.071  12.760   5.467  0.00  0.00     0.141 C 
BRANCH  31  32
HETATM   32  C   UNK N   1      32.733  12.923   6.144  0.00  0.00     0.141 C 
HETATM   33  O   UNK N   1      31.723  13.034   5.471  0.00  0.00    -0.650 OA
BRANCH  32  34
HETATM   34  O   UNK N   1      32.637  12.893   7.487  0.00  0.00    -0.776 OA
HETATM   35  H   UNK N   1      33.125  13.083   8.264  0.00  0.00     0.167 HD
ENDBRANCH  32  34
ENDBRANCH  31  32
ENDBRANCH  17  31
BRANCH   1  36
HETATM   36  C   UNK N   1      36.043  14.070  13.465  0.00  0.00     0.032 A 
HETATM   37  C   UNK N   1      36.789  14.669  14.494  0.00  0.00     0.029 A 
HETATM   38  C   UNK N   1      36.680  14.212  15.809  0.00  0.00     0.005 A 
HETATM   39  C   UNK N   1      35.784  13.186  16.118  0.00  0.00     0.037 A 
HETATM   40  C   UNK N   1      35.007  12.601  15.114  0.00  0.00     0.070 A 
HETATM   41  C   UNK N   1      35.159  13.030  13.784  0.00  0.00     0.066 A 
BRANCH  40  42
HETATM   42  O   UNK N   1      34.098  11.658  15.454  0.00  0.00    -0.356 OA
HETATM   43  C   UNK N   1      33.656  10.691  14.579  0.00  0.00     0.210 C 
ENDBRANCH  40  42
ENDBRANCH   1  36
TORSDOF 8
ENDMDL
MODEL 8
REMARK VINA RESULT:      -7.4      3.702      7.297
REMARK  8 active torsions:
REMARK  status: ('A' for Active; 'I' for Inactive)
REMARK    1  A    between atoms: O_2  and  C_3 
REMARK    2  A    between atoms: C_7  and  N_9 
REMARK       I    between atoms: N_12  and  C_15 
REMARK    3  A    between atoms: C_25  and  C_39 
REMARK    4  A    between atoms: N_26  and  C_27 
REMARK    5  A    between atoms: C_29  and  C_35 
REMARK    6  A    between atoms: C_32  and  O_33 
REMARK    7  A    between atoms: C_39  and  C_40 
REMARK    8  A    between atoms: C_40  and  O_42 
ROOT
HETATM    1  N   UNK N   1      25.410  16.666   4.169  0.00  0.00    -0.378 N 
HETATM    2  C   UNK N   1      24.105  16.420   4.765  0.00  0.00     0.143 C 
HETATM    3  C   UNK N   1      23.635  14.971   4.728  0.00  0.00     0.161 C 
HETATM    4  N   UNK N   1      23.994  14.432   3.460  0.00  0.00    -0.214 N 
HETATM    5  C   UNK N   1      25.423  14.308   3.272  0.00  0.00     0.161 C 
HETATM    6  C   UNK N   1      26.138  15.653   3.412  0.00  0.00     0.143 C 
HETATM    7  C   UNK N   1      23.111  13.670   2.597  0.00  0.00     0.684 A 
HETATM    8  N   UNK N   1      23.717  12.808   1.851  0.00  0.00    -0.188 N 
ATOM      9  HN  UNK N   1      24.735  12.861   1.815  1.00  0.00     0.184 HD
HETATM   10  C   UNK N   1      23.108  11.807   1.088  0.00  0.00     0.096 A 
HETATM   11  C   UNK N   1      21.731  11.682   1.087  0.00  0.00    -0.004 A 
HETATM   12  C   UNK N   1      21.146  10.609   0.389  0.00  0.00     0.012 A 
HETATM   13  C   UNK N   1      21.936   9.696  -0.311  0.00  0.00     0.004 A 
HETATM   14  C   UNK N   1      23.322   9.847  -0.323  0.00  0.00     0.045 A 
HETATM   15  C   UNK N   1      23.910  10.897   0.382  0.00  0.00     0.144 A 
HETATM   16  F   UNK N   1      25.260  11.026   0.390  0.00  0.00    -0.204 F 
HETATM   17  C   UNK N   1      20.878  12.711   1.798  0.00  0.00     0.153 A 
HETATM   18  N   UNK N   1      21.619  13.725   2.602  0.00  0.00    -0.171 N 
ENDROOT
BRANCH  18  19
HETATM   19  C   UNK N   1      20.812  14.770   3.272  0.00  0.00     0.086 A 
HETATM   20  C   UNK N   1      20.726  16.077   2.752  0.00  0.00     0.049 A 
HETATM   21  C   UNK N   1      19.978  17.102   3.362  0.00  0.00     0.050 A 
HETATM   22  C   UNK N   1      19.221  16.813   4.484  0.00  0.00     0.019 A 
HETATM   23  C   UNK N   1      19.247  15.541   5.023  0.00  0.00     0.040 A 
HETATM   24  C   UNK N   1      20.038  14.518   4.466  0.00  0.00     0.095 A 
BRANCH  21  25
HETATM   25  C   UNK N   1      20.046  18.525   2.867  0.00  0.00     0.417 C 
HETATM   26  F   UNK N   1      20.724  19.319   3.772  0.00  0.00    -0.166 F 
HETATM   27  F   UNK N   1      20.688  18.599   1.641  0.00  0.00    -0.166 F 
HETATM   28  F   UNK N   1      18.764  19.012   2.688  0.00  0.00    -0.166 F 
ENDBRANCH  21  25
BRANCH  24  29
HETATM   29  O   UNK N   1      20.062  13.316   5.090  0.00  0.00    -0.354 OA
HETATM   30  C   UNK N   1      20.688  13.107   6.303  0.00  0.00     0.210 C 
ENDBRANCH  24  29
ENDBRANCH  18  19
BRANCH  17  31
HETATM   31  C   UNK N   1      19.994  13.400   0.731  0.00  0.00     0.141 C 
BRANCH  31  32
HETATM   32  C   UNK N   1      18.532  13.400   1.097  0.00  0.00     0.141 C 
HETATM   33  O   UNK N   1      18.140  12.718   2.028  0.00  0.00    -0.650 OA
BRANCH  32  34
HETATM   34  O   UNK N   1      17.661  14.188   0.438  0.00  0.00    -0.776 OA
HETATM   35  H   UNK N   1      17.096  14.926   0.562  0.00  0.00     0.167 HD
ENDBRANCH  32  34
ENDBRANCH  31  32
ENDBRANCH  17  31
BRANCH   1  36
HETATM   36  C   UNK N   1      25.984  17.963   4.319  0.00  0.00     0.032 A 
HETATM   37  C   UNK N   1      25.641  19.002   3.437  0.00  0.00     0.029 A 
HETATM   38  C   UNK N   1      26.190  20.276   3.593  0.00  0.00     0.005 A 
HETATM   39  C   UNK N   1      27.047  20.540   4.664  0.00  0.00     0.037 A 
HETATM   40  C   UNK N   1      27.371  19.529   5.573  0.00  0.00     0.070 A 
HETATM   41  C   UNK N   1      26.857  18.235   5.382  0.00  0.00     0.066 A 
BRANCH  40  42
HETATM   42  O   UNK N   1      28.148  19.832   6.640  0.00  0.00    -0.356 OA
HETATM   43  C   UNK N   1      28.188  19.062   7.781  0.00  0.00     0.210 C 
ENDBRANCH  40  42
ENDBRANCH   1  36
TORSDOF 8
ENDMDL
MODEL 9
REMARK VINA RESULT:      -7.2     11.954     14.716
REMARK  8 active torsions:
REMARK  status: ('A' for Active; 'I' for Inactive)
REMARK    1  A    between atoms: O_2  and  C_3 
REMARK    2  A    between atoms: C_7  and  N_9 
REMARK       I    between atoms: N_12  and  C_15 
REMARK    3  A    between atoms: C_25  and  C_39 
REMARK    4  A    between atoms: N_26  and  C_27 
REMARK    5  A    between atoms: C_29  and  C_35 
REMARK    6  A    between atoms: C_32  and  O_33 
REMARK    7  A    between atoms: C_39  and  C_40 
REMARK    8  A    between atoms: C_40  and  O_42 
ROOT
HETATM    1  N   UNK N   1      36.447  13.204  13.049  0.00  0.00    -0.378 N 
HETATM    2  C   UNK N   1      37.260  12.631  11.985  0.00  0.00     0.143 C 
HETATM    3  C   UNK N   1      37.518  13.549  10.797  0.00  0.00     0.161 C 
HETATM    4  N   UNK N   1      36.311  14.251  10.522  0.00  0.00    -0.214 N 
HETATM    5  C   UNK N   1      35.936  15.180  11.566  0.00  0.00     0.161 C 
HETATM    6  C   UNK N   1      35.757  14.483  12.917  0.00  0.00     0.143 C 
HETATM    7  C   UNK N   1      35.716  14.406   9.208  0.00  0.00     0.684 A 
HETATM    8  N   UNK N   1      35.033  15.492   9.063  0.00  0.00    -0.188 N 
ATOM      9  HN  UNK N   1      34.839  16.034   9.905  1.00  0.00     0.184 HD
HETATM   10  C   UNK N   1      34.533  15.995   7.857  0.00  0.00     0.096 A 
HETATM   11  C   UNK N   1      34.755  15.308   6.679  0.00  0.00    -0.004 A 
HETATM   12  C   UNK N   1      34.326  15.882   5.467  0.00  0.00     0.012 A 
HETATM   13  C   UNK N   1      33.668  17.113   5.452  0.00  0.00     0.004 A 
HETATM   14  C   UNK N   1      33.428  17.784   6.649  0.00  0.00     0.045 A 
HETATM   15  C   UNK N   1      33.866  17.230   7.853  0.00  0.00     0.144 A 
HETATM   16  F   UNK N   1      33.655  17.899   9.014  0.00  0.00    -0.204 F 
HETATM   17  C   UNK N   1      35.415  13.946   6.709  0.00  0.00     0.153 A 
HETATM   18  N   UNK N   1      35.933  13.507   8.037  0.00  0.00    -0.171 N 
ENDROOT
BRANCH  18  19
HETATM   19  C   UNK N   1      36.544  12.160   8.105  0.00  0.00     0.086 A 
HETATM   20  C   UNK N   1      35.898  11.092   8.760  0.00  0.00     0.049 A 
HETATM   21  C   UNK N   1      36.447   9.800   8.856  0.00  0.00     0.050 A 
HETATM   22  C   UNK N   1      37.643   9.522   8.216  0.00  0.00     0.019 A 
HETATM   23  C   UNK N   1      38.309  10.524   7.538  0.00  0.00     0.040 A 
HETATM   24  C   UNK N   1      37.808  11.839   7.483  0.00  0.00     0.095 A 
BRANCH  21  25
HETATM   25  C   UNK N   1      35.802   8.733   9.706  0.00  0.00     0.417 C 
HETATM   26  F   UNK N   1      36.053   8.965  11.044  0.00  0.00    -0.166 F 
HETATM   27  F   UNK N   1      34.431   8.697   9.509  0.00  0.00    -0.166 F 
HETATM   28  F   UNK N   1      36.300   7.494   9.345  0.00  0.00    -0.166 F 
ENDBRANCH  21  25
BRANCH  24  29
HETATM   29  O   UNK N   1      38.551  12.781   6.855  0.00  0.00    -0.354 OA
HETATM   30  C   UNK N   1      39.476  13.573   7.506  0.00  0.00     0.210 C 
ENDBRANCH  24  29
ENDBRANCH  18  19
BRANCH  17  31
HETATM   31  C   UNK N   1      34.396  12.923   6.155  0.00  0.00     0.141 C 
BRANCH  31  32
HETATM   32  C   UNK N   1      33.054  13.007   6.838  0.00  0.00     0.141 C 
HETATM   33  O   UNK N   1      32.074  13.361   6.207  0.00  0.00    -0.650 OA
BRANCH  32  34
HETATM   34  O   UNK N   1      32.919  12.643   8.128  0.00  0.00    -0.776 OA
HETATM   35  H   UNK N   1      32.313  12.241   8.720  0.00  0.00     0.167 HD
ENDBRANCH  32  34
ENDBRANCH  31  32
ENDBRANCH  17  31
BRANCH   1  36
HETATM   36  C   UNK N   1      36.307  12.465  14.260  0.00  0.00     0.032 A 
HETATM   37  C   UNK N   1      36.849  11.173  14.375  0.00  0.00     0.029 A 
HETATM   38  C   UNK N   1      36.726  10.454  15.566  0.00  0.00     0.005 A 
HETATM   39  C   UNK N   1      36.107  11.040  16.673  0.00  0.00     0.037 A 
HETATM   40  C   UNK N   1      35.594  12.338  16.590  0.00  0.00     0.070 A 
HETATM   41  C   UNK N   1      35.674  13.036  15.373  0.00  0.00     0.066 A 
BRANCH  40  42
HETATM   42  O   UNK N   1      35.063  12.904  17.698  0.00  0.00    -0.356 OA
HETATM   43  C   UNK N   1      35.292  14.215  18.054  0.00  0.00     0.210 C 
ENDBRANCH  40  42
ENDBRANCH   1  36
TORSDOF 8
ENDMDL
