MODEL 1
REMARK VINA RESULT:      -7.6      0.000      0.000
REMARK  6 active torsions:
REMARK  status: ('A' for Active; 'I' for Inactive)
REMARK    1  A    between atoms: C_13  and  C_8 
REMARK    2  A    between atoms: N_28  and  C_8 
REMARK    3  A    between atoms: O_31  and  C_11 
REMARK    4  A    between atoms: C_17  and  C_12 
REMARK    5  A    between atoms: O_31  and  C_14 
REMARK    6  A    between atoms: O_30  and  C_16 
ROOT
HETATM    1  C   UNK N   1      35.222  11.734  17.819  0.00  0.00     0.046 A 
HETATM    2  C   UNK N   1      35.051  12.930  15.733  0.00  0.00     0.060 A 
HETATM    3  C   UNK N   1      34.624  10.564  15.789  0.00  0.00     0.061 A 
HETATM    4  C   UNK N   1      35.456  14.165  17.811  0.00  0.00     0.099 C 
HETATM    5  C   UNK N   1      35.293  12.930  17.103  0.00  0.00     0.049 A 
HETATM    6  C   UNK N   1      34.902  10.548  17.154  0.00  0.00     0.038 A 
HETATM    7  C   UNK N   1      34.685  11.752  15.064  0.00  0.00     0.079 A 
HETATM    8 Cl   UNK N   1      34.680   9.067  18.051  0.00  0.00    -0.084 Cl
HETATM    9  N   UNK N   1      35.591  15.140  18.418  0.00  0.00    -0.191 NA
ENDROOT
BRANCH   7  10
HETATM   10  O   UNK N   1      34.336  11.702  13.746  0.00  0.00    -0.304 OA
BRANCH  10  11
HETATM   11  C   UNK N   1      35.015  11.970  12.589  0.00  0.00     0.159 C 
HETATM   12  C   UNK N   1      35.561  10.893  11.887  0.00  0.00     0.088 C 
HETATM   13  C   UNK N   1      36.312  11.127  10.731  0.00  0.00     0.036 C 
HETATM   14  C   UNK N   1      36.648  12.435  10.383  0.00  0.00     0.095 C 
HETATM   15  N   UNK N   1      36.122  13.485  11.064  0.00  0.00    -0.315 N 
HETATM   16  C   UNK N   1      35.181  13.257  12.055  0.00  0.00     0.282 C 
HETATM   17  O   UNK N   1      34.484  14.167  12.449  0.00  0.00    -0.265 OA
BRANCH  12  18
HETATM   18  C   UNK N   1      35.341   9.493  12.389  0.00  0.00     0.420 C 
HETATM   19  F   UNK N   1      36.163   9.220  13.470  0.00  0.00    -0.166 F 
HETATM   20  F   UNK N   1      35.649   8.620  11.361  0.00  0.00    -0.166 F 
HETATM   21  F   UNK N   1      34.031   9.302  12.784  0.00  0.00    -0.166 F 
ENDBRANCH  12  18
BRANCH  15  22
HETATM   22  C   UNK N   1      36.658  14.827  10.757  0.00  0.00     0.210 C 
BRANCH  22  23
HETATM   23  C   UNK N   1      35.666  15.755  10.076  0.00  0.00     0.119 A 
HETATM   24  N   UNK N   1      34.985  16.760  10.679  0.00  0.00    -0.284 N 
HETATM   25  N   UNK N   1      34.046  17.163   9.833  0.00  0.00    -0.264 N 
ATOM     26  HN  UNK N   1      35.162  17.137  11.610  1.00  0.00     0.188 HD
HETATM   27  C   UNK N   1      34.184  16.420   8.723  0.00  0.00     0.239 A 
ATOM     28  HN  UNK N   1      33.355  17.895   9.995  1.00  0.00     0.190 HD
HETATM   29  N   UNK N   1      35.209  15.562   8.834  0.00  0.00    -0.303 N 
HETATM   30  C   UNK N   1      35.688  14.599   7.860  0.00  0.00     0.161 C 
BRANCH  27  31
HETATM   31  O   UNK N   1      33.368  16.498   7.660  0.00  0.00    -0.331 OA
HETATM   32  H   UNK N   1      33.651  16.265   6.798  0.00  0.00     0.221 HD
ENDBRANCH  27  31
ENDBRANCH  22  23
ENDBRANCH  15  22
ENDBRANCH  10  11
ENDBRANCH   7  10
TORSDOF 6
ENDMDL
MODEL 2
REMARK VINA RESULT:      -7.5     13.495     16.587
REMARK  6 active torsions:
REMARK  status: ('A' for Active; 'I' for Inactive)
REMARK    1  A    between atoms: C_13  and  C_8 
REMARK    2  A    between atoms: N_28  and  C_8 
REMARK    3  A    between atoms: O_31  and  C_11 
REMARK    4  A    between atoms: C_17  and  C_12 
REMARK    5  A    between atoms: O_31  and  C_14 
REMARK    6  A    between atoms: O_30  and  C_16 
ROOT
HETATM    1  C   UNK N   1      27.306  17.957   3.757  0.00  0.00     0.046 A 
HETATM    2  C   UNK N   1      26.807  15.620   3.444  0.00  0.00     0.060 A 
HETATM    3  C   UNK N   1      25.022  17.173   3.873  0.00  0.00     0.061 A 
HETATM    4  C   UNK N   1      29.099  16.426   3.120  0.00  0.00     0.099 C 
HETATM    5  C   UNK N   1      27.735  16.656   3.494  0.00  0.00     0.049 A 
HETATM    6  C   UNK N   1      25.948  18.210   3.963  0.00  0.00     0.038 A 
HETATM    7  C   UNK N   1      25.435  15.870   3.604  0.00  0.00     0.079 A 
HETATM    8 Cl   UNK N   1      25.376  19.847   4.165  0.00  0.00    -0.084 Cl
HETATM    9  N   UNK N   1      30.208  16.283   2.824  0.00  0.00    -0.191 NA
ENDROOT
BRANCH   7  10
HETATM   10  O   UNK N   1      24.467  14.919   3.465  0.00  0.00    -0.304 OA
BRANCH  10  11
HETATM   11  C   UNK N   1      23.187  14.953   2.984  0.00  0.00     0.159 C 
HETATM   12  C   UNK N   1      22.977  14.574   1.656  0.00  0.00     0.088 C 
HETATM   13  C   UNK N   1      21.693  14.649   1.107  0.00  0.00     0.036 C 
HETATM   14  C   UNK N   1      20.670  15.254   1.835  0.00  0.00     0.095 C 
HETATM   15  N   UNK N   1      20.869  15.626   3.125  0.00  0.00    -0.315 N 
HETATM   16  C   UNK N   1      22.070  15.326   3.747  0.00  0.00     0.282 C 
HETATM   17  O   UNK N   1      22.152  15.365   4.956  0.00  0.00    -0.265 OA
BRANCH  12  18
HETATM   18  C   UNK N   1      24.139  14.098   0.829  0.00  0.00     0.420 C 
HETATM   19  F   UNK N   1      23.709  13.618  -0.397  0.00  0.00    -0.166 F 
HETATM   20  F   UNK N   1      24.759  13.072   1.519  0.00  0.00    -0.166 F 
HETATM   21  F   UNK N   1      25.043  15.118   0.601  0.00  0.00    -0.166 F 
ENDBRANCH  12  18
BRANCH  15  22
HETATM   22  C   UNK N   1      19.803  16.419   3.773  0.00  0.00     0.210 C 
BRANCH  22  23
HETATM   23  C   UNK N   1      19.747  17.870   3.327  0.00  0.00     0.119 A 
HETATM   24  N   UNK N   1      19.061  18.339   2.256  0.00  0.00    -0.284 N 
HETATM   25  N   UNK N   1      19.459  19.587   2.048  0.00  0.00    -0.264 N 
ATOM     26  HN  UNK N   1      18.368  17.827   1.710  1.00  0.00     0.188 HD
HETATM   27  C   UNK N   1      20.357  19.868   3.007  0.00  0.00     0.239 A 
ATOM     28  HN  UNK N   1      19.144  20.211   1.306  1.00  0.00     0.190 HD
HETATM   29  N   UNK N   1      20.526  18.829   3.838  0.00  0.00    -0.303 N 
HETATM   30  C   UNK N   1      21.394  18.733   4.996  0.00  0.00     0.161 C 
BRANCH  27  31
HETATM   31  O   UNK N   1      21.031  21.027   3.089  0.00  0.00    -0.331 OA
HETATM   32  H   UNK N   1      21.372  21.347   3.901  0.00  0.00     0.221 HD
ENDBRANCH  27  31
ENDBRANCH  22  23
ENDBRANCH  15  22
ENDBRANCH  10  11
ENDBRANCH   7  10
TORSDOF 6
ENDMDL
MODEL 3
REMARK VINA RESULT:      -7.5     12.925     14.997
REMARK  6 active torsions:
REMARK  status: ('A' for Active; 'I' for Inactive)
REMARK    1  A    between atoms: C_13  and  C_8 
REMARK    2  A    between atoms: N_28  and  C_8 
REMARK    3  A    between atoms: O_31  and  C_11 
REMARK    4  A    between atoms: C_17  and  C_12 
REMARK    5  A    between atoms: O_31  and  C_14 
REMARK    6  A    between atoms: O_30  and  C_16 
ROOT
HETATM    1  C   UNK N   1      21.919  13.377  10.111  0.00  0.00     0.046 A 
HETATM    2  C   UNK N   1      23.637  13.252   8.425  0.00  0.00     0.060 A 
HETATM    3  C   UNK N   1      21.570  14.380   7.939  0.00  0.00     0.061 A 
HETATM    4  C   UNK N   1      24.088  12.411  10.683  0.00  0.00     0.099 C 
HETATM    5  C   UNK N   1      23.193  12.970   9.714  0.00  0.00     0.049 A 
HETATM    6  C   UNK N   1      21.102  14.070   9.214  0.00  0.00     0.038 A 
HETATM    7  C   UNK N   1      22.843  13.986   7.531  0.00  0.00     0.079 A 
HETATM    8 Cl   UNK N   1      19.559  14.700   9.732  0.00  0.00    -0.084 Cl
HETATM    9  N   UNK N   1      24.779  11.962  11.495  0.00  0.00    -0.191 NA
ENDROOT
BRANCH   7  10
HETATM   10  O   UNK N   1      23.257  14.383   6.294  0.00  0.00    -0.304 OA
BRANCH  10  11
HETATM   11  C   UNK N   1      23.372  15.608   5.695  0.00  0.00     0.159 C 
HETATM   12  C   UNK N   1      24.649  16.163   5.582  0.00  0.00     0.088 C 
HETATM   13  C   UNK N   1      24.805  17.437   5.029  0.00  0.00     0.036 C 
HETATM   14  C   UNK N   1      23.677  18.207   4.750  0.00  0.00     0.095 C 
HETATM   15  N   UNK N   1      22.434  17.673   4.860  0.00  0.00    -0.315 N 
HETATM   16  C   UNK N   1      22.290  16.331   5.171  0.00  0.00     0.282 C 
HETATM   17  O   UNK N   1      21.233  15.774   4.972  0.00  0.00    -0.265 OA
BRANCH  12  18
HETATM   18  C   UNK N   1      25.841  15.384   6.065  0.00  0.00     0.420 C 
HETATM   19  F   UNK N   1      25.768  14.063   5.656  0.00  0.00    -0.166 F 
HETATM   20  F   UNK N   1      25.843  15.425   7.447  0.00  0.00    -0.166 F 
HETATM   21  F   UNK N   1      27.019  15.921   5.582  0.00  0.00    -0.166 F 
ENDBRANCH  12  18
BRANCH  15  22
HETATM   22  C   UNK N   1      21.287  18.595   4.723  0.00  0.00     0.210 C 
BRANCH  22  23
HETATM   23  C   UNK N   1      20.685  18.637   3.329  0.00  0.00     0.119 A 
HETATM   24  N   UNK N   1      19.946  17.653   2.759  0.00  0.00    -0.284 N 
HETATM   25  N   UNK N   1      19.824  17.947   1.472  0.00  0.00    -0.264 N 
ATOM     26  HN  UNK N   1      19.557  16.837   3.232  1.00  0.00     0.188 HD
HETATM   27  C   UNK N   1      20.462  19.112   1.281  0.00  0.00     0.239 A 
ATOM     28  HN  UNK N   1      19.338  17.395   0.765  1.00  0.00     0.190 HD
HETATM   29  N   UNK N   1      20.975  19.582   2.428  0.00  0.00    -0.303 N 
HETATM   30  C   UNK N   1      21.725  20.805   2.647  0.00  0.00     0.161 C 
BRANCH  27  31
HETATM   31  O   UNK N   1      20.608  19.704   0.084  0.00  0.00    -0.331 OA
HETATM   32  H   UNK N   1      19.977  20.310  -0.250  0.00  0.00     0.221 HD
ENDBRANCH  27  31
ENDBRANCH  22  23
ENDBRANCH  15  22
ENDBRANCH  10  11
ENDBRANCH   7  10
TORSDOF 6
ENDMDL
MODEL 4
REMARK VINA RESULT:      -7.5      5.599      9.098
REMARK  6 active torsions:
REMARK  status: ('A' for Active; 'I' for Inactive)
REMARK    1  A    between atoms: C_13  and  C_8 
REMARK    2  A    between atoms: N_28  and  C_8 
REMARK    3  A    between atoms: O_31  and  C_11 
REMARK    4  A    between atoms: C_17  and  C_12 
REMARK    5  A    between atoms: O_31  and  C_14 
REMARK    6  A    between atoms: O_30  and  C_16 
ROOT
HETATM    1  C   UNK N   1      28.844  17.022   6.246  0.00  0.00     0.046 A 
HETATM    2  C   UNK N   1      30.613  16.560   7.816  0.00  0.00     0.060 A 
HETATM    3  C   UNK N   1      31.011  16.291   5.460  0.00  0.00     0.061 A 
HETATM    4  C   UNK N   1      28.493  17.495   8.616  0.00  0.00     0.099 C 
HETATM    5  C   UNK N   1      29.309  16.971   7.560  0.00  0.00     0.049 A 
HETATM    6  C   UNK N   1      29.695  16.665   5.197  0.00  0.00     0.038 A 
HETATM    7  C   UNK N   1      31.490  16.243   6.768  0.00  0.00     0.079 A 
HETATM    8 Cl   UNK N   1      29.175  16.845   3.540  0.00  0.00    -0.084 Cl
HETATM    9  N   UNK N   1      27.804  17.925   9.440  0.00  0.00    -0.191 NA
ENDROOT
BRANCH   7  10
HETATM   10  O   UNK N   1      32.807  15.933   6.943  0.00  0.00    -0.304 OA
BRANCH  10  11
HETATM   11  C   UNK N   1      33.572  15.702   8.053  0.00  0.00     0.159 C 
HETATM   12  C   UNK N   1      34.292  16.775   8.585  0.00  0.00     0.088 C 
HETATM   13  C   UNK N   1      35.131  16.570   9.685  0.00  0.00     0.036 C 
HETATM   14  C   UNK N   1      35.368  15.272  10.135  0.00  0.00     0.095 C 
HETATM   15  N   UNK N   1      34.673  14.227   9.620  0.00  0.00    -0.315 N 
HETATM   16  C   UNK N   1      33.662  14.461   8.702  0.00  0.00     0.282 C 
HETATM   17  O   UNK N   1      32.841  13.600   8.472  0.00  0.00    -0.265 OA
BRANCH  12  18
HETATM   18  C   UNK N   1      34.162  18.137   7.962  0.00  0.00     0.420 C 
HETATM   19  F   UNK N   1      35.173  18.978   8.396  0.00  0.00    -0.166 F 
HETATM   20  F   UNK N   1      32.944  18.666   8.348  0.00  0.00    -0.166 F 
HETATM   21  F   UNK N   1      34.222  18.065   6.584  0.00  0.00    -0.166 F 
ENDBRANCH  12  18
BRANCH  15  22
HETATM   22  C   UNK N   1      35.102  12.868  10.015  0.00  0.00     0.210 C 
BRANCH  22  23
HETATM   23  C   UNK N   1      35.409  12.717  11.495  0.00  0.00     0.119 A 
HETATM   24  N   UNK N   1      34.507  12.813  12.502  0.00  0.00    -0.284 N 
HETATM   25  N   UNK N   1      35.188  12.879  13.638  0.00  0.00    -0.264 N 
ATOM     26  HN  UNK N   1      33.492  12.831  12.405  1.00  0.00     0.188 HD
HETATM   27  C   UNK N   1      36.488  12.796  13.311  0.00  0.00     0.239 A 
ATOM     28  HN  UNK N   1      34.801  12.973  14.576  1.00  0.00     0.190 HD
HETATM   29  N   UNK N   1      36.652  12.658  11.987  0.00  0.00    -0.303 N 
HETATM   30  C   UNK N   1      37.888  12.528  11.240  0.00  0.00     0.161 C 
BRANCH  27  31
HETATM   31  O   UNK N   1      37.493  12.889  14.197  0.00  0.00    -0.331 OA
HETATM   32  H   UNK N   1      37.339  12.945  15.119  0.00  0.00     0.221 HD
ENDBRANCH  27  31
ENDBRANCH  22  23
ENDBRANCH  15  22
ENDBRANCH  10  11
ENDBRANCH   7  10
TORSDOF 6
ENDMDL
MODEL 5
REMARK VINA RESULT:      -7.4     13.356     16.293
REMARK  6 active torsions:
REMARK  status: ('A' for Active; 'I' for Inactive)
REMARK    1  A    between atoms: C_13  and  C_8 
REMARK    2  A    between atoms: N_28  and  C_8 
REMARK    3  A    between atoms: O_31  and  C_11 
REMARK    4  A    between atoms: C_17  and  C_12 
REMARK    5  A    between atoms: O_31  and  C_14 
REMARK    6  A    between atoms: O_30  and  C_16 
ROOT
HETATM    1  C   UNK N   1      27.187  18.689   4.798  0.00  0.00     0.046 A 
HETATM    2  C   UNK N   1      25.480  17.741   3.384  0.00  0.00     0.060 A 
HETATM    3  C   UNK N   1      26.385  16.443   5.196  0.00  0.00     0.061 A 
HETATM    4  C   UNK N   1      26.131  20.086   3.095  0.00  0.00     0.099 C 
HETATM    5  C   UNK N   1      26.301  18.811   3.727  0.00  0.00     0.049 A 
HETATM    6  C   UNK N   1      27.238  17.495   5.522  0.00  0.00     0.038 A 
HETATM    7  C   UNK N   1      25.491  16.553   4.132  0.00  0.00     0.079 A 
HETATM    8 Cl   UNK N   1      28.243  17.367   6.943  0.00  0.00    -0.084 Cl
HETATM    9  N   UNK N   1      26.026  21.130   2.610  0.00  0.00    -0.191 NA
ENDROOT
BRANCH   7  10
HETATM   10  O   UNK N   1      24.643  15.508   3.914  0.00  0.00    -0.304 OA
BRANCH  10  11
HETATM   11  C   UNK N   1      23.483  15.380   3.199  0.00  0.00     0.159 C 
HETATM   12  C   UNK N   1      23.529  14.659   2.003  0.00  0.00     0.088 C 
HETATM   13  C   UNK N   1      22.380  14.553   1.213  0.00  0.00     0.036 C 
HETATM   14  C   UNK N   1      21.249  15.300   1.540  0.00  0.00     0.095 C 
HETATM   15  N   UNK N   1      21.201  16.003   2.700  0.00  0.00    -0.315 N 
HETATM   16  C   UNK N   1      22.248  15.910   3.603  0.00  0.00     0.282 C 
HETATM   17  O   UNK N   1      22.093  16.267   4.750  0.00  0.00    -0.265 OA
BRANCH  12  18
HETATM   18  C   UNK N   1      24.817  14.014   1.575  0.00  0.00     0.420 C 
HETATM   19  F   UNK N   1      24.615  13.180   0.487  0.00  0.00    -0.166 F 
HETATM   20  F   UNK N   1      25.287  13.260   2.635  0.00  0.00    -0.166 F 
HETATM   21  F   UNK N   1      25.759  14.961   1.224  0.00  0.00    -0.166 F 
ENDBRANCH  12  18
BRANCH  15  22
HETATM   22  C   UNK N   1      20.050  16.910   2.895  0.00  0.00     0.210 C 
BRANCH  22  23
HETATM   23  C   UNK N   1      20.278  18.324   2.389  0.00  0.00     0.119 A 
HETATM   24  N   UNK N   1      20.170  18.727   1.099  0.00  0.00    -0.284 N 
HETATM   25  N   UNK N   1      20.686  19.947   1.023  0.00  0.00    -0.264 N 
ATOM     26  HN  UNK N   1      19.768  18.192   0.330  1.00  0.00     0.188 HD
HETATM   27  C   UNK N   1      21.074  20.278   2.265  0.00  0.00     0.239 A 
ATOM     28  HN  UNK N   1      20.771  20.520   0.185  1.00  0.00     0.190 HD
HETATM   29  N   UNK N   1      20.797  19.301   3.141  0.00  0.00    -0.303 N 
HETATM   30  C   UNK N   1      21.049  19.272   4.570  0.00  0.00     0.161 C 
BRANCH  27  31
HETATM   31  O   UNK N   1      21.702  21.424   2.576  0.00  0.00    -0.331 OA
HETATM   32  H   UNK N   1      21.677  22.172   2.014  0.00  0.00     0.221 HD
ENDBRANCH  27  31
ENDBRANCH  22  23
ENDBRANCH  15  22
ENDBRANCH  10  11
ENDBRANCH   7  10
TORSDOF 6
ENDMDL
MODEL 6
REMARK VINA RESULT:      -7.4      6.900     10.764
REMARK  6 active torsions:
REMARK  status: ('A' for Active; 'I' for Inactive)
REMARK    1  A    between atoms: C_13  and  C_8 
REMARK    2  A    between atoms: N_28  and  C_8 
REMARK    3  A    between atoms: O_31  and  C_11 
REMARK    4  A    between atoms: C_17  and  C_12 
REMARK    5  A    between atoms: O_31  and  C_14 
REMARK    6  A    between atoms: O_30  and  C_16 
ROOT
HETATM    1  C   UNK N   1      26.910  17.115   4.523  0.00  0.00     0.046 A 
HETATM    2  C   UNK N   1      28.823  18.506   4.991  0.00  0.00     0.060 A 
HETATM    3  C   UNK N   1      29.138  16.178   4.473  0.00  0.00     0.061 A 
HETATM    4  C   UNK N   1      26.594  19.516   4.844  0.00  0.00     0.099 C 
HETATM    5  C   UNK N   1      27.447  18.364   4.839  0.00  0.00     0.049 A 
HETATM    6  C   UNK N   1      27.759  16.019   4.357  0.00  0.00     0.038 A 
HETATM    7  C   UNK N   1      29.688  17.421   4.781  0.00  0.00     0.079 A 
HETATM    8 Cl   UNK N   1      27.121  14.479   3.835  0.00  0.00    -0.084 Cl
HETATM    9  N   UNK N   1      25.873  20.420   4.841  0.00  0.00    -0.191 NA
ENDROOT
BRANCH   7  10
HETATM   10  O   UNK N   1      31.049  17.515   4.815  0.00  0.00    -0.304 OA
BRANCH  10  11
HETATM   11  C   UNK N   1      32.026  16.729   5.360  0.00  0.00     0.159 C 
HETATM   12  C   UNK N   1      32.876  16.043   4.488  0.00  0.00     0.088 C 
HETATM   13  C   UNK N   1      33.852  15.184   5.002  0.00  0.00     0.036 C 
HETATM   14  C   UNK N   1      33.860  14.893   6.366  0.00  0.00     0.095 C 
HETATM   15  N   UNK N   1      33.035  15.555   7.216  0.00  0.00    -0.315 N 
HETATM   16  C   UNK N   1      32.241  16.584   6.739  0.00  0.00     0.282 C 
HETATM   17  O   UNK N   1      31.745  17.375   7.511  0.00  0.00    -0.265 OA
BRANCH  12  18
HETATM   18  C   UNK N   1      32.724  16.232   3.004  0.00  0.00     0.420 C 
HETATM   19  F   UNK N   1      31.712  15.430   2.504  0.00  0.00    -0.166 F 
HETATM   20  F   UNK N   1      33.918  15.870   2.406  0.00  0.00    -0.166 F 
HETATM   21  F   UNK N   1      32.428  17.545   2.694  0.00  0.00    -0.166 F 
ENDBRANCH  12  18
BRANCH  15  22
HETATM   22  C   UNK N   1      32.972  15.070   8.611  0.00  0.00     0.210 C 
BRANCH  22  23
HETATM   23  C   UNK N   1      33.958  15.744   9.551  0.00  0.00     0.119 A 
HETATM   24  N   UNK N   1      33.974  17.062   9.864  0.00  0.00    -0.284 N 
HETATM   25  N   UNK N   1      35.115  17.304  10.495  0.00  0.00    -0.264 N 
ATOM     26  HN  UNK N   1      33.245  17.743   9.653  1.00  0.00     0.188 HD
HETATM   27  C   UNK N   1      35.763  16.131  10.581  0.00  0.00     0.239 A 
ATOM     28  HN  UNK N   1      35.437  18.205  10.846  1.00  0.00     0.190 HD
HETATM   29  N   UNK N   1      35.048  15.137  10.034  0.00  0.00    -0.303 N 
HETATM   30  C   UNK N   1      35.389  13.730   9.932  0.00  0.00     0.161 C 
BRANCH  27  31
HETATM   31  O   UNK N   1      36.991  15.986  11.105  0.00  0.00    -0.331 OA
HETATM   32  H   UNK N   1      37.345  15.145  11.315  0.00  0.00     0.221 HD
ENDBRANCH  27  31
ENDBRANCH  22  23
ENDBRANCH  15  22
ENDBRANCH  10  11
ENDBRANCH   7  10
TORSDOF 6
ENDMDL
MODEL 7
REMARK VINA RESULT:      -7.4     12.862     15.958
REMARK  6 active torsions:
REMARK  status: ('A' for Active; 'I' for Inactive)
REMARK    1  A    between atoms: C_13  and  C_8 
REMARK    2  A    between atoms: N_28  and  C_8 
REMARK    3  A    between atoms: O_31  and  C_11 
REMARK    4  A    between atoms: C_17  and  C_12 
REMARK    5  A    between atoms: O_31  and  C_14 
REMARK    6  A    between atoms: O_30  and  C_16 
ROOT
HETATM    1  C   UNK N   1      20.267  17.979   1.484  0.00  0.00     0.046 A 
HETATM    2  C   UNK N   1      21.317  18.918   3.440  0.00  0.00     0.060 A 
HETATM    3  C   UNK N   1      21.027  16.537   3.269  0.00  0.00     0.061 A 
HETATM    4  C   UNK N   1      20.741  20.374   1.555  0.00  0.00     0.099 C 
HETATM    5  C   UNK N   1      20.729  19.090   2.191  0.00  0.00     0.049 A 
HETATM    6  C   UNK N   1      20.403  16.703   2.034  0.00  0.00     0.038 A 
HETATM    7  C   UNK N   1      21.500  17.636   3.982  0.00  0.00     0.079 A 
HETATM    8 Cl   UNK N   1      19.950  15.291   1.112  0.00  0.00    -0.084 Cl
HETATM    9  N   UNK N   1      20.731  21.393   1.008  0.00  0.00    -0.191 NA
ENDROOT
BRANCH   7  10
HETATM   10  O   UNK N   1      22.158  17.391   5.152  0.00  0.00    -0.304 OA
BRANCH  10  11
HETATM   11  C   UNK N   1      23.298  16.698   5.455  0.00  0.00     0.159 C 
HETATM   12  C   UNK N   1      23.209  15.676   6.403  0.00  0.00     0.088 C 
HETATM   13  C   UNK N   1      24.361  14.981   6.784  0.00  0.00     0.036 C 
HETATM   14  C   UNK N   1      25.607  15.422   6.340  0.00  0.00     0.095 C 
HETATM   15  N   UNK N   1      25.698  16.415   5.420  0.00  0.00    -0.315 N 
HETATM   16  C   UNK N   1      24.545  16.937   4.858  0.00  0.00     0.282 C 
HETATM   17  O   UNK N   1      24.609  17.584   3.836  0.00  0.00    -0.265 OA
BRANCH  12  18
HETATM   18  C   UNK N   1      21.875  15.342   7.010  0.00  0.00     0.420 C 
HETATM   19  F   UNK N   1      21.314  16.454   7.616  0.00  0.00    -0.166 F 
HETATM   20  F   UNK N   1      22.077  14.365   7.968  0.00  0.00    -0.166 F 
HETATM   21  F   UNK N   1      20.991  14.880   6.054  0.00  0.00    -0.166 F 
ENDBRANCH  12  18
BRANCH  15  22
HETATM   22  C   UNK N   1      27.046  16.949   5.132  0.00  0.00     0.210 C 
BRANCH  22  23
HETATM   23  C   UNK N   1      27.399  18.205   5.911  0.00  0.00     0.119 A 
HETATM   24  N   UNK N   1      27.536  18.286   7.257  0.00  0.00    -0.284 N 
HETATM   25  N   UNK N   1      27.591  19.573   7.571  0.00  0.00    -0.264 N 
ATOM     26  HN  UNK N   1      27.587  17.503   7.908  1.00  0.00     0.188 HD
HETATM   27  C   UNK N   1      27.514  20.254   6.416  0.00  0.00     0.239 A 
ATOM     28  HN  UNK N   1      27.676  19.968   8.507  1.00  0.00     0.190 HD
HETATM   29  N   UNK N   1      27.431  19.426   5.365  0.00  0.00    -0.303 N 
HETATM   30  C   UNK N   1      27.341  19.762   3.956  0.00  0.00     0.161 C 
BRANCH  27  31
HETATM   31  O   UNK N   1      27.477  21.594   6.334  0.00  0.00    -0.331 OA
HETATM   32  H   UNK N   1      27.155  22.036   5.574  0.00  0.00     0.221 HD
ENDBRANCH  27  31
ENDBRANCH  22  23
ENDBRANCH  15  22
ENDBRANCH  10  11
ENDBRANCH   7  10
TORSDOF 6
ENDMDL
MODEL 8
REMARK VINA RESULT:      -7.3      7.743     10.970
REMARK  6 active torsions:
REMARK  status: ('A' for Active; 'I' for Inactive)
REMARK    1  A    between atoms: C_13  and  C_8 
REMARK    2  A    between atoms: N_28  and  C_8 
REMARK    3  A    between atoms: O_31  and  C_11 
REMARK    4  A    between atoms: C_17  and  C_12 
REMARK    5  A    between atoms: O_31  and  C_14 
REMARK    6  A    between atoms: O_30  and  C_16 
ROOT
HETATM    1  C   UNK N   1      34.595  16.056   7.680  0.00  0.00     0.046 A 
HETATM    2  C   UNK N   1      32.606  17.413   7.564  0.00  0.00     0.060 A 
HETATM    3  C   UNK N   1      32.452  15.038   7.216  0.00  0.00     0.061 A 
HETATM    4  C   UNK N   1      34.732  18.431   8.238  0.00  0.00     0.099 C 
HETATM    5  C   UNK N   1      33.978  17.304   7.772  0.00  0.00     0.049 A 
HETATM    6  C   UNK N   1      33.830  14.925   7.385  0.00  0.00     0.038 A 
HETATM    7  C   UNK N   1      31.821  16.277   7.313  0.00  0.00     0.079 A 
HETATM    8 Cl   UNK N   1      34.561  13.340   7.393  0.00  0.00    -0.084 Cl
HETATM    9  N   UNK N   1      35.376  19.315   8.614  0.00  0.00    -0.191 NA
ENDROOT
BRANCH   7  10
HETATM   10  O   UNK N   1      30.462  16.300   7.200  0.00  0.00    -0.304 OA
BRANCH  10  11
HETATM   11  C   UNK N   1      29.575  17.258   6.792  0.00  0.00     0.159 C 
HETATM   12  C   UNK N   1      29.058  18.125   7.758  0.00  0.00     0.088 C 
HETATM   13  C   UNK N   1      28.106  19.082   7.394  0.00  0.00     0.036 C 
HETATM   14  C   UNK N   1      27.560  19.053   6.111  0.00  0.00     0.095 C 
HETATM   15  N   UNK N   1      28.057  18.211   5.170  0.00  0.00    -0.315 N 
HETATM   16  C   UNK N   1      29.167  17.436   5.461  0.00  0.00     0.282 C 
HETATM   17  O   UNK N   1      29.802  16.926   4.564  0.00  0.00    -0.265 OA
BRANCH  12  18
HETATM   18  C   UNK N   1      29.527  18.013   9.182  0.00  0.00     0.420 C 
HETATM   19  F   UNK N   1      28.533  18.406  10.063  0.00  0.00    -0.166 F 
HETATM   20  F   UNK N   1      30.618  18.850   9.336  0.00  0.00    -0.166 F 
HETATM   21  F   UNK N   1      29.889  16.716   9.489  0.00  0.00    -0.166 F 
ENDBRANCH  12  18
BRANCH  15  22
HETATM   22  C   UNK N   1      27.317  18.109   3.894  0.00  0.00     0.210 C 
BRANCH  22  23
HETATM   23  C   UNK N   1      25.911  18.683   3.941  0.00  0.00     0.119 A 
HETATM   24  N   UNK N   1      24.793  18.003   4.295  0.00  0.00    -0.284 N 
HETATM   25  N   UNK N   1      23.753  18.758   3.969  0.00  0.00    -0.264 N 
ATOM     26  HN  UNK N   1      24.758  17.082   4.730  1.00  0.00     0.188 HD
HETATM   27  C   UNK N   1      24.249  19.893   3.449  0.00  0.00     0.239 A 
ATOM     28  HN  UNK N   1      22.768  18.523   4.090  1.00  0.00     0.190 HD
HETATM   29  N   UNK N   1      25.590  19.887   3.454  0.00  0.00    -0.303 N 
HETATM   30  C   UNK N   1      26.498  20.919   2.991  0.00  0.00     0.161 C 
BRANCH  27  31
HETATM   31  O   UNK N   1      23.494  20.882   2.945  0.00  0.00    -0.331 OA
HETATM   32  H   UNK N   1      23.324  21.670   3.423  0.00  0.00     0.221 HD
ENDBRANCH  27  31
ENDBRANCH  22  23
ENDBRANCH  15  22
ENDBRANCH  10  11
ENDBRANCH   7  10
TORSDOF 6
ENDMDL
MODEL 9
REMARK VINA RESULT:      -7.2     12.658     15.634
REMARK  6 active torsions:
REMARK  status: ('A' for Active; 'I' for Inactive)
REMARK    1  A    between atoms: C_13  and  C_8 
REMARK    2  A    between atoms: N_28  and  C_8 
REMARK    3  A    between atoms: O_31  and  C_11 
REMARK    4  A    between atoms: C_17  and  C_12 
REMARK    5  A    between atoms: O_31  and  C_14 
REMARK    6  A    between atoms: O_30  and  C_16 
ROOT
HETATM    1  C   UNK N   1      20.589  15.599   7.587  0.00  0.00     0.046 A 
HETATM    2  C   UNK N   1      21.207  17.640   6.464  0.00  0.00     0.060 A 
HETATM    3  C   UNK N   1      21.731  15.520   5.457  0.00  0.00     0.061 A 
HETATM    4  C   UNK N   1      19.872  17.740   8.517  0.00  0.00     0.099 C 
HETATM    5  C   UNK N   1      20.608  16.993   7.541  0.00  0.00     0.049 A 
HETATM    6  C   UNK N   1      21.167  14.864   6.549  0.00  0.00     0.038 A 
HETATM    7  C   UNK N   1      21.750  16.912   5.395  0.00  0.00     0.079 A 
HETATM    8 Cl   UNK N   1      21.040  13.123   6.524  0.00  0.00    -0.084 Cl
HETATM    9  N   UNK N   1      19.267  18.306   9.325  0.00  0.00    -0.191 NA
ENDROOT
BRANCH   7  10
HETATM   10  O   UNK N   1      22.259  17.483   4.265  0.00  0.00    -0.304 OA
BRANCH  10  11
HETATM   11  C   UNK N   1      23.245  18.407   4.049  0.00  0.00     0.159 C 
HETATM   12  C   UNK N   1      22.896  19.596   3.403  0.00  0.00     0.088 C 
HETATM   13  C   UNK N   1      23.883  20.542   3.110  0.00  0.00     0.036 C 
HETATM   14  C   UNK N   1      25.224  20.221   3.316  0.00  0.00     0.095 C 
HETATM   15  N   UNK N   1      25.568  19.066   3.941  0.00  0.00    -0.315 N 
HETATM   16  C   UNK N   1      24.578  18.243   4.452  0.00  0.00     0.282 C 
HETATM   17  O   UNK N   1      24.860  17.391   5.266  0.00  0.00    -0.265 OA
BRANCH  12  18
HETATM   18  C   UNK N   1      21.462  19.840   3.022  0.00  0.00     0.420 C 
HETATM   19  F   UNK N   1      20.660  19.930   4.147  0.00  0.00    -0.166 F 
HETATM   20  F   UNK N   1      21.039  18.769   2.255  0.00  0.00    -0.166 F 
HETATM   21  F   UNK N   1      21.328  21.010   2.301  0.00  0.00    -0.166 F 
ENDBRANCH  12  18
BRANCH  15  22
HETATM   22  C   UNK N   1      27.002  18.710   3.963  0.00  0.00     0.210 C 
BRANCH  22  23
HETATM   23  C   UNK N   1      27.537  18.360   5.341  0.00  0.00     0.119 A 
HETATM   24  N   UNK N   1      27.831  17.112   5.780  0.00  0.00    -0.284 N 
HETATM   25  N   UNK N   1      28.020  17.189   7.090  0.00  0.00    -0.264 N 
ATOM     26  HN  UNK N   1      27.895  16.270   5.209  1.00  0.00     0.188 HD
HETATM   27  C   UNK N   1      27.866  18.480   7.426  0.00  0.00     0.239 A 
ATOM     28  HN  UNK N   1      28.241  16.418   7.720  1.00  0.00     0.190 HD
HETATM   29  N   UNK N   1      27.601  19.236   6.350  0.00  0.00    -0.303 N 
HETATM   30  C   UNK N   1      27.377  20.668   6.287  0.00  0.00     0.161 C 
BRANCH  27  31
HETATM   31  O   UNK N   1      27.923  18.941   8.686  0.00  0.00    -0.331 OA
HETATM   32  H   UNK N   1      27.158  19.022   9.220  0.00  0.00     0.221 HD
ENDBRANCH  27  31
ENDBRANCH  22  23
ENDBRANCH  15  22
ENDBRANCH  10  11
ENDBRANCH   7  10
TORSDOF 6
ENDMDL
