MODEL 1
REMARK VINA RESULT:      -8.8      0.000      0.000
REMARK  13 active torsions:
REMARK  status: ('A' for Active; 'I' for Inactive)
REMARK    1  A    between atoms: C_13  and  C_2 
REMARK    2  A    between atoms: C_16  and  C_2 
REMARK    3  A    between atoms: N_42  and  C_13 
REMARK    4  A    between atoms: O_47  and  C_16 
REMARK    5  A    between atoms: N_39  and  C_23 
REMARK    6  A    between atoms: N_40  and  C_24 
REMARK    7  A    between atoms: O_48  and  C_28 
REMARK    8  A    between atoms: O_48  and  C_29 
REMARK    9  A    between atoms: O_45  and  C_30 
REMARK   10  A    between atoms: O_47  and  C_31 
REMARK   11  A    between atoms: C_34  and  C_32 
REMARK       I    between atoms: N_39  and  C_32 
REMARK   12  A    between atoms: C_34  and  C_33 
REMARK   13  A    between atoms: O_44  and  C_33 
ROOT
HETATM    1  C   UNK N   1      24.448  15.684   6.010  0.00  0.00     0.005 C 
HETATM    2  C   UNK N   1      25.735  16.173   6.009  0.00  0.00     0.038 C 
HETATM    3  C   UNK N   1      24.024  16.753   3.937  0.00  0.00     0.047 C 
HETATM    4  C   UNK N   1      23.526  16.288   5.169  0.00  0.00     0.132 C 
HETATM    5  C   UNK N   1      25.327  17.224   3.880  0.00  0.00     0.148 C 
HETATM    6  C   UNK N   1      26.131  17.061   5.000  0.00  0.00     0.114 C 
HETATM    7  F   UNK N   1      25.755  17.939   2.808  0.00  0.00    -0.203 F 
ENDROOT
BRANCH   6   8
HETATM    8  O   UNK N   1      27.281  17.724   5.080  0.00  0.00    -0.307 OA
BRANCH   8   9
HETATM    9  C   UNK N   1      28.482  17.239   4.720  0.00  0.00     0.090 A 
HETATM   10  C   UNK N   1      28.786  16.776   3.416  0.00  0.00     0.055 A 
HETATM   11  C   UNK N   1      30.086  16.357   3.128  0.00  0.00     0.091 A 
HETATM   12  N   UNK N   1      31.040  16.391   4.094  0.00  0.00    -0.365 N 
HETATM   13  C   UNK N   1      30.741  16.816   5.361  0.00  0.00     0.048 A 
ATOM     14  HN  UNK N   1      31.991  16.096   3.873  1.00  0.00     0.165 HD
HETATM   15  C   UNK N   1      31.702  16.831   6.343  0.00  0.00     0.070 A 
HETATM   16  C   UNK N   1      29.453  17.236   5.669  0.00  0.00     0.027 A 
HETATM   17  C   UNK N   1      31.397  17.279   7.647  0.00  0.00     0.104 A 
HETATM   18  C   UNK N   1      30.104  17.717   7.945  0.00  0.00     0.102 A 
HETATM   19  C   UNK N   1      29.138  17.689   6.955  0.00  0.00     0.056 A 
BRANCH  17  20
HETATM   20  O   UNK N   1      32.329  17.262   8.618  0.00  0.00    -0.348 OA
BRANCH  20  21
HETATM   21  C   UNK N   1      33.669  17.535   8.405  0.00  0.00     0.177 C 
BRANCH  21  22
HETATM   22  C   UNK N   1      34.653  16.407   8.758  0.00  0.00     0.057 C 
BRANCH  22  23
HETATM   23  C   UNK N   1      34.671  16.003  10.241  0.00  0.00     0.274 C 
BRANCH  23  24
HETATM   24  N   UNK N   1      35.983  15.728  10.831  0.00  0.00     0.092 N 
HETATM   25  C   UNK N   1      36.728  14.789   9.992  0.00  0.00     0.298 C 
HETATM   26  C   UNK N   1      36.312  13.354  10.308  0.00  0.00     0.198 C 
HETATM   27  O   UNK N   1      36.582  13.089  11.660  0.00  0.00    -0.388 OA
HETATM   28  C   UNK N   1      35.662  13.841  12.406  0.00  0.00     0.198 C 
HETATM   29  C   UNK N   1      35.966  15.338  12.252  0.00  0.00     0.298 C 
ENDBRANCH  23  24
ENDBRANCH  22  23
ENDBRANCH  21  22
ENDBRANCH  20  21
ENDBRANCH  17  20
BRANCH  18  30
HETATM   30  O   UNK N   1      29.794  18.119   9.205  0.00  0.00    -0.353 OA
HETATM   31  C   UNK N   1      29.059  17.343  10.077  0.00  0.00     0.210 C 
ENDBRANCH  18  30
ENDBRANCH   8   9
ENDBRANCH   6   8
BRANCH   4  32
HETATM   32  N   UNK N   1      22.912  17.361   5.858  0.00  0.00    -0.362 N 
HETATM   33  C   UNK N   1      21.760  17.365   6.412  0.00  0.00     0.130 C 
ATOM     34  HN  UNK N   1      23.448  18.227   5.918  1.00  0.00     0.162 HD
BRANCH  33  35
HETATM   35  C   UNK N   1      20.979  16.111   6.602  0.00  0.00     0.105 A 
HETATM   36  C   UNK N   1      20.641  15.296   5.377  0.00  0.00     0.029 A 
HETATM   37  C   UNK N   1      19.612  16.251   5.954  0.00  0.00     0.029 A 
BRANCH  35  38
HETATM   38  C   UNK N   1      20.926  15.526   7.977  0.00  0.00     0.239 C 
HETATM   39  N   UNK N   1      21.143  14.197   8.121  0.00  0.00    -0.326 N 
HETATM   40  H   UNK N   1      20.947  13.611   7.355  0.00  0.00     0.169 HD
HETATM   41  O   UNK N   1      20.869  16.261   8.956  0.00  0.00    -0.272 OA
BRANCH  39  42
HETATM   42  C   UNK N   1      21.634  13.597   9.308  0.00  0.00     0.034 A 
HETATM   43  C   UNK N   1      20.738  13.058  10.234  0.00  0.00     0.032 A 
HETATM   44  C   UNK N   1      21.215  12.319  11.322  0.00  0.00     0.044 A 
HETATM   45  C   UNK N   1      22.587  12.086  11.464  0.00  0.00     0.116 A 
HETATM   46  C   UNK N   1      23.486  12.615  10.537  0.00  0.00     0.044 A 
HETATM   47  F   UNK N   1      23.047  11.335  12.492  0.00  0.00    -0.206 F 
HETATM   48  C   UNK N   1      23.010  13.367   9.466  0.00  0.00     0.032 A 
ENDBRANCH  39  42
ENDBRANCH  35  38
ENDBRANCH  33  35
BRANCH  33  49
HETATM   49  O   UNK N   1      21.260  18.537   6.844  0.00  0.00    -0.349 OA
HETATM   50  H   UNK N   1      21.098  19.426   7.091  0.00  0.00     0.219 HD
ENDBRANCH  33  49
ENDBRANCH   4  32
TORSDOF 13
ENDMDL
MODEL 2
REMARK VINA RESULT:      -8.6      1.617      2.571
REMARK  13 active torsions:
REMARK  status: ('A' for Active; 'I' for Inactive)
REMARK    1  A    between atoms: C_13  and  C_2 
REMARK    2  A    between atoms: C_16  and  C_2 
REMARK    3  A    between atoms: N_42  and  C_13 
REMARK    4  A    between atoms: O_47  and  C_16 
REMARK    5  A    between atoms: N_39  and  C_23 
REMARK    6  A    between atoms: N_40  and  C_24 
REMARK    7  A    between atoms: O_48  and  C_28 
REMARK    8  A    between atoms: O_48  and  C_29 
REMARK    9  A    between atoms: O_45  and  C_30 
REMARK   10  A    between atoms: O_47  and  C_31 
REMARK   11  A    between atoms: C_34  and  C_32 
REMARK       I    between atoms: N_39  and  C_32 
REMARK   12  A    between atoms: C_34  and  C_33 
REMARK   13  A    between atoms: O_44  and  C_33 
ROOT
HETATM    1  C   UNK N   1      25.649  15.422   6.577  0.00  0.00     0.005 C 
HETATM    2  C   UNK N   1      26.782  16.164   6.822  0.00  0.00     0.038 C 
HETATM    3  C   UNK N   1      25.610  16.194   4.336  0.00  0.00     0.047 C 
HETATM    4  C   UNK N   1      24.892  15.746   5.461  0.00  0.00     0.132 C 
HETATM    5  C   UNK N   1      26.776  16.916   4.534  0.00  0.00     0.148 C 
HETATM    6  C   UNK N   1      27.269  17.022   5.828  0.00  0.00     0.114 C 
HETATM    7  F   UNK N   1      27.341  17.608   3.511  0.00  0.00    -0.203 F 
ENDROOT
BRANCH   6   8
HETATM    8  O   UNK N   1      28.220  17.913   6.093  0.00  0.00    -0.307 OA
BRANCH   8   9
HETATM    9  C   UNK N   1      28.970  17.936   7.210  0.00  0.00     0.090 A 
HETATM   10  C   UNK N   1      28.491  18.366   8.471  0.00  0.00     0.055 A 
HETATM   11  C   UNK N   1      29.331  18.284   9.583  0.00  0.00     0.091 A 
HETATM   12  N   UNK N   1      30.594  17.803   9.446  0.00  0.00    -0.365 N 
HETATM   13  C   UNK N   1      31.065  17.410   8.222  0.00  0.00     0.048 A 
ATOM     14  HN  UNK N   1      31.198  17.734  10.264  1.00  0.00     0.165 HD
HETATM   15  C   UNK N   1      32.349  16.942   8.080  0.00  0.00     0.070 A 
HETATM   16  C   UNK N   1      30.246  17.484   7.102  0.00  0.00     0.027 A 
HETATM   17  C   UNK N   1      32.833  16.527   6.821  0.00  0.00     0.104 A 
HETATM   18  C   UNK N   1      31.997  16.588   5.702  0.00  0.00     0.102 A 
HETATM   19  C   UNK N   1      30.709  17.069   5.848  0.00  0.00     0.056 A 
BRANCH  17  20
HETATM   20  O   UNK N   1      34.102  16.100   6.674  0.00  0.00    -0.348 OA
BRANCH  20  21
HETATM   21  C   UNK N   1      34.500  14.788   6.864  0.00  0.00     0.177 C 
BRANCH  21  22
HETATM   22  C   UNK N   1      35.576  14.558   7.939  0.00  0.00     0.057 C 
BRANCH  22  23
HETATM   23  C   UNK N   1      35.174  14.984   9.360  0.00  0.00     0.274 C 
BRANCH  23  24
HETATM   24  N   UNK N   1      36.263  15.347  10.270  0.00  0.00     0.092 N 
HETATM   25  C   UNK N   1      37.336  14.354  10.196  0.00  0.00     0.298 C 
HETATM   26  C   UNK N   1      37.014  13.163  11.096  0.00  0.00     0.198 C 
HETATM   27  O   UNK N   1      36.884  13.613  12.419  0.00  0.00    -0.388 OA
HETATM   28  C   UNK N   1      35.697  14.360  12.472  0.00  0.00     0.198 C 
HETATM   29  C   UNK N   1      35.856  15.649  11.653  0.00  0.00     0.298 C 
ENDBRANCH  23  24
ENDBRANCH  22  23
ENDBRANCH  21  22
ENDBRANCH  20  21
ENDBRANCH  17  20
BRANCH  18  30
HETATM   30  O   UNK N   1      32.465  16.220   4.481  0.00  0.00    -0.353 OA
HETATM   31  C   UNK N   1      32.413  17.050   3.380  0.00  0.00     0.210 C 
ENDBRANCH  18  30
ENDBRANCH   8   9
ENDBRANCH   6   8
BRANCH   4  32
HETATM   32  N   UNK N   1      23.938  16.726   5.824  0.00  0.00    -0.362 N 
HETATM   33  C   UNK N   1      22.690  16.546   6.038  0.00  0.00     0.130 C 
ATOM     34  HN  UNK N   1      24.283  17.680   5.925  1.00  0.00     0.162 HD
BRANCH  33  35
HETATM   35  C   UNK N   1      22.105  15.182   6.156  0.00  0.00     0.105 A 
HETATM   36  C   UNK N   1      22.293  14.230   4.999  0.00  0.00     0.029 A 
HETATM   37  C   UNK N   1      20.995  15.007   5.133  0.00  0.00     0.029 A 
BRANCH  35  38
HETATM   38  C   UNK N   1      21.733  14.699   7.522  0.00  0.00     0.239 C 
HETATM   39  N   UNK N   1      22.160  13.474   7.910  0.00  0.00    -0.326 N 
HETATM   40  H   UNK N   1      22.347  12.806   7.212  0.00  0.00     0.169 HD
HETATM   41  O   UNK N   1      21.215  15.466   8.324  0.00  0.00    -0.272 OA
BRANCH  39  42
HETATM   42  C   UNK N   1      22.357  13.094   9.262  0.00  0.00     0.034 A 
HETATM   43  C   UNK N   1      21.254  12.776  10.059  0.00  0.00     0.032 A 
HETATM   44  C   UNK N   1      21.445  12.241  11.338  0.00  0.00     0.044 A 
HETATM   45  C   UNK N   1      22.739  11.989  11.806  0.00  0.00     0.116 A 
HETATM   46  C   UNK N   1      23.843  12.297  11.011  0.00  0.00     0.044 A 
HETATM   47  F   UNK N   1      22.924  11.431  13.026  0.00  0.00    -0.206 F 
HETATM   48  C   UNK N   1      23.651  12.848   9.746  0.00  0.00     0.032 A 
ENDBRANCH  39  42
ENDBRANCH  35  38
ENDBRANCH  33  35
BRANCH  33  49
HETATM   49  O   UNK N   1      21.901  17.627   6.176  0.00  0.00    -0.349 OA
HETATM   50  H   UNK N   1      21.429  18.384   6.463  0.00  0.00     0.219 HD
ENDBRANCH  33  49
ENDBRANCH   4  32
TORSDOF 13
ENDMDL
MODEL 3
REMARK VINA RESULT:      -8.3      3.803      4.550
REMARK  13 active torsions:
REMARK  status: ('A' for Active; 'I' for Inactive)
REMARK    1  A    between atoms: C_13  and  C_2 
REMARK    2  A    between atoms: C_16  and  C_2 
REMARK    3  A    between atoms: N_42  and  C_13 
REMARK    4  A    between atoms: O_47  and  C_16 
REMARK    5  A    between atoms: N_39  and  C_23 
REMARK    6  A    between atoms: N_40  and  C_24 
REMARK    7  A    between atoms: O_48  and  C_28 
REMARK    8  A    between atoms: O_48  and  C_29 
REMARK    9  A    between atoms: O_45  and  C_30 
REMARK   10  A    between atoms: O_47  and  C_31 
REMARK   11  A    between atoms: C_34  and  C_32 
REMARK       I    between atoms: N_39  and  C_32 
REMARK   12  A    between atoms: C_34  and  C_33 
REMARK   13  A    between atoms: O_44  and  C_33 
ROOT
HETATM    1  C   UNK N   1      25.204  17.028   3.445  0.00  0.00     0.005 C 
HETATM    2  C   UNK N   1      26.386  16.517   3.931  0.00  0.00     0.038 C 
HETATM    3  C   UNK N   1      25.884  19.216   4.051  0.00  0.00     0.047 C 
HETATM    4  C   UNK N   1      24.834  18.301   3.852  0.00  0.00     0.132 C 
HETATM    5  C   UNK N   1      27.104  18.742   4.508  0.00  0.00     0.148 C 
HETATM    6  C   UNK N   1      27.283  17.367   4.589  0.00  0.00     0.114 C 
HETATM    7  F   UNK N   1      28.043  19.599   4.986  0.00  0.00    -0.203 F 
ENDROOT
BRANCH   6   8
HETATM    8  O   UNK N   1      28.323  16.883   5.262  0.00  0.00    -0.307 OA
BRANCH   8   9
HETATM    9  C   UNK N   1      29.581  16.807   4.795  0.00  0.00     0.090 A 
HETATM   10  C   UNK N   1      29.904  16.517   3.446  0.00  0.00     0.055 A 
HETATM   11  C   UNK N   1      31.242  16.531   3.047  0.00  0.00     0.091 A 
HETATM   12  N   UNK N   1      32.216  16.814   3.951  0.00  0.00    -0.365 N 
HETATM   13  C   UNK N   1      31.906  17.070   5.260  0.00  0.00     0.048 A 
ATOM     14  HN  UNK N   1      33.190  16.836   3.650  1.00  0.00     0.165 HD
HETATM   15  C   UNK N   1      32.894  17.336   6.177  0.00  0.00     0.070 A 
HETATM   16  C   UNK N   1      30.581  17.060   5.677  0.00  0.00     0.027 A 
HETATM   17  C   UNK N   1      32.575  17.611   7.524  0.00  0.00     0.104 A 
HETATM   18  C   UNK N   1      31.238  17.616   7.934  0.00  0.00     0.102 A 
HETATM   19  C   UNK N   1      30.249  17.337   7.008  0.00  0.00     0.056 A 
BRANCH  17  20
HETATM   20  O   UNK N   1      33.544  17.838   8.431  0.00  0.00    -0.348 OA
BRANCH  20  21
HETATM   21  C   UNK N   1      34.527  16.918   8.753  0.00  0.00     0.177 C 
BRANCH  21  22
HETATM   22  C   UNK N   1      35.032  16.950  10.206  0.00  0.00     0.057 C 
BRANCH  22  23
HETATM   23  C   UNK N   1      34.875  15.628  10.976  0.00  0.00     0.274 C 
BRANCH  23  24
HETATM   24  N   UNK N   1      36.091  15.061  11.563  0.00  0.00     0.092 N 
HETATM   25  C   UNK N   1      36.755  14.182  10.600  0.00  0.00     0.298 C 
HETATM   26  C   UNK N   1      36.122  12.793  10.630  0.00  0.00     0.198 C 
HETATM   27  O   UNK N   1      36.257  12.259  11.922  0.00  0.00    -0.388 OA
HETATM   28  C   UNK N   1      35.400  12.999  12.751  0.00  0.00     0.198 C 
HETATM   29  C   UNK N   1      35.921  14.437  12.887  0.00  0.00     0.298 C 
ENDBRANCH  23  24
ENDBRANCH  22  23
ENDBRANCH  21  22
ENDBRANCH  20  21
ENDBRANCH  17  20
BRANCH  18  30
HETATM   30  O   UNK N   1      30.925  17.848   9.235  0.00  0.00    -0.353 OA
HETATM   31  C   UNK N   1      29.756  18.468   9.623  0.00  0.00     0.210 C 
ENDBRANCH  18  30
ENDBRANCH   8   9
ENDBRANCH   6   8
BRANCH   4  32
HETATM   32  N   UNK N   1      24.075  18.197   5.042  0.00  0.00    -0.362 N 
HETATM   33  C   UNK N   1      22.805  18.300   5.160  0.00  0.00     0.130 C 
ATOM     34  HN  UNK N   1      24.598  18.022   5.900  1.00  0.00     0.162 HD
BRANCH  33  35
HETATM   35  C   UNK N   1      21.909  18.319   3.972  0.00  0.00     0.105 A 
HETATM   36  C   UNK N   1      21.974  19.518   3.056  0.00  0.00     0.029 A 
HETATM   37  C   UNK N   1      20.888  19.436   4.114  0.00  0.00     0.029 A 
BRANCH  35  38
HETATM   38  C   UNK N   1      21.309  17.022   3.530  0.00  0.00     0.239 C 
HETATM   39  N   UNK N   1      21.036  16.853   2.214  0.00  0.00    -0.326 N 
HETATM   40  H   UNK N   1      20.869  17.656   1.670  0.00  0.00     0.169 HD
HETATM   41  O   UNK N   1      21.241  16.080   4.310  0.00  0.00    -0.272 OA
BRANCH  39  42
HETATM   42  C   UNK N   1      20.978  15.590   1.572  0.00  0.00     0.034 A 
HETATM   43  C   UNK N   1      22.158  14.892   1.310  0.00  0.00     0.032 A 
HETATM   44  C   UNK N   1      22.103  13.578   0.831  0.00  0.00     0.044 A 
HETATM   45  C   UNK N   1      20.867  12.949   0.651  0.00  0.00     0.116 A 
HETATM   46  C   UNK N   1      19.685  13.639   0.921  0.00  0.00     0.044 A 
HETATM   47  F   UNK N   1      20.812  11.663   0.230  0.00  0.00    -0.206 F 
HETATM   48  C   UNK N   1      19.742  14.954   1.378  0.00  0.00     0.032 A 
ENDBRANCH  39  42
ENDBRANCH  35  38
ENDBRANCH  33  35
BRANCH  33  49
HETATM   49  O   UNK N   1      22.280  18.374   6.396  0.00  0.00    -0.349 OA
HETATM   50  H   UNK N   1      21.850  18.234   7.217  0.00  0.00     0.219 HD
ENDBRANCH  33  49
ENDBRANCH   4  32
TORSDOF 13
ENDMDL
MODEL 4
REMARK VINA RESULT:      -8.3      3.934      4.979
REMARK  13 active torsions:
REMARK  status: ('A' for Active; 'I' for Inactive)
REMARK    1  A    between atoms: C_13  and  C_2 
REMARK    2  A    between atoms: C_16  and  C_2 
REMARK    3  A    between atoms: N_42  and  C_13 
REMARK    4  A    between atoms: O_47  and  C_16 
REMARK    5  A    between atoms: N_39  and  C_23 
REMARK    6  A    between atoms: N_40  and  C_24 
REMARK    7  A    between atoms: O_48  and  C_28 
REMARK    8  A    between atoms: O_48  and  C_29 
REMARK    9  A    between atoms: O_45  and  C_30 
REMARK   10  A    between atoms: O_47  and  C_31 
REMARK   11  A    between atoms: C_34  and  C_32 
REMARK       I    between atoms: N_39  and  C_32 
REMARK   12  A    between atoms: C_34  and  C_33 
REMARK   13  A    between atoms: O_44  and  C_33 
ROOT
HETATM    1  C   UNK N   1      25.394  16.714   3.579  0.00  0.00     0.005 C 
HETATM    2  C   UNK N   1      26.603  16.302   4.092  0.00  0.00     0.038 C 
HETATM    3  C   UNK N   1      26.037  18.980   3.846  0.00  0.00     0.047 C 
HETATM    4  C   UNK N   1      25.004  18.024   3.814  0.00  0.00     0.132 C 
HETATM    5  C   UNK N   1      27.282  18.601   4.324  0.00  0.00     0.148 C 
HETATM    6  C   UNK N   1      27.498  17.256   4.593  0.00  0.00     0.114 C 
HETATM    7  F   UNK N   1      28.213  19.537   4.644  0.00  0.00    -0.203 F 
ENDROOT
BRANCH   6   8
HETATM    8  O   UNK N   1      28.569  16.894   5.292  0.00  0.00    -0.307 OA
BRANCH   8   9
HETATM    9  C   UNK N   1      28.786  17.189   6.586  0.00  0.00     0.090 A 
HETATM   10  C   UNK N   1      27.753  17.329   7.546  0.00  0.00     0.055 A 
HETATM   11  C   UNK N   1      28.091  17.568   8.880  0.00  0.00     0.091 A 
HETATM   12  N   UNK N   1      29.396  17.670   9.242  0.00  0.00    -0.365 N 
HETATM   13  C   UNK N   1      30.393  17.558   8.310  0.00  0.00     0.048 A 
ATOM     14  HN  UNK N   1      29.636  17.831  10.219  1.00  0.00     0.165 HD
HETATM   15  C   UNK N   1      31.712  17.682   8.674  0.00  0.00     0.070 A 
HETATM   16  C   UNK N   1      30.080  17.322   6.978  0.00  0.00     0.027 A 
HETATM   17  C   UNK N   1      32.742  17.557   7.716  0.00  0.00     0.104 A 
HETATM   18  C   UNK N   1      32.419  17.302   6.380  0.00  0.00     0.102 A 
HETATM   19  C   UNK N   1      31.089  17.189   6.018  0.00  0.00     0.056 A 
BRANCH  17  20
HETATM   20  O   UNK N   1      34.033  17.712   8.065  0.00  0.00    -0.348 OA
BRANCH  20  21
HETATM   21  C   UNK N   1      34.793  16.720   8.661  0.00  0.00     0.177 C 
BRANCH  21  22
HETATM   22  C   UNK N   1      34.939  16.807  10.190  0.00  0.00     0.057 C 
BRANCH  22  23
HETATM   23  C   UNK N   1      34.696  15.488  10.941  0.00  0.00     0.274 C 
BRANCH  23  24
HETATM   24  N   UNK N   1      35.873  14.661  11.216  0.00  0.00     0.092 N 
HETATM   25  C   UNK N   1      35.817  13.425  10.435  0.00  0.00     0.298 C 
HETATM   26  C   UNK N   1      34.953  12.389  11.149  0.00  0.00     0.198 C 
HETATM   27  O   UNK N   1      35.510  12.121  12.409  0.00  0.00    -0.388 OA
HETATM   28  C   UNK N   1      35.309  13.270  13.188  0.00  0.00     0.198 C 
HETATM   29  C   UNK N   1      36.159  14.426  12.642  0.00  0.00     0.298 C 
ENDBRANCH  23  24
ENDBRANCH  22  23
ENDBRANCH  21  22
ENDBRANCH  20  21
ENDBRANCH  17  20
BRANCH  18  30
HETATM   30  O   UNK N   1      33.402  17.212   5.447  0.00  0.00    -0.353 OA
HETATM   31  C   UNK N   1      33.793  16.015   4.885  0.00  0.00     0.210 C 
ENDBRANCH  18  30
ENDBRANCH   8   9
ENDBRANCH   6   8
BRANCH   4  32
HETATM   32  N   UNK N   1      24.285  18.076   5.032  0.00  0.00    -0.362 N 
HETATM   33  C   UNK N   1      23.033  18.291   5.181  0.00  0.00     0.130 C 
ATOM     34  HN  UNK N   1      24.824  17.925   5.884  1.00  0.00     0.162 HD
BRANCH  33  35
HETATM   35  C   UNK N   1      22.096  18.292   4.023  0.00  0.00     0.105 A 
HETATM   36  C   UNK N   1      22.123  19.483   3.094  0.00  0.00     0.029 A 
HETATM   37  C   UNK N   1      21.074  19.405   4.188  0.00  0.00     0.029 A 
BRANCH  35  38
HETATM   38  C   UNK N   1      21.492  16.988   3.615  0.00  0.00     0.239 C 
HETATM   39  N   UNK N   1      21.056  16.850   2.340  0.00  0.00    -0.326 N 
HETATM   40  H   UNK N   1      20.791  17.662   1.851  0.00  0.00     0.169 HD
HETATM   41  O   UNK N   1      21.558  16.019   4.362  0.00  0.00    -0.272 OA
BRANCH  39  42
HETATM   42  C   UNK N   1      20.960  15.606   1.665  0.00  0.00     0.034 A 
HETATM   43  C   UNK N   1      22.122  14.909   1.329  0.00  0.00     0.032 A 
HETATM   44  C   UNK N   1      22.036  13.610   0.816  0.00  0.00     0.044 A 
HETATM   45  C   UNK N   1      20.788  12.993   0.674  0.00  0.00     0.116 A 
HETATM   46  C   UNK N   1      19.625  13.682   1.017  0.00  0.00     0.044 A 
HETATM   47  F   UNK N   1      20.706  11.721   0.219  0.00  0.00    -0.206 F 
HETATM   48  C   UNK N   1      19.712  14.983   1.509  0.00  0.00     0.032 A 
ENDBRANCH  39  42
ENDBRANCH  35  38
ENDBRANCH  33  35
BRANCH  33  49
HETATM   49  O   UNK N   1      22.562  18.504   6.423  0.00  0.00    -0.349 OA
HETATM   50  H   UNK N   1      22.361  18.815   7.283  0.00  0.00     0.219 HD
ENDBRANCH  33  49
ENDBRANCH   4  32
TORSDOF 13
ENDMDL
MODEL 5
REMARK VINA RESULT:      -8.0      4.616     11.684
REMARK  13 active torsions:
REMARK  status: ('A' for Active; 'I' for Inactive)
REMARK    1  A    between atoms: C_13  and  C_2 
REMARK    2  A    between atoms: C_16  and  C_2 
REMARK    3  A    between atoms: N_42  and  C_13 
REMARK    4  A    between atoms: O_47  and  C_16 
REMARK    5  A    between atoms: N_39  and  C_23 
REMARK    6  A    between atoms: N_40  and  C_24 
REMARK    7  A    between atoms: O_48  and  C_28 
REMARK    8  A    between atoms: O_48  and  C_29 
REMARK    9  A    between atoms: O_45  and  C_30 
REMARK   10  A    between atoms: O_47  and  C_31 
REMARK   11  A    between atoms: C_34  and  C_32 
REMARK       I    between atoms: N_39  and  C_32 
REMARK   12  A    between atoms: C_34  and  C_33 
REMARK   13  A    between atoms: O_44  and  C_33 
ROOT
HETATM    1  C   UNK N   1      34.994  16.049   9.786  0.00  0.00     0.005 C 
HETATM    2  C   UNK N   1      34.156  17.012   9.271  0.00  0.00     0.038 C 
HETATM    3  C   UNK N   1      35.275  15.118   7.624  0.00  0.00     0.047 C 
HETATM    4  C   UNK N   1      35.230  14.920   9.016  0.00  0.00     0.132 C 
HETATM    5  C   UNK N   1      34.472  16.100   7.065  0.00  0.00     0.148 C 
HETATM    6  C   UNK N   1      33.788  16.952   7.921  0.00  0.00     0.114 C 
HETATM    7  F   UNK N   1      34.262  16.139   5.724  0.00  0.00    -0.203 F 
ENDROOT
BRANCH   6   8
HETATM    8  O   UNK N   1      32.817  17.722   7.438  0.00  0.00    -0.307 OA
BRANCH   8   9
HETATM    9  C   UNK N   1      31.514  17.615   7.754  0.00  0.00     0.090 A 
HETATM   10  C   UNK N   1      30.999  17.836   9.055  0.00  0.00     0.055 A 
HETATM   11  C   UNK N   1      29.619  17.768   9.262  0.00  0.00     0.091 A 
HETATM   12  N   UNK N   1      28.790  17.488   8.223  0.00  0.00    -0.365 N 
HETATM   13  C   UNK N   1      29.290  17.251   6.970  0.00  0.00     0.048 A 
ATOM     14  HN  UNK N   1      27.783  17.453   8.378  1.00  0.00     0.165 HD
HETATM   15  C   UNK N   1      28.452  16.947   5.925  0.00  0.00     0.070 A 
HETATM   16  C   UNK N   1      30.659  17.312   6.743  0.00  0.00     0.027 A 
HETATM   17  C   UNK N   1      28.966  16.713   4.630  0.00  0.00     0.104 A 
HETATM   18  C   UNK N   1      30.343  16.793   4.406  0.00  0.00     0.102 A 
HETATM   19  C   UNK N   1      31.183  17.089   5.464  0.00  0.00     0.056 A 
BRANCH  17  20
HETATM   20  O   UNK N   1      28.149  16.382   3.613  0.00  0.00    -0.348 OA
BRANCH  20  21
HETATM   21  C   UNK N   1      26.968  15.676   3.771  0.00  0.00     0.177 C 
BRANCH  21  22
HETATM   22  C   UNK N   1      25.672  16.464   3.517  0.00  0.00     0.057 C 
BRANCH  22  23
HETATM   23  C   UNK N   1      25.861  17.975   3.310  0.00  0.00     0.274 C 
BRANCH  23  24
HETATM   24  N   UNK N   1      25.221  18.858   4.288  0.00  0.00     0.092 N 
HETATM   25  C   UNK N   1      23.946  18.288   4.724  0.00  0.00     0.298 C 
HETATM   26  C   UNK N   1      22.844  18.635   3.725  0.00  0.00     0.198 C 
HETATM   27  O   UNK N   1      22.728  20.031   3.642  0.00  0.00    -0.388 OA
HETATM   28  C   UNK N   1      23.882  20.490   2.990  0.00  0.00     0.198 C 
HETATM   29  C   UNK N   1      25.110  20.271   3.886  0.00  0.00     0.298 C 
ENDBRANCH  23  24
ENDBRANCH  22  23
ENDBRANCH  21  22
ENDBRANCH  20  21
ENDBRANCH  17  20
BRANCH  18  30
HETATM   30  O   UNK N   1      30.848  16.538   3.171  0.00  0.00    -0.353 OA
HETATM   31  C   UNK N   1      32.146  16.841   2.817  0.00  0.00     0.210 C 
ENDBRANCH  18  30
ENDBRANCH   8   9
ENDBRANCH   6   8
BRANCH   4  32
HETATM   32  N   UNK N   1      34.246  13.947   9.317  0.00  0.00    -0.362 N 
HETATM   33  C   UNK N   1      34.428  12.812   9.877  0.00  0.00     0.130 C 
ATOM     34  HN  UNK N   1      33.288  14.177   9.057  1.00  0.00     0.162 HD
BRANCH  33  35
HETATM   35  C   UNK N   1      35.725  12.453  10.514  0.00  0.00     0.105 A 
HETATM   36  C   UNK N   1      36.949  12.377   9.631  0.00  0.00     0.029 A 
HETATM   37  C   UNK N   1      36.200  11.107   9.992  0.00  0.00     0.029 A 
BRANCH  35  38
HETATM   38  C   UNK N   1      35.832  12.583  11.999  0.00  0.00     0.239 C 
HETATM   39  N   UNK N   1      34.697  12.509  12.735  0.00  0.00    -0.326 N 
HETATM   40  H   UNK N   1      33.848  12.757  12.303  0.00  0.00     0.169 HD
HETATM   41  O   UNK N   1      36.931  12.573  12.540  0.00  0.00    -0.272 OA
BRANCH  39  42
HETATM   42  C   UNK N   1      34.657  12.096  14.091  0.00  0.00     0.034 A 
HETATM   43  C   UNK N   1      34.469  10.747  14.398  0.00  0.00     0.032 A 
HETATM   44  C   UNK N   1      34.594  10.305  15.721  0.00  0.00     0.044 A 
HETATM   45  C   UNK N   1      34.946  11.207  16.731  0.00  0.00     0.116 A 
HETATM   46  C   UNK N   1      35.143  12.554  16.427  0.00  0.00     0.044 A 
HETATM   47  F   UNK N   1      35.110  10.774  18.003  0.00  0.00    -0.206 F 
HETATM   48  C   UNK N   1      34.998  12.995  15.114  0.00  0.00     0.032 A 
ENDBRANCH  39  42
ENDBRANCH  35  38
ENDBRANCH  33  35
BRANCH  33  49
HETATM   49  O   UNK N   1      33.407  11.937   9.898  0.00  0.00    -0.349 OA
HETATM   50  H   UNK N   1      32.811  11.224   9.776  0.00  0.00     0.219 HD
ENDBRANCH  33  49
ENDBRANCH   4  32
TORSDOF 13
ENDMDL
MODEL 6
REMARK VINA RESULT:      -7.9      2.017      2.417
REMARK  13 active torsions:
REMARK  status: ('A' for Active; 'I' for Inactive)
REMARK    1  A    between atoms: C_13  and  C_2 
REMARK    2  A    between atoms: C_16  and  C_2 
REMARK    3  A    between atoms: N_42  and  C_13 
REMARK    4  A    between atoms: O_47  and  C_16 
REMARK    5  A    between atoms: N_39  and  C_23 
REMARK    6  A    between atoms: N_40  and  C_24 
REMARK    7  A    between atoms: O_48  and  C_28 
REMARK    8  A    between atoms: O_48  and  C_29 
REMARK    9  A    between atoms: O_45  and  C_30 
REMARK   10  A    between atoms: O_47  and  C_31 
REMARK   11  A    between atoms: C_34  and  C_32 
REMARK       I    between atoms: N_39  and  C_32 
REMARK   12  A    between atoms: C_34  and  C_33 
REMARK   13  A    between atoms: O_44  and  C_33 
ROOT
HETATM    1  C   UNK N   1      26.883  13.988   5.525  0.00  0.00     0.005 C 
HETATM    2  C   UNK N   1      27.913  14.899   5.591  0.00  0.00     0.038 C 
HETATM    3  C   UNK N   1      26.332  14.749   3.348  0.00  0.00     0.047 C 
HETATM    4  C   UNK N   1      25.902  14.191   4.566  0.00  0.00     0.132 C 
HETATM    5  C   UNK N   1      27.389  15.646   3.363  0.00  0.00     0.148 C 
HETATM    6  C   UNK N   1      28.079  15.825   4.554  0.00  0.00     0.114 C 
HETATM    7  F   UNK N   1      27.651  16.420   2.278  0.00  0.00    -0.203 F 
ENDROOT
BRANCH   6   8
HETATM    8  O   UNK N   1      28.912  16.854   4.677  0.00  0.00    -0.307 OA
BRANCH   8   9
HETATM    9  C   UNK N   1      30.233  16.816   4.430  0.00  0.00     0.090 A 
HETATM   10  C   UNK N   1      30.787  16.585   3.147  0.00  0.00     0.055 A 
HETATM   11  C   UNK N   1      32.174  16.636   2.984  0.00  0.00     0.091 A 
HETATM   12  N   UNK N   1      32.973  16.897   4.051  0.00  0.00    -0.365 N 
HETATM   13  C   UNK N   1      32.438  17.096   5.296  0.00  0.00     0.048 A 
ATOM     14  HN  UNK N   1      33.983  16.945   3.923  1.00  0.00     0.165 HD
HETATM   15  C   UNK N   1      33.249  17.340   6.378  0.00  0.00     0.070 A 
HETATM   16  C   UNK N   1      31.062  17.049   5.480  0.00  0.00     0.027 A 
HETATM   17  C   UNK N   1      32.699  17.556   7.661  0.00  0.00     0.104 A 
HETATM   18  C   UNK N   1      31.312  17.525   7.834  0.00  0.00     0.102 A 
HETATM   19  C   UNK N   1      30.501  17.268   6.743  0.00  0.00     0.056 A 
BRANCH  17  20
HETATM   20  O   UNK N   1      33.493  17.761   8.728  0.00  0.00    -0.348 OA
BRANCH  20  21
HETATM   21  C   UNK N   1      34.542  16.928   9.078  0.00  0.00     0.177 C 
BRANCH  21  22
HETATM   22  C   UNK N   1      34.154  15.535   9.601  0.00  0.00     0.057 C 
BRANCH  22  23
HETATM   23  C   UNK N   1      34.519  15.269  11.070  0.00  0.00     0.274 C 
BRANCH  23  24
HETATM   24  N   UNK N   1      35.754  14.521  11.315  0.00  0.00     0.092 N 
HETATM   25  C   UNK N   1      35.819  13.351  10.439  0.00  0.00     0.298 C 
HETATM   26  C   UNK N   1      35.027  12.194  11.044  0.00  0.00     0.198 C 
HETATM   27  O   UNK N   1      35.575  11.872  12.296  0.00  0.00    -0.388 OA
HETATM   28  C   UNK N   1      35.261  12.936  13.155  0.00  0.00     0.198 C 
HETATM   29  C   UNK N   1      36.025  14.196  12.727  0.00  0.00     0.298 C 
ENDBRANCH  23  24
ENDBRANCH  22  23
ENDBRANCH  21  22
ENDBRANCH  20  21
ENDBRANCH  17  20
BRANCH  18  30
HETATM   30  O   UNK N   1      30.776  17.699   9.070  0.00  0.00    -0.353 OA
HETATM   31  C   UNK N   1      29.757  18.594   9.323  0.00  0.00     0.210 C 
ENDBRANCH  18  30
ENDBRANCH   8   9
ENDBRANCH   6   8
BRANCH   4  32
HETATM   32  N   UNK N   1      24.885  15.007   5.119  0.00  0.00    -0.362 N 
HETATM   33  C   UNK N   1      23.744  14.630   5.557  0.00  0.00     0.130 C 
ATOM     34  HN  UNK N   1      25.085  16.006   5.172  1.00  0.00     0.162 HD
BRANCH  33  35
HETATM   35  C   UNK N   1      23.420  13.191   5.754  0.00  0.00     0.105 A 
HETATM   36  C   UNK N   1      23.217  12.337   4.525  0.00  0.00     0.029 A 
HETATM   37  C   UNK N   1      22.013  12.906   5.254  0.00  0.00     0.029 A 
BRANCH  35  38
HETATM   38  C   UNK N   1      23.704  12.590   7.094  0.00  0.00     0.239 C 
HETATM   39  N   UNK N   1      23.824  13.418   8.159  0.00  0.00    -0.326 N 
HETATM   40  H   UNK N   1      24.104  14.347   7.993  0.00  0.00     0.169 HD
HETATM   41  O   UNK N   1      23.647  11.376   7.247  0.00  0.00    -0.272 OA
BRANCH  39  42
HETATM   42  C   UNK N   1      23.572  13.029   9.499  0.00  0.00     0.034 A 
HETATM   43  C   UNK N   1      22.255  12.926   9.953  0.00  0.00     0.032 A 
HETATM   44  C   UNK N   1      21.990  12.384  11.215  0.00  0.00     0.044 A 
HETATM   45  C   UNK N   1      23.039  11.910  12.009  0.00  0.00     0.116 A 
HETATM   46  C   UNK N   1      24.355  12.002  11.556  0.00  0.00     0.044 A 
HETATM   47  F   UNK N   1      22.781  11.345  13.212  0.00  0.00    -0.206 F 
HETATM   48  C   UNK N   1      24.619  12.560  10.307  0.00  0.00     0.032 A 
ENDBRANCH  39  42
ENDBRANCH  35  38
ENDBRANCH  33  35
BRANCH  33  49
HETATM   49  O   UNK N   1      22.831  15.570   5.858  0.00  0.00    -0.349 OA
HETATM   50  H   UNK N   1      22.224  16.284   5.872  0.00  0.00     0.219 HD
ENDBRANCH  33  49
ENDBRANCH   4  32
TORSDOF 13
ENDMDL
MODEL 7
REMARK VINA RESULT:      -7.9      3.663     11.751
REMARK  13 active torsions:
REMARK  status: ('A' for Active; 'I' for Inactive)
REMARK    1  A    between atoms: C_13  and  C_2 
REMARK    2  A    between atoms: C_16  and  C_2 
REMARK    3  A    between atoms: N_42  and  C_13 
REMARK    4  A    between atoms: O_47  and  C_16 
REMARK    5  A    between atoms: N_39  and  C_23 
REMARK    6  A    between atoms: N_40  and  C_24 
REMARK    7  A    between atoms: O_48  and  C_28 
REMARK    8  A    between atoms: O_48  and  C_29 
REMARK    9  A    between atoms: O_45  and  C_30 
REMARK   10  A    between atoms: O_47  and  C_31 
REMARK   11  A    between atoms: C_34  and  C_32 
REMARK       I    between atoms: N_39  and  C_32 
REMARK   12  A    between atoms: C_34  and  C_33 
REMARK   13  A    between atoms: O_44  and  C_33 
ROOT
HETATM    1  C   UNK N   1      33.399  14.912  10.165  0.00  0.00     0.005 C 
HETATM    2  C   UNK N   1      32.391  15.500   9.435  0.00  0.00     0.038 C 
HETATM    3  C   UNK N   1      34.976  16.409   9.223  0.00  0.00     0.047 C 
HETATM    4  C   UNK N   1      34.706  15.138   9.762  0.00  0.00     0.132 C 
HETATM    5  C   UNK N   1      33.979  17.055   8.508  0.00  0.00     0.148 C 
HETATM    6  C   UNK N   1      32.711  16.492   8.498  0.00  0.00     0.114 C 
HETATM    7  F   UNK N   1      34.273  18.132   7.734  0.00  0.00    -0.203 F 
ENDROOT
BRANCH   6   8
HETATM    8  O   UNK N   1      31.810  16.927   7.623  0.00  0.00    -0.307 OA
BRANCH   8   9
HETATM    9  C   UNK N   1      30.563  17.327   7.928  0.00  0.00     0.090 A 
HETATM   10  C   UNK N   1      30.267  18.285   8.929  0.00  0.00     0.055 A 
HETATM   11  C   UNK N   1      28.942  18.685   9.120  0.00  0.00     0.091 A 
HETATM   12  N   UNK N   1      27.956  18.150   8.354  0.00  0.00    -0.365 N 
HETATM   13  C   UNK N   1      28.239  17.207   7.403  0.00  0.00     0.048 A 
ATOM     14  HN  UNK N   1      26.993  18.456   8.489  1.00  0.00     0.165 HD
HETATM   15  C   UNK N   1      27.237  16.653   6.643  0.00  0.00     0.070 A 
HETATM   16  C   UNK N   1      29.549  16.795   7.198  0.00  0.00     0.027 A 
HETATM   17  C   UNK N   1      27.529  15.687   5.655  0.00  0.00     0.104 A 
HETATM   18  C   UNK N   1      28.853  15.290   5.442  0.00  0.00     0.102 A 
HETATM   19  C   UNK N   1      29.855  15.844   6.218  0.00  0.00     0.056 A 
BRANCH  17  20
HETATM   20  O   UNK N   1      26.545  15.118   4.933  0.00  0.00    -0.348 OA
BRANCH  20  21
HETATM   21  C   UNK N   1      25.375  14.624   5.483  0.00  0.00     0.177 C 
BRANCH  21  22
HETATM   22  C   UNK N   1      25.530  13.434   6.445  0.00  0.00     0.057 C 
BRANCH  22  23
HETATM   23  C   UNK N   1      25.049  13.696   7.882  0.00  0.00     0.274 C 
BRANCH  23  24
HETATM   24  N   UNK N   1      24.617  12.528   8.653  0.00  0.00     0.092 N 
HETATM   25  C   UNK N   1      23.699  11.710   7.860  0.00  0.00     0.298 C 
HETATM   26  C   UNK N   1      22.280  12.268   7.956  0.00  0.00     0.198 C 
HETATM   27  O   UNK N   1      21.875  12.256   9.301  0.00  0.00    -0.388 OA
HETATM   28  C   UNK N   1      22.632  13.241   9.954  0.00  0.00     0.198 C 
HETATM   29  C   UNK N   1      24.107  12.818  10.004  0.00  0.00     0.298 C 
ENDBRANCH  23  24
ENDBRANCH  22  23
ENDBRANCH  21  22
ENDBRANCH  20  21
ENDBRANCH  17  20
BRANCH  18  30
HETATM   30  O   UNK N   1      29.138  14.339   4.516  0.00  0.00    -0.353 OA
HETATM   31  C   UNK N   1      30.243  13.518   4.604  0.00  0.00     0.210 C 
ENDBRANCH  18  30
ENDBRANCH   8   9
ENDBRANCH   6   8
BRANCH   4  32
HETATM   32  N   UNK N   1      35.073  14.145   8.821  0.00  0.00    -0.362 N 
HETATM   33  C   UNK N   1      36.146  13.450   8.811  0.00  0.00     0.130 C 
ATOM     34  HN  UNK N   1      34.408  13.966   8.069  1.00  0.00     0.162 HD
BRANCH  33  35
HETATM   35  C   UNK N   1      37.084  13.441   9.967  0.00  0.00     0.105 A 
HETATM   36  C   UNK N   1      38.159  14.500  10.013  0.00  0.00     0.029 A 
HETATM   37  C   UNK N   1      38.489  13.114   9.489  0.00  0.00     0.029 A 
BRANCH  35  38
HETATM   38  C   UNK N   1      36.679  12.675  11.186  0.00  0.00     0.239 C 
HETATM   39  N   UNK N   1      37.399  12.844  12.321  0.00  0.00    -0.326 N 
HETATM   40  H   UNK N   1      38.337  13.128  12.236  0.00  0.00     0.169 HD
HETATM   41  O   UNK N   1      35.622  12.057  11.200  0.00  0.00    -0.272 OA
BRANCH  39  42
HETATM   42  C   UNK N   1      36.882  12.638  13.626  0.00  0.00     0.034 A 
HETATM   43  C   UNK N   1      35.944  13.532  14.148  0.00  0.00     0.032 A 
HETATM   44  C   UNK N   1      35.305  13.247  15.360  0.00  0.00     0.044 A 
HETATM   45  C   UNK N   1      35.576  12.050  16.031  0.00  0.00     0.116 A 
HETATM   46  C   UNK N   1      36.504  11.150  15.509  0.00  0.00     0.044 A 
HETATM   47  F   UNK N   1      34.926  11.754  17.182  0.00  0.00    -0.206 F 
HETATM   48  C   UNK N   1      37.154  11.444  14.312  0.00  0.00     0.032 A 
ENDBRANCH  39  42
ENDBRANCH  35  38
ENDBRANCH  33  35
BRANCH  33  49
HETATM   49  O   UNK N   1      36.412  12.699   7.727  0.00  0.00    -0.349 OA
HETATM   50  H   UNK N   1      36.748  12.098   7.091  0.00  0.00     0.219 HD
ENDBRANCH  33  49
ENDBRANCH   4  32
TORSDOF 13
ENDMDL
MODEL 8
REMARK VINA RESULT:      -7.9      3.547     12.157
REMARK  13 active torsions:
REMARK  status: ('A' for Active; 'I' for Inactive)
REMARK    1  A    between atoms: C_13  and  C_2 
REMARK    2  A    between atoms: C_16  and  C_2 
REMARK    3  A    between atoms: N_42  and  C_13 
REMARK    4  A    between atoms: O_47  and  C_16 
REMARK    5  A    between atoms: N_39  and  C_23 
REMARK    6  A    between atoms: N_40  and  C_24 
REMARK    7  A    between atoms: O_48  and  C_28 
REMARK    8  A    between atoms: O_48  and  C_29 
REMARK    9  A    between atoms: O_45  and  C_30 
REMARK   10  A    between atoms: O_47  and  C_31 
REMARK   11  A    between atoms: C_34  and  C_32 
REMARK       I    between atoms: N_39  and  C_32 
REMARK   12  A    between atoms: C_34  and  C_33 
REMARK   13  A    between atoms: O_44  and  C_33 
ROOT
HETATM    1  C   UNK N   1      33.606  14.667  10.038  0.00  0.00     0.005 C 
HETATM    2  C   UNK N   1      32.430  15.045   9.431  0.00  0.00     0.038 C 
HETATM    3  C   UNK N   1      34.794  16.283   8.774  0.00  0.00     0.047 C 
HETATM    4  C   UNK N   1      34.796  15.037   9.429  0.00  0.00     0.132 C 
HETATM    5  C   UNK N   1      33.621  16.720   8.177  0.00  0.00     0.148 C 
HETATM    6  C   UNK N   1      32.463  15.987   8.395  0.00  0.00     0.114 C 
HETATM    7  F   UNK N   1      33.639  17.757   7.300  0.00  0.00    -0.203 F 
ENDROOT
BRANCH   6   8
HETATM    8  O   UNK N   1      31.393  16.216   7.639  0.00  0.00    -0.307 OA
BRANCH   8   9
HETATM    9  C   UNK N   1      30.387  17.051   7.953  0.00  0.00     0.090 A 
HETATM   10  C   UNK N   1      30.144  17.534   9.263  0.00  0.00     0.055 A 
HETATM   11  C   UNK N   1      29.114  18.454   9.469  0.00  0.00     0.091 A 
HETATM   12  N   UNK N   1      28.355  18.869   8.422  0.00  0.00    -0.365 N 
HETATM   13  C   UNK N   1      28.574  18.384   7.161  0.00  0.00     0.048 A 
ATOM     14  HN  UNK N   1      27.613  19.551   8.578  1.00  0.00     0.165 HD
HETATM   15  C   UNK N   1      27.792  18.789   6.106  0.00  0.00     0.070 A 
HETATM   16  C   UNK N   1      29.593  17.467   6.933  0.00  0.00     0.027 A 
HETATM   17  C   UNK N   1      28.023  18.298   4.803  0.00  0.00     0.104 A 
HETATM   18  C   UNK N   1      29.062  17.389   4.579  0.00  0.00     0.102 A 
HETATM   19  C   UNK N   1      29.839  16.976   5.646  0.00  0.00     0.056 A 
BRANCH  17  20
HETATM   20  O   UNK N   1      27.237  18.668   3.775  0.00  0.00    -0.348 OA
BRANCH  20  21
HETATM   21  C   UNK N   1      25.855  18.580   3.792  0.00  0.00     0.177 C 
BRANCH  21  22
HETATM   22  C   UNK N   1      25.269  17.158   3.797  0.00  0.00     0.057 C 
BRANCH  22  23
HETATM   23  C   UNK N   1      23.760  17.080   4.078  0.00  0.00     0.274 C 
BRANCH  23  24
HETATM   24  N   UNK N   1      23.347  17.167   5.481  0.00  0.00     0.092 N 
HETATM   25  C   UNK N   1      23.274  15.830   6.070  0.00  0.00     0.298 C 
HETATM   26  C   UNK N   1      21.931  15.181   5.741  0.00  0.00     0.198 C 
HETATM   27  O   UNK N   1      20.900  15.978   6.261  0.00  0.00    -0.388 OA
HETATM   28  C   UNK N   1      20.869  17.147   5.486  0.00  0.00     0.198 C 
HETATM   29  C   UNK N   1      22.139  17.972   5.734  0.00  0.00     0.298 C 
ENDBRANCH  23  24
ENDBRANCH  22  23
ENDBRANCH  21  22
ENDBRANCH  20  21
ENDBRANCH  17  20
BRANCH  18  30
HETATM   30  O   UNK N   1      29.271  16.886   3.335  0.00  0.00    -0.353 OA
HETATM   31  C   UNK N   1      30.389  16.150   3.004  0.00  0.00     0.210 C 
ENDBRANCH  18  30
ENDBRANCH   8   9
ENDBRANCH   6   8
BRANCH   4  32
HETATM   32  N   UNK N   1      35.172  14.028   8.509  0.00  0.00    -0.362 N 
HETATM   33  C   UNK N   1      36.246  13.335   8.520  0.00  0.00     0.130 C 
ATOM     34  HN  UNK N   1      34.513  13.834   7.755  1.00  0.00     0.162 HD
BRANCH  33  35
HETATM   35  C   UNK N   1      37.174  13.349   9.685  0.00  0.00     0.105 A 
HETATM   36  C   UNK N   1      38.207  14.449   9.752  0.00  0.00     0.029 A 
HETATM   37  C   UNK N   1      38.595  13.084   9.215  0.00  0.00     0.029 A 
BRANCH  35  38
HETATM   38  C   UNK N   1      36.791  12.553  10.891  0.00  0.00     0.239 C 
HETATM   39  N   UNK N   1      37.403  12.830  12.067  0.00  0.00    -0.326 N 
HETATM   40  H   UNK N   1      38.300  13.233  12.038  0.00  0.00     0.169 HD
HETATM   41  O   UNK N   1      35.824  11.803  10.849  0.00  0.00    -0.272 OA
BRANCH  39  42
HETATM   42  C   UNK N   1      36.830  12.576  13.339  0.00  0.00     0.034 A 
HETATM   43  C   UNK N   1      37.230  11.452  14.066  0.00  0.00     0.032 A 
HETATM   44  C   UNK N   1      36.798  11.282  15.386  0.00  0.00     0.044 A 
HETATM   45  C   UNK N   1      35.996  12.255  15.992  0.00  0.00     0.116 A 
HETATM   46  C   UNK N   1      35.602  13.383  15.274  0.00  0.00     0.044 A 
HETATM   47  F   UNK N   1      35.614  12.113  17.284  0.00  0.00    -0.206 F 
HETATM   48  C   UNK N   1      36.017  13.541  13.953  0.00  0.00     0.032 A 
ENDBRANCH  39  42
ENDBRANCH  35  38
ENDBRANCH  33  35
BRANCH  33  49
HETATM   49  O   UNK N   1      36.523  12.565   7.453  0.00  0.00    -0.349 OA
HETATM   50  H   UNK N   1      36.744  11.881   6.852  0.00  0.00     0.219 HD
ENDBRANCH  33  49
ENDBRANCH   4  32
TORSDOF 13
ENDMDL
MODEL 9
REMARK VINA RESULT:      -7.8      3.354     11.814
REMARK  13 active torsions:
REMARK  status: ('A' for Active; 'I' for Inactive)
REMARK    1  A    between atoms: C_13  and  C_2 
REMARK    2  A    between atoms: C_16  and  C_2 
REMARK    3  A    between atoms: N_42  and  C_13 
REMARK    4  A    between atoms: O_47  and  C_16 
REMARK    5  A    between atoms: N_39  and  C_23 
REMARK    6  A    between atoms: N_40  and  C_24 
REMARK    7  A    between atoms: O_48  and  C_28 
REMARK    8  A    between atoms: O_48  and  C_29 
REMARK    9  A    between atoms: O_45  and  C_30 
REMARK   10  A    between atoms: O_47  and  C_31 
REMARK   11  A    between atoms: C_34  and  C_32 
REMARK       I    between atoms: N_39  and  C_32 
REMARK   12  A    between atoms: C_34  and  C_33 
REMARK   13  A    between atoms: O_44  and  C_33 
ROOT
HETATM    1  C   UNK N   1      34.710  14.358   7.605  0.00  0.00     0.005 C 
HETATM    2  C   UNK N   1      34.041  15.271   6.821  0.00  0.00     0.038 C 
HETATM    3  C   UNK N   1      33.289  14.866   9.434  0.00  0.00     0.047 C 
HETATM    4  C   UNK N   1      34.555  14.450   8.980  0.00  0.00     0.132 C 
HETATM    5  C   UNK N   1      32.565  15.759   8.660  0.00  0.00     0.148 C 
HETATM    6  C   UNK N   1      33.048  16.073   7.397  0.00  0.00     0.114 C 
HETATM    7  F   UNK N   1      31.489  16.405   9.178  0.00  0.00    -0.203 F 
ENDROOT
BRANCH   6   8
HETATM    8  O   UNK N   1      32.535  17.110   6.741  0.00  0.00    -0.307 OA
BRANCH   8   9
HETATM    9  C   UNK N   1      32.003  17.060   5.507  0.00  0.00     0.090 A 
HETATM   10  C   UNK N   1      32.763  16.852   4.330  0.00  0.00     0.055 A 
HETATM   11  C   UNK N   1      32.104  16.746   3.103  0.00  0.00     0.091 A 
HETATM   12  N   UNK N   1      30.751  16.849   3.049  0.00  0.00    -0.365 N 
HETATM   13  C   UNK N   1      30.018  17.074   4.183  0.00  0.00     0.048 A 
ATOM     14  HN  UNK N   1      30.275  16.757   2.152  1.00  0.00     0.165 HD
HETATM   15  C   UNK N   1      28.651  17.198   4.124  0.00  0.00     0.070 A 
HETATM   16  C   UNK N   1      30.654  17.183   5.414  0.00  0.00     0.027 A 
HETATM   17  C   UNK N   1      27.893  17.419   5.295  0.00  0.00     0.104 A 
HETATM   18  C   UNK N   1      28.539  17.511   6.532  0.00  0.00     0.102 A 
HETATM   19  C   UNK N   1      29.916  17.396   6.584  0.00  0.00     0.056 A 
BRANCH  17  20
HETATM   20  O   UNK N   1      26.558  17.575   5.235  0.00  0.00    -0.348 OA
BRANCH  20  21
HETATM   21  C   UNK N   1      25.899  18.158   4.165  0.00  0.00     0.177 C 
BRANCH  21  22
HETATM   22  C   UNK N   1      24.616  18.936   4.505  0.00  0.00     0.057 C 
BRANCH  22  23
HETATM   23  C   UNK N   1      23.313  18.135   4.354  0.00  0.00     0.274 C 
BRANCH  23  24
HETATM   24  N   UNK N   1      22.632  17.746   5.591  0.00  0.00     0.092 N 
HETATM   25  C   UNK N   1      22.976  16.368   5.946  0.00  0.00     0.298 C 
HETATM   26  C   UNK N   1      22.089  15.390   5.179  0.00  0.00     0.198 C 
HETATM   27  O   UNK N   1      20.747  15.637   5.509  0.00  0.00    -0.388 OA
HETATM   28  C   UNK N   1      20.412  16.868   4.926  0.00  0.00     0.198 C 
HETATM   29  C   UNK N   1      21.182  18.001   5.621  0.00  0.00     0.298 C 
ENDBRANCH  23  24
ENDBRANCH  22  23
ENDBRANCH  21  22
ENDBRANCH  20  21
ENDBRANCH  17  20
BRANCH  18  30
HETATM   30  O   UNK N   1      27.821  17.756   7.659  0.00  0.00    -0.353 OA
HETATM   31  C   UNK N   1      28.403  17.887   8.902  0.00  0.00     0.210 C 
ENDBRANCH  18  30
ENDBRANCH   8   9
ENDBRANCH   6   8
BRANCH   4  32
HETATM   32  N   UNK N   1      35.544  15.323   9.494  0.00  0.00    -0.362 N 
HETATM   33  C   UNK N   1      36.366  15.086  10.444  0.00  0.00     0.130 C 
ATOM     34  HN  UNK N   1      35.606  16.243   9.059  1.00  0.00     0.162 HD
BRANCH  33  35
HETATM   35  C   UNK N   1      36.540  13.717  11.003  0.00  0.00     0.105 A 
HETATM   36  C   UNK N   1      37.818  12.979  10.679  0.00  0.00     0.029 A 
HETATM   37  C   UNK N   1      36.561  12.698   9.875  0.00  0.00     0.029 A 
BRANCH  35  38
HETATM   38  C   UNK N   1      35.667  13.315  12.148  0.00  0.00     0.239 C 
HETATM   39  N   UNK N   1      36.174  12.473  13.081  0.00  0.00    -0.326 N 
HETATM   40  H   UNK N   1      36.900  11.866  12.810  0.00  0.00     0.169 HD
HETATM   41  O   UNK N   1      34.594  13.877  12.329  0.00  0.00    -0.272 OA
BRANCH  39  42
HETATM   42  C   UNK N   1      35.722  12.413  14.424  0.00  0.00     0.034 A 
HETATM   43  C   UNK N   1      35.239  11.207  14.938  0.00  0.00     0.032 A 
HETATM   44  C   UNK N   1      34.950  11.093  16.302  0.00  0.00     0.044 A 
HETATM   45  C   UNK N   1      35.179  12.174  17.160  0.00  0.00     0.116 A 
HETATM   46  C   UNK N   1      35.670  13.377  16.653  0.00  0.00     0.044 A 
HETATM   47  F   UNK N   1      34.941  12.052  18.487  0.00  0.00    -0.206 F 
HETATM   48  C   UNK N   1      35.939  13.495  15.291  0.00  0.00     0.032 A 
ENDBRANCH  39  42
ENDBRANCH  35  38
ENDBRANCH  33  35
BRANCH  33  49
HETATM   49  O   UNK N   1      37.096  16.106  10.930  0.00  0.00    -0.349 OA
HETATM   50  H   UNK N   1      37.451  16.831  11.406  0.00  0.00     0.219 HD
ENDBRANCH  33  49
ENDBRANCH   4  32
TORSDOF 13
ENDMDL
