REMARK  13 active torsions:
REMARK  status: ('A' for Active; 'I' for Inactive)
REMARK    1  A    between atoms: C_2  and  O_4 
REMARK    2  A    between atoms: O_4  and  C_5 
REMARK    3  A    between atoms: C_5  and  C_7 
REMARK    4  A    between atoms: C_7  and  C_8 
REMARK    5  A    between atoms: C_8  and  C_9 
REMARK    6  A    between atoms: C_10  and  C_9 
REMARK    7  A    between atoms: C_16  and  O_32 
REMARK    8  A    between atoms: C_17  and  C_18 
REMARK    9  A    between atoms: C_19  and  C_20 
REMARK   10  A    between atoms: C_20  and  C_21 
REMARK   11  A    between atoms: C_20  and  O_31 
REMARK   12  A    between atoms: C_21  and  O_22 
REMARK   13  A    between atoms: O_22  and  C_23 
ROOT
HETATM    1  C   UNK N   1       4.497  -3.439  -0.370  0.00  0.00     0.009 C 
HETATM    2  C   UNK N   1       5.959  -3.029  -0.196  0.00  0.00     0.007 C 
HETATM    3  C   UNK N   1       6.832  -4.033   0.528  0.00  0.00     0.008 C 
HETATM    4  C   UNK N   1       6.876  -5.338  -0.243  0.00  0.00     0.025 C 
HETATM    5  C   UNK N   1       5.778  -6.251   0.237  0.00  0.00     0.128 C 
HETATM    6  C   UNK N   1       6.203  -7.598  -0.316  0.00  0.00     0.064 C 
HETATM    7  C   UNK N   1       7.730  -7.613  -0.240  0.00  0.00     0.128 C 
HETATM    8  C   UNK N   1       8.171  -6.141  -0.177  0.00  0.00     0.043 C 
HETATM    9  O   UNK N   1       4.544  -5.859  -0.314  0.00  0.00    -0.385 OA
HETATM   10  C   UNK N   1       4.100  -4.723   0.389  0.00  0.00     0.172 C 
ENDROOT
BRANCH   8  11
HETATM   11  C   UNK N   1       9.140  -5.800   0.939  0.00  0.00    -0.021 C 
HETATM   12  C   UNK N   1       9.800  -4.629   0.995  0.00  0.00     0.003 C 
BRANCH  12  13
HETATM   13  C   UNK N   1       9.579  -3.539  -0.017  0.00  0.00     0.165 C 
BRANCH  13  14
HETATM   14  C   UNK N   1      10.635  -3.506  -1.101  0.00  0.00     0.211 C 
BRANCH  14  15
HETATM   15  O   UNK N   1      11.819  -3.013  -0.611  0.00  0.00    -0.345 OA
BRANCH  15  16
HETATM   16  C   UNK N   1      12.920  -3.762  -0.368  0.00  0.00     0.110 A 
HETATM   17  C   UNK N   1      14.102  -3.093  -0.042  0.00  0.00     0.082 A 
HETATM   18  C   UNK N   1      15.272  -3.805   0.219  0.00  0.00     0.119 A 
HETATM   19  C   UNK N   1      15.269  -5.199   0.168  0.00  0.00     0.045 A 
HETATM   20  F   UNK N   1      16.412  -3.139   0.518  0.00  0.00    -0.206 F 
HETATM   21  C   UNK N   1      14.096  -5.884  -0.150  0.00  0.00     0.048 A 
HETATM   22  C   UNK N   1      12.921  -5.180  -0.424  0.00  0.00     0.149 A 
HETATM   23  F   UNK N   1      11.804  -5.884  -0.732  0.00  0.00    -0.203 F 
ENDBRANCH  15  16
ENDBRANCH  14  15
ENDBRANCH  13  14
BRANCH  13  24
HETATM   24  O   UNK N   1       9.447  -2.299   0.611  0.00  0.00    -0.390 OA
HETATM   25  H   UNK N   1      10.148  -1.789   1.048  0.00  0.00     0.210 HD
ENDBRANCH  13  24
ENDBRANCH  12  13
ENDBRANCH   8  11
BRANCH   7  26
HETATM   26  O   UNK N   1       8.141  -8.337   0.882  0.00  0.00    -0.395 OA
HETATM   27  H   UNK N   1       7.849  -8.835   1.661  0.00  0.00     0.210 HD
ENDBRANCH   7  26
BRANCH   1  28
HETATM   28  C   UNK N   1       3.672  -2.230   0.038  0.00  0.00     0.007 C 
BRANCH  28  29
HETATM   29  C   UNK N   1       2.234  -2.355  -0.411  0.00  0.00     0.010 C 
BRANCH  29  30
HETATM   30  C   UNK N   1       1.436  -3.038   0.678  0.00  0.00     0.111 C 
BRANCH  30  31
HETATM   31  C   UNK N   1       0.636  -4.147   0.084  0.00  0.00     0.259 C 
HETATM   32  O   UNK N   1       1.195  -5.087  -0.445  0.00  0.00    -0.265 OA
BRANCH  31  33
HETATM   33  O   UNK N   1      -0.719  -4.076   0.146  0.00  0.00    -0.317 OA
BRANCH  33  34
HETATM   34  C   UNK N   1      -1.546  -5.046  -0.381  0.00  0.00     0.123 C 
HETATM   35  C   UNK N   1      -2.978  -4.568  -0.287  0.00  0.00     0.040 C 
HETATM   36  C   UNK N   1      -1.409  -6.347   0.391  0.00  0.00     0.040 C 
ENDBRANCH  33  34
ENDBRANCH  31  33
ENDBRANCH  30  31
ENDBRANCH  29  30
ENDBRANCH  28  29
ENDBRANCH   1  28
TORSDOF 13
