REMARK  5 active torsions:
REMARK  status: ('A' for Active; 'I' for Inactive)
REMARK    1  A    between atoms: C_5  and  C_12 
REMARK    2  A    between atoms: N_6  and  C_9 
REMARK    3  A    between atoms: C_21  and  C_27 
REMARK    4  A    between atoms: N_31  and  C_33 
REMARK    5  A    between atoms: C_33  and  C_36 
REMARK       I    between atoms: C_36  and  N_38 
ROOT
HETATM    1  C   UNK N   1       4.391   1.119  -0.031  0.00  0.00     0.095 A 
HETATM    2  C   UNK N   1       4.412   2.480  -0.291  0.00  0.00     0.126 A 
HETATM    3  N   UNK N   1       3.135   2.907  -0.237  0.00  0.00    -0.338 N 
HETATM    4  C   UNK N   1       2.380   1.829   0.060  0.00  0.00     0.121 A 
HETATM    5  N   UNK N   1       3.128   0.723   0.178  0.00  0.00    -0.337 N 
ATOM      6  HN  UNK N   1       2.804  -0.222   0.384  1.00  0.00     0.167 HD
HETATM    7  C   UNK N   1       0.910   1.772   0.194  0.00  0.00     0.042 A 
HETATM    8  C   UNK N   1       0.358   0.481   0.272  0.00  0.00     0.019 A 
HETATM    9  C   UNK N   1      -1.014   0.278   0.305  0.00  0.00     0.013 A 
HETATM   10  C   UNK N   1      -1.871   1.371   0.258  0.00  0.00    -0.020 A 
HETATM   11  C   UNK N   1      -1.344   2.666   0.222  0.00  0.00     0.050 A 
HETATM   12  C   UNK N   1       0.034   2.896   0.208  0.00  0.00     0.083 A 
HETATM   13  O   UNK N   1       0.436   4.195   0.211  0.00  0.00    -0.348 OA
HETATM   14  C   UNK N   1       1.689   4.670   0.526  0.00  0.00     0.196 C 
HETATM   15  C   UNK N   1       2.684   4.253  -0.523  0.00  0.00     0.156 C 
ENDROOT
BRANCH  10  16
HETATM   16  C   UNK N   1      -3.316   1.174   0.130  0.00  0.00     0.008 A 
HETATM   17  C   UNK N   1      -4.014  -0.019   0.064  0.00  0.00     0.121 A 
HETATM   18  N   UNK N   1      -5.303   0.276  -0.202  0.00  0.00    -0.308 N 
HETATM   19  N   UNK N   1      -5.418   1.594  -0.305  0.00  0.00    -0.284 N 
ATOM     20  HN  UNK N   1      -6.060  -0.399  -0.307  1.00  0.00     0.186 HD
HETATM   21  C   UNK N   1      -4.224   2.175  -0.102  0.00  0.00     0.125 A 
BRANCH  19  22
HETATM   22  C   UNK N   1      -6.644   2.316  -0.666  0.00  0.00     0.126 C 
HETATM   23  C   UNK N   1      -6.387   3.134  -1.926  0.00  0.00     0.051 C 
HETATM   24  C   UNK N   1      -7.765   1.332  -0.992  0.00  0.00     0.051 C 
BRANCH  22  25
HETATM   25  C   UNK N   1      -7.051   3.250   0.458  0.00  0.00     0.245 C 
HETATM   26  O   UNK N   1      -8.148   3.148   0.986  0.00  0.00    -0.271 OA
HETATM   27  N   UNK N   1      -6.201   4.208   0.885  0.00  0.00    -0.368 N 
HETATM   28  H   UNK N   1      -5.286   4.020   1.197  0.00  0.00     0.159 HD
HETATM   29  H   UNK N   1      -6.512   5.142   0.885  0.00  0.00     0.159 HD
ENDBRANCH  22  25
ENDBRANCH  19  22
ENDBRANCH  10  16
BRANCH   1  30
HETATM   30  C   UNK N   1       5.493   0.150  -0.007  0.00  0.00     0.152 A 
HETATM   31  N   UNK N   1       5.263  -1.169   0.140  0.00  0.00    -0.328 N 
HETATM   32  C   UNK N   1       6.491  -1.711   0.088  0.00  0.00     0.093 A 
ATOM     33  HN  UNK N   1       4.368  -1.644   0.261  1.00  0.00     0.169 HD
HETATM   34  C   UNK N   1       6.757  -3.168   0.197  0.00  0.00     0.090 C 
HETATM   35  N   UNK N   1       7.443  -0.773  -0.080  0.00  0.00    -0.285 N 
HETATM   36  N   UNK N   1       6.817   0.392  -0.136  0.00  0.00    -0.269 N 
ATOM     37  HN  UNK N   1       8.448  -0.930  -0.150  1.00  0.00     0.188 HD
BRANCH  36  38
HETATM   38  C   UNK N   1       7.493   1.683  -0.304  0.00  0.00     0.102 C 
HETATM   39  C   UNK N   1       8.991   1.504  -0.504  0.00  0.00     0.034 C 
HETATM   40  C   UNK N   1       7.282   2.553   0.922  0.00  0.00     0.034 C 
ENDBRANCH  36  38
ENDBRANCH   1  30
TORSDOF 5
