MODEL 1
REMARK VINA RESULT:      -6.8      0.000      0.000
REMARK  5 active torsions:
REMARK  status: ('A' for Active; 'I' for Inactive)
REMARK    1  A    between atoms: C_16  and  C_4 
REMARK    2  A    between atoms: C_14  and  C_10 
REMARK    3  A    between atoms: C_18  and  C_10 
REMARK    4  A    between atoms: O_23  and  C_19 
REMARK    5  A    between atoms: O_24  and  C_20 
ROOT
HETATM    1  C   UNK N   1      25.683  27.284  -5.816  0.00  0.00     0.037 A 
HETATM    2  C   UNK N   1      25.424  25.709  -7.624  0.00  0.00     0.052 A 
HETATM    3  C   UNK N   1      26.352  23.650  -5.980  0.00  0.00     0.054 A 
HETATM    4  C   UNK N   1      25.789  25.985  -6.308  0.00  0.00    -0.019 A 
HETATM    5  C   UNK N   1      26.065  27.550  -4.502  0.00  0.00     0.009 A 
HETATM    6  C   UNK N   1      26.271  24.954  -5.476  0.00  0.00    -0.000 A 
HETATM    7  C   UNK N   1      26.657  25.264  -4.154  0.00  0.00     0.025 A 
HETATM    8  C   UNK N   1      25.513  24.414  -8.144  0.00  0.00     0.102 A 
HETATM    9  C   UNK N   1      25.970  23.359  -7.306  0.00  0.00     0.102 A 
HETATM   10  N   UNK N   1      26.547  26.549  -3.718  0.00  0.00    -0.362 N 
ATOM     11  HN  UNK N   1      26.838  26.769  -2.766  1.00  0.00     0.165 HD
ENDROOT
BRANCH   7  12
HETATM   12  C   UNK N   1      27.212  24.187  -3.243  0.00  0.00     0.096 C 
BRANCH  12  13
HETATM   13  C   UNK N   1      28.694  23.889  -3.265  0.00  0.00    -0.053 A 
HETATM   14  C   UNK N   1      29.177  22.866  -2.442  0.00  0.00     0.007 A 
HETATM   15  C   UNK N   1      30.543  22.563  -2.411  0.00  0.00     0.001 A 
HETATM   16  C   UNK N   1      31.439  23.288  -3.201  0.00  0.00     0.000 A 
HETATM   17  C   UNK N   1      30.970  24.317  -4.020  0.00  0.00     0.001 A 
HETATM   18  C   UNK N   1      29.606  24.617  -4.049  0.00  0.00     0.007 A 
ENDBRANCH  12  13
ENDBRANCH   7  12
BRANCH   5  19
HETATM   19  C   UNK N   1      25.964  28.935  -3.961  0.00  0.00     0.052 C 
HETATM   20  C   UNK N   1      26.982  29.841  -4.631  0.00  0.00     0.011 C 
ENDBRANCH   5  19
BRANCH   9  21
HETATM   21  O   UNK N   1      26.030  22.088  -7.772  0.00  0.00    -0.353 OA
HETATM   22  C   UNK N   1      24.980  21.200  -7.703  0.00  0.00     0.210 C 
ENDBRANCH   9  21
BRANCH   8  23
HETATM   23  O   UNK N   1      25.146  24.235  -9.442  0.00  0.00    -0.353 OA
HETATM   24  C   UNK N   1      25.111  25.214 -10.407  0.00  0.00     0.210 C 
ENDBRANCH   8  23
TORSDOF 5
ENDMDL
MODEL 2
REMARK VINA RESULT:      -6.6     13.090     15.989
REMARK  5 active torsions:
REMARK  status: ('A' for Active; 'I' for Inactive)
REMARK    1  A    between atoms: C_16  and  C_4 
REMARK    2  A    between atoms: C_14  and  C_10 
REMARK    3  A    between atoms: C_18  and  C_10 
REMARK    4  A    between atoms: O_23  and  C_19 
REMARK    5  A    between atoms: O_24  and  C_20 
ROOT
HETATM    1  C   UNK N   1      29.882  17.524   7.337  0.00  0.00     0.037 A 
HETATM    2  C   UNK N   1      30.233  16.957   5.018  0.00  0.00     0.052 A 
HETATM    3  C   UNK N   1      32.998  16.995   5.415  0.00  0.00     0.054 A 
HETATM    4  C   UNK N   1      30.748  17.254   6.279  0.00  0.00    -0.019 A 
HETATM    5  C   UNK N   1      30.409  17.833   8.589  0.00  0.00     0.009 A 
HETATM    6  C   UNK N   1      32.142  17.288   6.484  0.00  0.00    -0.000 A 
HETATM    7  C   UNK N   1      32.638  17.616   7.765  0.00  0.00     0.025 A 
HETATM    8  C   UNK N   1      31.078  16.676   3.939  0.00  0.00     0.102 A 
HETATM    9  C   UNK N   1      32.486  16.679   4.140  0.00  0.00     0.102 A 
HETATM   10  N   UNK N   1      31.756  17.883   8.767  0.00  0.00    -0.362 N 
ATOM     11  HN  UNK N   1      32.120  18.129   9.687  1.00  0.00     0.165 HD
ENDROOT
BRANCH   7  12
HETATM   12  C   UNK N   1      34.132  17.695   8.012  0.00  0.00     0.096 C 
BRANCH  12  13
HETATM   13  C   UNK N   1      34.792  16.662   8.898  0.00  0.00    -0.053 A 
HETATM   14  C   UNK N   1      34.994  15.378   8.381  0.00  0.00     0.007 A 
HETATM   15  C   UNK N   1      35.585  14.381   9.165  0.00  0.00     0.001 A 
HETATM   16  C   UNK N   1      35.972  14.660  10.479  0.00  0.00     0.000 A 
HETATM   17  C   UNK N   1      35.768  15.936  11.008  0.00  0.00     0.001 A 
HETATM   18  C   UNK N   1      35.178  16.930  10.223  0.00  0.00     0.007 A 
ENDBRANCH  12  13
ENDBRANCH   7  12
BRANCH   5  19
HETATM   19  C   UNK N   1      29.498  18.130   9.730  0.00  0.00     0.052 C 
HETATM   20  C   UNK N   1      28.062  17.802   9.361  0.00  0.00     0.011 C 
ENDBRANCH   5  19
BRANCH   9  21
HETATM   21  O   UNK N   1      33.326  16.373   3.122  0.00  0.00    -0.353 OA
HETATM   22  C   UNK N   1      33.752  15.093   2.844  0.00  0.00     0.210 C 
ENDBRANCH   9  21
BRANCH   8  23
HETATM   23  O   UNK N   1      30.491  16.407   2.742  0.00  0.00    -0.353 OA
HETATM   24  C   UNK N   1      29.341  15.675   2.558  0.00  0.00     0.210 C 
ENDBRANCH   8  23
TORSDOF 5
ENDMDL
MODEL 3
REMARK VINA RESULT:      -6.5     11.284     14.828
REMARK  5 active torsions:
REMARK  status: ('A' for Active; 'I' for Inactive)
REMARK    1  A    between atoms: C_16  and  C_4 
REMARK    2  A    between atoms: C_14  and  C_10 
REMARK    3  A    between atoms: C_18  and  C_10 
REMARK    4  A    between atoms: O_23  and  C_19 
REMARK    5  A    between atoms: O_24  and  C_20 
ROOT
HETATM    1  C   UNK N   1      30.565  17.470   7.945  0.00  0.00     0.037 A 
HETATM    2  C   UNK N   1      32.645  16.945   6.841  0.00  0.00     0.052 A 
HETATM    3  C   UNK N   1      31.351  16.971   4.365  0.00  0.00     0.054 A 
HETATM    4  C   UNK N   1      31.278  17.212   6.776  0.00  0.00    -0.019 A 
HETATM    5  C   UNK N   1      29.196  17.721   7.869  0.00  0.00     0.009 A 
HETATM    6  C   UNK N   1      30.616  17.213   5.532  0.00  0.00    -0.000 A 
HETATM    7  C   UNK N   1      29.227  17.462   5.497  0.00  0.00     0.025 A 
HETATM    8  C   UNK N   1      33.388  16.687   5.685  0.00  0.00     0.102 A 
HETATM    9  C   UNK N   1      32.737  16.715   4.420  0.00  0.00     0.102 A 
HETATM   10  N   UNK N   1      28.567  17.699   6.663  0.00  0.00    -0.362 N 
ATOM     11  HN  UNK N   1      27.562  17.868   6.632  1.00  0.00     0.165 HD
ENDROOT
BRANCH   7  12
HETATM   12  C   UNK N   1      28.476  17.437   4.179  0.00  0.00     0.096 C 
BRANCH  12  13
HETATM   13  C   UNK N   1      27.297  18.364   3.981  0.00  0.00    -0.053 A 
HETATM   14  C   UNK N   1      26.024  17.798   3.850  0.00  0.00     0.007 A 
HETATM   15  C   UNK N   1      24.903  18.610   3.647  0.00  0.00     0.001 A 
HETATM   16  C   UNK N   1      25.048  19.997   3.566  0.00  0.00     0.000 A 
HETATM   17  C   UNK N   1      26.315  20.573   3.687  0.00  0.00     0.001 A 
HETATM   18  C   UNK N   1      27.433  19.760   3.890  0.00  0.00     0.007 A 
ENDBRANCH  12  13
ENDBRANCH   7  12
BRANCH   5  19
HETATM   19  C   UNK N   1      28.417  17.994   9.109  0.00  0.00     0.052 C 
HETATM   20  C   UNK N   1      28.992  17.215  10.279  0.00  0.00     0.011 C 
ENDBRANCH   5  19
BRANCH   9  21
HETATM   21  O   UNK N   1      33.440  16.508   3.280  0.00  0.00    -0.353 OA
HETATM   22  C   UNK N   1      33.649  15.263   2.730  0.00  0.00     0.210 C 
ENDBRANCH   9  21
BRANCH   8  23
HETATM   23  O   UNK N   1      34.714  16.427   5.840  0.00  0.00    -0.353 OA
HETATM   24  C   UNK N   1      35.260  15.203   6.148  0.00  0.00     0.210 C 
ENDBRANCH   8  23
TORSDOF 5
ENDMDL
MODEL 4
REMARK VINA RESULT:      -6.4     12.191     15.658
REMARK  5 active torsions:
REMARK  status: ('A' for Active; 'I' for Inactive)
REMARK    1  A    between atoms: C_16  and  C_4 
REMARK    2  A    between atoms: C_14  and  C_10 
REMARK    3  A    between atoms: C_18  and  C_10 
REMARK    4  A    between atoms: O_23  and  C_19 
REMARK    5  A    between atoms: O_24  and  C_20 
ROOT
HETATM    1  C   UNK N   1      30.475  14.358   4.973  0.00  0.00     0.037 A 
HETATM    2  C   UNK N   1      32.775  15.053   5.185  0.00  0.00     0.052 A 
HETATM    3  C   UNK N   1      31.970  17.334   6.582  0.00  0.00     0.054 A 
HETATM    4  C   UNK N   1      31.421  15.276   5.425  0.00  0.00    -0.019 A 
HETATM    5  C   UNK N   1      29.122  14.599   5.206  0.00  0.00     0.009 A 
HETATM    6  C   UNK N   1      31.005  16.431   6.117  0.00  0.00    -0.000 A 
HETATM    7  C   UNK N   1      29.626  16.646   6.326  0.00  0.00     0.025 A 
HETATM    8  C   UNK N   1      33.748  15.954   5.631  0.00  0.00     0.102 A 
HETATM    9  C   UNK N   1      33.344  17.109   6.357  0.00  0.00     0.102 A 
HETATM   10  N   UNK N   1      28.736  15.728   5.858  0.00  0.00    -0.362 N 
ATOM     11  HN  UNK N   1      27.740  15.894   6.003  1.00  0.00     0.165 HD
ENDROOT
BRANCH   7  12
HETATM   12  C   UNK N   1      29.142  17.894   7.037  0.00  0.00     0.096 C 
BRANCH  12  13
HETATM   13  C   UNK N   1      28.313  18.906   6.277  0.00  0.00    -0.053 A 
HETATM   14  C   UNK N   1      28.335  18.864   4.879  0.00  0.00     0.007 A 
HETATM   15  C   UNK N   1      27.599  19.788   4.129  0.00  0.00     0.001 A 
HETATM   16  C   UNK N   1      26.840  20.768   4.773  0.00  0.00     0.000 A 
HETATM   17  C   UNK N   1      26.817  20.825   6.169  0.00  0.00     0.001 A 
HETATM   18  C   UNK N   1      27.552  19.901   6.916  0.00  0.00     0.007 A 
ENDBRANCH  12  13
ENDBRANCH   7  12
BRANCH   5  19
HETATM   19  C   UNK N   1      28.097  13.630   4.725  0.00  0.00     0.052 C 
HETATM   20  C   UNK N   1      26.797  13.812   5.489  0.00  0.00     0.011 C 
ENDBRANCH   5  19
BRANCH   9  21
HETATM   21  O   UNK N   1      34.267  17.978   6.835  0.00  0.00    -0.353 OA
HETATM   22  C   UNK N   1      34.380  18.316   8.165  0.00  0.00     0.210 C 
ENDBRANCH   9  21
BRANCH   8  23
HETATM   23  O   UNK N   1      35.045  15.664   5.345  0.00  0.00    -0.353 OA
HETATM   24  C   UNK N   1      35.866  14.845   6.085  0.00  0.00     0.210 C 
ENDBRANCH   8  23
TORSDOF 5
ENDMDL
MODEL 5
REMARK VINA RESULT:      -6.3      2.473      5.824
REMARK  5 active torsions:
REMARK  status: ('A' for Active; 'I' for Inactive)
REMARK    1  A    between atoms: C_16  and  C_4 
REMARK    2  A    between atoms: C_14  and  C_10 
REMARK    3  A    between atoms: C_18  and  C_10 
REMARK    4  A    between atoms: O_23  and  C_19 
REMARK    5  A    between atoms: O_24  and  C_20 
ROOT
HETATM    1  C   UNK N   1      27.163  23.172  -7.751  0.00  0.00     0.037 A 
HETATM    2  C   UNK N   1      28.965  22.625  -6.244  0.00  0.00     0.052 A 
HETATM    3  C   UNK N   1      27.948  24.416  -4.357  0.00  0.00     0.054 A 
HETATM    4  C   UNK N   1      27.809  23.350  -6.529  0.00  0.00    -0.019 A 
HETATM    5  C   UNK N   1      26.016  23.913  -8.031  0.00  0.00     0.009 A 
HETATM    6  C   UNK N   1      27.297  24.265  -5.588  0.00  0.00    -0.000 A 
HETATM    7  C   UNK N   1      26.138  25.003  -5.911  0.00  0.00     0.025 A 
HETATM    8  C   UNK N   1      29.633  22.778  -5.025  0.00  0.00     0.102 A 
HETATM    9  C   UNK N   1      29.110  23.677  -4.054  0.00  0.00     0.102 A 
HETATM   10  N   UNK N   1      25.545  24.807  -7.120  0.00  0.00    -0.362 N 
ATOM     11  HN  UNK N   1      24.714  25.351  -7.352  1.00  0.00     0.165 HD
ENDROOT
BRANCH   7  12
HETATM   12  C   UNK N   1      25.580  26.021  -4.936  0.00  0.00     0.096 C 
BRANCH  12  13
HETATM   13  C   UNK N   1      26.172  27.413  -4.897  0.00  0.00    -0.053 A 
HETATM   14  C   UNK N   1      25.816  28.255  -3.837  0.00  0.00     0.007 A 
HETATM   15  C   UNK N   1      26.322  29.557  -3.764  0.00  0.00     0.001 A 
HETATM   16  C   UNK N   1      27.184  30.030  -4.756  0.00  0.00     0.000 A 
HETATM   17  C   UNK N   1      27.540  29.202  -5.823  0.00  0.00     0.001 A 
HETATM   18  C   UNK N   1      27.034  27.902  -5.894  0.00  0.00     0.007 A 
ENDBRANCH  12  13
ENDBRANCH   7  12
BRANCH   5  19
HETATM   19  C   UNK N   1      25.314  23.740  -9.334  0.00  0.00     0.052 C 
HETATM   20  C   UNK N   1      25.211  25.069 -10.060  0.00  0.00     0.011 C 
ENDBRANCH   5  19
BRANCH   9  21
HETATM   21  O   UNK N   1      29.714  23.815  -2.849  0.00  0.00    -0.353 OA
HETATM   22  C   UNK N   1      29.512  22.956  -1.792  0.00  0.00     0.210 C 
ENDBRANCH   9  21
BRANCH   8  23
HETATM   23  O   UNK N   1      30.759  22.040  -4.833  0.00  0.00    -0.353 OA
HETATM   24  C   UNK N   1      30.819  20.667  -4.778  0.00  0.00     0.210 C 
ENDBRANCH   8  23
TORSDOF 5
ENDMDL
MODEL 6
REMARK VINA RESULT:      -6.3      3.009      5.091
REMARK  5 active torsions:
REMARK  status: ('A' for Active; 'I' for Inactive)
REMARK    1  A    between atoms: C_16  and  C_4 
REMARK    2  A    between atoms: C_14  and  C_10 
REMARK    3  A    between atoms: C_18  and  C_10 
REMARK    4  A    between atoms: O_23  and  C_19 
REMARK    5  A    between atoms: O_24  and  C_20 
ROOT
HETATM    1  C   UNK N   1      25.724  26.174  -8.488  0.00  0.00     0.037 A 
HETATM    2  C   UNK N   1      25.747  26.657  -6.125  0.00  0.00     0.052 A 
HETATM    3  C   UNK N   1      26.179  23.955  -5.564  0.00  0.00     0.054 A 
HETATM    4  C   UNK N   1      25.841  25.739  -7.169  0.00  0.00    -0.019 A 
HETATM    5  C   UNK N   1      25.805  25.244  -9.523  0.00  0.00     0.009 A 
HETATM    6  C   UNK N   1      26.045  24.372  -6.894  0.00  0.00    -0.000 A 
HETATM    7  C   UNK N   1      26.112  23.460  -7.968  0.00  0.00     0.025 A 
HETATM    8  C   UNK N   1      25.865  26.252  -4.791  0.00  0.00     0.102 A 
HETATM    9  C   UNK N   1      26.101  24.879  -4.501  0.00  0.00     0.102 A 
HETATM   10  N   UNK N   1      25.983  23.926  -9.241  0.00  0.00    -0.362 N 
ATOM     11  HN  UNK N   1      26.022  23.260 -10.012  1.00  0.00     0.165 HD
ENDROOT
BRANCH   7  12
HETATM   12  C   UNK N   1      26.297  21.978  -7.707  0.00  0.00     0.096 C 
BRANCH  12  13
HETATM   13  C   UNK N   1      27.695  21.421  -7.553  0.00  0.00    -0.053 A 
HETATM   14  C   UNK N   1      27.988  20.189  -8.147  0.00  0.00     0.007 A 
HETATM   15  C   UNK N   1      29.261  19.623  -8.020  0.00  0.00     0.001 A 
HETATM   16  C   UNK N   1      30.251  20.283  -7.289  0.00  0.00     0.000 A 
HETATM   17  C   UNK N   1      29.969  21.510  -6.684  0.00  0.00     0.001 A 
HETATM   18  C   UNK N   1      28.697  22.074  -6.813  0.00  0.00     0.007 A 
ENDBRANCH  12  13
ENDBRANCH   7  12
BRANCH   5  19
HETATM   19  C   UNK N   1      25.678  25.690 -10.939  0.00  0.00     0.052 C 
HETATM   20  C   UNK N   1      24.401  26.489 -11.130  0.00  0.00     0.011 C 
ENDBRANCH   5  19
BRANCH   9  21
HETATM   21  O   UNK N   1      26.258  24.465  -3.221  0.00  0.00    -0.353 OA
HETATM   22  C   UNK N   1      27.442  23.974  -2.718  0.00  0.00     0.210 C 
ENDBRANCH   9  21
BRANCH   8  23
HETATM   23  O   UNK N   1      25.751  27.212  -3.835  0.00  0.00    -0.353 OA
HETATM   24  C   UNK N   1      25.917  28.563  -4.031  0.00  0.00     0.210 C 
ENDBRANCH   8  23
TORSDOF 5
ENDMDL
MODEL 7
REMARK VINA RESULT:      -6.2      1.548      4.816
REMARK  5 active torsions:
REMARK  status: ('A' for Active; 'I' for Inactive)
REMARK    1  A    between atoms: C_16  and  C_4 
REMARK    2  A    between atoms: C_14  and  C_10 
REMARK    3  A    between atoms: C_18  and  C_10 
REMARK    4  A    between atoms: O_23  and  C_19 
REMARK    5  A    between atoms: O_24  and  C_20 
ROOT
HETATM    1  C   UNK N   1      28.870  22.706  -5.844  0.00  0.00     0.037 A 
HETATM    2  C   UNK N   1      27.800  22.460  -7.993  0.00  0.00     0.052 A 
HETATM    3  C   UNK N   1      25.907  24.388  -7.283  0.00  0.00     0.054 A 
HETATM    4  C   UNK N   1      27.861  23.063  -6.737  0.00  0.00    -0.019 A 
HETATM    5  C   UNK N   1      28.912  23.305  -4.586  0.00  0.00     0.009 A 
HETATM    6  C   UNK N   1      26.902  24.026  -6.367  0.00  0.00    -0.000 A 
HETATM    7  C   UNK N   1      26.972  24.604  -5.081  0.00  0.00     0.025 A 
HETATM    8  C   UNK N   1      26.803  22.802  -8.912  0.00  0.00     0.102 A 
HETATM    9  C   UNK N   1      25.846  23.795  -8.561  0.00  0.00     0.102 A 
HETATM   10  N   UNK N   1      27.968  24.218  -4.236  0.00  0.00    -0.362 N 
ATOM     11  HN  UNK N   1      28.007  24.631  -3.305  1.00  0.00     0.165 HD
ENDROOT
BRANCH   7  12
HETATM   12  C   UNK N   1      25.937  25.619  -4.637  0.00  0.00     0.096 C 
BRANCH  12  13
HETATM   13  C   UNK N   1      26.287  27.090  -4.653  0.00  0.00    -0.053 A 
HETATM   14  C   UNK N   1      27.063  27.575  -5.710  0.00  0.00     0.007 A 
HETATM   15  C   UNK N   1      27.430  28.925  -5.762  0.00  0.00     0.001 A 
HETATM   16  C   UNK N   1      27.027  29.799  -4.750  0.00  0.00     0.000 A 
HETATM   17  C   UNK N   1      26.258  29.325  -3.685  0.00  0.00     0.001 A 
HETATM   18  C   UNK N   1      25.893  27.977  -3.635  0.00  0.00     0.007 A 
ENDBRANCH  12  13
ENDBRANCH   7  12
BRANCH   5  19
HETATM   19  C   UNK N   1      29.981  22.931  -3.617  0.00  0.00     0.052 C 
HETATM   20  C   UNK N   1      29.464  23.034  -2.193  0.00  0.00     0.011 C 
ENDBRANCH   5  19
BRANCH   9  21
HETATM   21  O   UNK N   1      24.893  24.173  -9.447  0.00  0.00    -0.353 OA
HETATM   22  C   UNK N   1      25.043  25.222 -10.326  0.00  0.00     0.210 C 
ENDBRANCH   9  21
BRANCH   8  23
HETATM   23  O   UNK N   1      26.811  22.158 -10.110  0.00  0.00    -0.353 OA
HETATM   24  C   UNK N   1      25.998  21.106 -10.460  0.00  0.00     0.210 C 
ENDBRANCH   8  23
TORSDOF 5
ENDMDL
MODEL 8
REMARK VINA RESULT:      -6.2     12.007     13.472
REMARK  5 active torsions:
REMARK  status: ('A' for Active; 'I' for Inactive)
REMARK    1  A    between atoms: C_16  and  C_4 
REMARK    2  A    between atoms: C_14  and  C_10 
REMARK    3  A    between atoms: C_18  and  C_10 
REMARK    4  A    between atoms: O_23  and  C_19 
REMARK    5  A    between atoms: O_24  and  C_20 
ROOT
HETATM    1  C   UNK N   1      26.892  19.211   4.703  0.00  0.00     0.037 A 
HETATM    2  C   UNK N   1      26.669  17.224   3.353  0.00  0.00     0.052 A 
HETATM    3  C   UNK N   1      28.323  15.825   5.117  0.00  0.00     0.054 A 
HETATM    4  C   UNK N   1      27.197  17.872   4.469  0.00  0.00    -0.019 A 
HETATM    5  C   UNK N   1      27.438  19.852   5.814  0.00  0.00     0.009 A 
HETATM    6  C   UNK N   1      28.043  17.177   5.356  0.00  0.00    -0.000 A 
HETATM    7  C   UNK N   1      28.584  17.862   6.465  0.00  0.00     0.025 A 
HETATM    8  C   UNK N   1      26.952  15.879   3.095  0.00  0.00     0.102 A 
HETATM    9  C   UNK N   1      27.781  15.158   4.000  0.00  0.00     0.102 A 
HETATM   10  N   UNK N   1      28.268  19.174   6.650  0.00  0.00    -0.362 N 
ATOM     11  HN  UNK N   1      28.671  19.666   7.446  1.00  0.00     0.165 HD
ENDROOT
BRANCH   7  12
HETATM   12  C   UNK N   1      29.524  17.155   7.421  0.00  0.00     0.096 C 
BRANCH  12  13
HETATM   13  C   UNK N   1      31.018  17.333   7.258  0.00  0.00    -0.053 A 
HETATM   14  C   UNK N   1      31.763  17.732   8.373  0.00  0.00     0.007 A 
HETATM   15  C   UNK N   1      33.144  17.928   8.272  0.00  0.00     0.001 A 
HETATM   16  C   UNK N   1      33.792  17.732   7.049  0.00  0.00     0.000 A 
HETATM   17  C   UNK N   1      33.057  17.342   5.927  0.00  0.00     0.001 A 
HETATM   18  C   UNK N   1      31.678  17.146   6.031  0.00  0.00     0.007 A 
ENDBRANCH  12  13
ENDBRANCH   7  12
BRANCH   5  19
HETATM   19  C   UNK N   1      27.127  21.285   6.076  0.00  0.00     0.052 C 
HETATM   20  C   UNK N   1      26.261  21.421   7.316  0.00  0.00     0.011 C 
ENDBRANCH   5  19
BRANCH   9  21
HETATM   21  O   UNK N   1      28.040  13.844   3.795  0.00  0.00    -0.353 OA
HETATM   22  C   UNK N   1      27.318  12.825   4.377  0.00  0.00     0.210 C 
ENDBRANCH   9  21
BRANCH   8  23
HETATM   23  O   UNK N   1      26.403  15.328   1.979  0.00  0.00    -0.353 OA
HETATM   24  C   UNK N   1      25.117  14.856   1.867  0.00  0.00     0.210 C 
ENDBRANCH   8  23
TORSDOF 5
ENDMDL
MODEL 9
REMARK VINA RESULT:      -6.1     14.459     17.540
REMARK  5 active torsions:
REMARK  status: ('A' for Active; 'I' for Inactive)
REMARK    1  A    between atoms: C_16  and  C_4 
REMARK    2  A    between atoms: C_14  and  C_10 
REMARK    3  A    between atoms: C_18  and  C_10 
REMARK    4  A    between atoms: O_23  and  C_19 
REMARK    5  A    between atoms: O_24  and  C_20 
ROOT
HETATM    1  C   UNK N   1      35.341  15.294   8.934  0.00  0.00     0.037 A 
HETATM    2  C   UNK N   1      35.335  14.682   6.600  0.00  0.00     0.052 A 
HETATM    3  C   UNK N   1      33.524  16.738   6.054  0.00  0.00     0.054 A 
HETATM    4  C   UNK N   1      34.883  15.500   7.634  0.00  0.00    -0.019 A 
HETATM    5  C   UNK N   1      34.871  16.109   9.962  0.00  0.00     0.009 A 
HETATM    6  C   UNK N   1      33.959  16.531   7.369  0.00  0.00    -0.000 A 
HETATM    7  C   UNK N   1      33.499  17.330   8.437  0.00  0.00     0.025 A 
HETATM    8  C   UNK N   1      34.898  14.869   5.285  0.00  0.00     0.102 A 
HETATM    9  C   UNK N   1      33.988  15.924   4.999  0.00  0.00     0.102 A 
HETATM   10  N   UNK N   1      33.964  17.086   9.693  0.00  0.00    -0.362 N 
ATOM     11  HN  UNK N   1      33.620  17.660  10.463  1.00  0.00     0.165 HD
ENDROOT
BRANCH   7  12
HETATM   12  C   UNK N   1      32.479  18.425   8.193  0.00  0.00     0.096 C 
BRANCH  12  13
HETATM   13  C   UNK N   1      31.005  18.100   8.289  0.00  0.00    -0.053 A 
HETATM   14  C   UNK N   1      30.284  18.603   9.377  0.00  0.00     0.007 A 
HETATM   15  C   UNK N   1      28.923  18.317   9.522  0.00  0.00     0.001 A 
HETATM   16  C   UNK N   1      28.271  17.517   8.580  0.00  0.00     0.000 A 
HETATM   17  C   UNK N   1      28.982  17.001   7.494  0.00  0.00     0.001 A 
HETATM   18  C   UNK N   1      30.341  17.289   7.351  0.00  0.00     0.007 A 
ENDBRANCH  12  13
ENDBRANCH   7  12
BRANCH   5  19
HETATM   19  C   UNK N   1      35.346  15.899  11.358  0.00  0.00     0.052 C 
HETATM   20  C   UNK N   1      35.053  14.479  11.810  0.00  0.00     0.011 C 
ENDBRANCH   5  19
BRANCH   9  21
HETATM   21  O   UNK N   1      33.578  16.152   3.728  0.00  0.00    -0.353 OA
HETATM   22  C   UNK N   1      32.410  15.648   3.201  0.00  0.00     0.210 C 
ENDBRANCH   9  21
BRANCH   8  23
HETATM   23  O   UNK N   1      35.381  14.019   4.340  0.00  0.00    -0.353 OA
HETATM   24  C   UNK N   1      36.347  13.060   4.542  0.00  0.00     0.210 C 
ENDBRANCH   8  23
TORSDOF 5
ENDMDL
