REMARK  11 active torsions:
REMARK  status: ('A' for Active; 'I' for Inactive)
REMARK    1  A    between atoms: C_5  and  C_8 
REMARK       I    between atoms: C_8  and  N_10 
REMARK    2  A    between atoms: C_11  and  N_10 
REMARK    3  A    between atoms: N_10  and  C_25 
REMARK    4  A    between atoms: C_14  and  O_17 
REMARK    5  A    between atoms: C_14  and  C_18 
REMARK    6  A    between atoms: C_18  and  O_19 
REMARK    7  A    between atoms: C_20  and  O_19 
REMARK    8  A    between atoms: C_26  and  C_36 
REMARK    9  A    between atoms: C_28  and  C_30 
REMARK   10  A    between atoms: C_31  and  C_32 
REMARK   11  A    between atoms: C_36  and  O_38 
ROOT
HETATM    1  C   UNK N   1       0.668   8.189   0.405  0.00  0.00     0.229 C 
HETATM    2  O   UNK N   1      -0.014   7.216   0.712  0.00  0.00    -0.273 OA
HETATM    3  N   UNK N   1       2.024   8.007   0.109  0.00  0.00    -0.311 N 
ENDROOT
BRANCH   3   4
HETATM    4  C   UNK N   1       2.489   6.647   0.151  0.00  0.00     0.093 C 
HETATM    5  C   UNK N   1       3.512   6.393   1.268  0.00  0.00     0.029 C 
HETATM    6  C   UNK N   1       4.851   5.952   0.699  0.00  0.00     0.042 C 
HETATM    7  C   UNK N   1       4.734   4.815  -0.319  0.00  0.00     0.079 C 
HETATM    8  C   UNK N   1       3.509   4.864  -1.236  0.00  0.00     0.042 C 
HETATM    9  C   UNK N   1       2.851   6.214  -1.256  0.00  0.00     0.029 C 
BRANCH   7  10
HETATM   10  O   UNK N   1       5.876   4.816  -1.119  0.00  0.00    -0.388 OA
HETATM   11  H   UNK N   1       6.274   4.129  -1.675  0.00  0.00     0.210 HD
ENDBRANCH   7  10
BRANCH   7  12
HETATM   12  C   UNK N   1       4.664   3.532   0.469  0.00  0.00     0.206 C 
BRANCH  12  13
HETATM   13  O   UNK N   1       3.548   3.530   1.339  0.00  0.00    -0.381 OA
BRANCH  13  14
HETATM   14  C   UNK N   1       2.614   2.528   0.978  0.00  0.00     0.147 C 
HETATM   15  C   UNK N   1       1.552   2.999   0.023  0.00  0.00     0.199 C 
HETATM   16  O   UNK N   1       1.032   1.869  -0.633  0.00  0.00    -0.389 OA
HETATM   17  C   UNK N   1       1.971   0.823  -0.483  0.00  0.00     0.170 C 
HETATM   18  C   UNK N   1       3.159   1.298   0.315  0.00  0.00     0.060 C 
ENDBRANCH  13  14
ENDBRANCH  12  13
ENDBRANCH   7  12
ENDBRANCH   3   4
BRANCH   3  19
HETATM   19  C   UNK N   1       2.964   9.121  -0.050  0.00  0.00     0.063 C 
HETATM   20  C   UNK N   1       4.416   9.132  -0.042  0.00  0.00     0.106 C 
HETATM   21  S   UNK N   1       4.876  10.652   0.377  0.00  0.00    -0.072 SA
HETATM   22  C   UNK N   1       3.424  11.344   0.283  0.00  0.00     0.061 C 
HETATM   23  C   UNK N   1       2.489  10.417   0.020  0.00  0.00     0.059 C 
BRANCH  20  24
HETATM   24  C   UNK N   1       5.478   8.276  -0.560  0.00  0.00     0.185 C 
HETATM   25  O   UNK N   1       6.630   8.470  -0.199  0.00  0.00    -0.646 OA
BRANCH  24  26
HETATM   26  O   UNK N   1       5.261   7.584  -1.691  0.00  0.00    -0.772 OA
HETATM   27  H   UNK N   1       4.767   7.473  -2.480  0.00  0.00     0.167 HD
ENDBRANCH  24  26
ENDBRANCH  20  24
BRANCH  22  28
HETATM   28  C   UNK N   1       3.143  12.671   0.094  0.00  0.00    -0.059 C 
HETATM   29  C   UNK N   1       2.911  13.817  -0.067  0.00  0.00    -0.092 C 
BRANCH  29  30
HETATM   30  C   UNK N   1       2.430  15.138  -0.268  0.00  0.00     0.013 C 
HETATM   31  C   UNK N   1       1.731  15.719   0.962  0.00  0.00     0.028 C 
HETATM   32  C   UNK N   1       1.413  15.044  -1.357  0.00  0.00     0.028 C 
HETATM   33  C   UNK N   1       3.676  15.922  -0.597  0.00  0.00     0.028 C 
ENDBRANCH  29  30
ENDBRANCH  22  28
ENDBRANCH   3  19
BRANCH   1  34
HETATM   34  C   UNK N   1      -0.049   9.536   0.326  0.00  0.00     0.082 C 
HETATM   35  C   UNK N   1       0.229  10.543   1.444  0.00  0.00     0.041 C 
HETATM   36  C   UNK N   1      -0.227  11.896   0.960  0.00  0.00    -0.024 C 
HETATM   37  C   UNK N   1      -1.323  12.019   0.192  0.00  0.00    -0.087 C 
HETATM   38  C   UNK N   1      -1.736  13.368  -0.282  0.00  0.00     0.043 C 
HETATM   39  C   UNK N   1      -2.124  10.809  -0.253  0.00  0.00     0.034 C 
HETATM   40  C   UNK N   1      -1.564   9.455   0.213  0.00  0.00     0.018 C 
ENDBRANCH   1  34
TORSDOF 11
