MODEL 1
REMARK VINA RESULT:      -8.5      0.000      0.000
REMARK  9 active torsions:
REMARK  status: ('A' for Active; 'I' for Inactive)
REMARK    1  A    between atoms: C_3  and  N_9 
REMARK       I    between atoms: N_9  and  C_10 
REMARK    2  A    between atoms: C_10  and  C_12 
REMARK    3  A    between atoms: C_21  and  C_35 
REMARK    4  A    between atoms: C_24  and  C_26 
REMARK    5  A    between atoms: C_24  and  O_30 
REMARK    6  A    between atoms: O_30  and  P_31 
REMARK    7  A    between atoms: P_31  and  O_33 
REMARK    8  A    between atoms: P_31  and  O_34 
REMARK    9  A    between atoms: C_35  and  C_36 
ROOT
HETATM    1  C   UNK N   1      33.578  17.544   7.575  0.00  0.00     0.032 A 
HETATM    2  C   UNK N   1      32.272  17.816   7.974  0.00  0.00     0.017 A 
HETATM    3  C   UNK N   1      31.183  17.409   7.249  0.00  0.00     0.009 A 
HETATM    4  C   UNK N   1      31.346  16.736   6.053  0.00  0.00    -0.042 A 
HETATM    5  C   UNK N   1      32.647  16.522   5.566  0.00  0.00    -0.050 A 
HETATM    6  C   UNK N   1      33.770  16.917   6.326  0.00  0.00     0.024 A 
HETATM    7  C   UNK N   1      32.780  15.946   4.201  0.00  0.00     0.039 C 
HETATM    8  C   UNK N   1      31.841  16.750   3.274  0.00  0.00     0.010 C 
HETATM    9  C   UNK N   1      30.363  16.880   3.776  0.00  0.00     0.002 C 
HETATM   10  C   UNK N   1      30.145  16.310   5.223  0.00  0.00    -0.005 C 
HETATM   11  C   UNK N   1      30.083  14.787   5.073  0.00  0.00     0.018 C 
HETATM   12  C   UNK N   1      28.852  14.343   4.231  0.00  0.00     0.049 C 
HETATM   13  C   UNK N   1      28.335  15.370   3.173  0.00  0.00     0.170 C 
HETATM   14  C   UNK N   1      29.529  16.191   2.680  0.00  0.00     0.054 C 
ENDROOT
BRANCH   1  15
HETATM   15  C   UNK N   1      34.718  17.930   8.472  0.00  0.00     0.256 C 
HETATM   16  N   UNK N   1      35.274  17.070   9.387  0.00  0.00    -0.321 N 
HETATM   17  H   UNK N   1      35.917  17.442  10.032  0.00  0.00     0.169 HD
HETATM   18  O   UNK N   1      35.162  19.069   8.400  0.00  0.00    -0.267 OA
BRANCH  16  19
HETATM   19  C   UNK N   1      34.980  15.673   9.469  0.00  0.00     0.057 A 
HETATM   20  C   UNK N   1      34.895  15.026  10.713  0.00  0.00     0.032 A 
HETATM   21  C   UNK N   1      35.194  15.756  11.976  0.00  0.00     0.070 C 
HETATM   22  N   UNK N   1      34.489  13.726  10.775  0.00  0.00    -0.368 N 
HETATM   23  C   UNK N   1      34.166  13.022   9.658  0.00  0.00     0.088 A 
ATOM     24  HN  UNK N   1      34.427  13.270  11.685  1.00  0.00     0.165 HD
HETATM   25  C   UNK N   1      34.269  13.615   8.400  0.00  0.00     0.019 A 
HETATM   26  C   UNK N   1      34.683  14.944   8.305  0.00  0.00     0.033 A 
ENDBRANCH  16  19
ENDBRANCH   1  15
BRANCH  10  27
HETATM   27  C   UNK N   1      28.799  16.614   5.952  0.00  0.00     0.053 C 
BRANCH  27  28
HETATM   28  C   UNK N   1      28.205  17.961   6.212  0.00  0.00    -0.057 A 
HETATM   29  C   UNK N   1      28.143  18.885   5.158  0.00  0.00     0.007 A 
HETATM   30  C   UNK N   1      27.781  20.211   5.396  0.00  0.00     0.001 A 
HETATM   31  C   UNK N   1      27.529  20.637   6.701  0.00  0.00     0.000 A 
HETATM   32  C   UNK N   1      27.627  19.730   7.763  0.00  0.00     0.001 A 
HETATM   33  C   UNK N   1      27.974  18.395   7.520  0.00  0.00     0.007 A 
ENDBRANCH  27  28
ENDBRANCH  10  27
BRANCH  13  34
HETATM   34  C   UNK N   1      27.786  14.608   1.947  0.00  0.00     0.419 C 
HETATM   35  F   UNK N   1      28.832  14.197   1.138  0.00  0.00    -0.168 F 
HETATM   36  F   UNK N   1      27.079  13.493   2.364  0.00  0.00    -0.168 F 
HETATM   37  F   UNK N   1      26.920  15.393   1.210  0.00  0.00    -0.168 F 
ENDBRANCH  13  34
BRANCH  13  38
HETATM   38  O   UNK N   1      27.408  16.332   3.668  0.00  0.00    -0.277 OA
BRANCH  38  39
HETATM   39  P   UNK N   1      25.865  15.697   4.214  0.00  0.00     0.391 P 
HETATM   40  O   UNK N   1      25.292  16.798   5.147  0.00  0.00    -0.632 OA
BRANCH  39  41
HETATM   41  O   UNK N   1      24.683  15.548   2.951  0.00  0.00    -0.307 OA
HETATM   42  H   UNK N   1      23.738  15.612   3.158  0.00  0.00     0.222 HD
ENDBRANCH  39  41
BRANCH  39  43
HETATM   43  O   UNK N   1      25.989  14.283   5.214  0.00  0.00    -0.307 OA
HETATM   44  H   UNK N   1      26.009  13.348   5.471  0.00  0.00     0.222 HD
ENDBRANCH  39  43
ENDBRANCH  38  39
ENDBRANCH  13  38
TORSDOF 9
ENDMDL
MODEL 2
REMARK VINA RESULT:      -8.5     10.799     13.870
REMARK  9 active torsions:
REMARK  status: ('A' for Active; 'I' for Inactive)
REMARK    1  A    between atoms: C_3  and  N_9 
REMARK       I    between atoms: N_9  and  C_10 
REMARK    2  A    between atoms: C_10  and  C_12 
REMARK    3  A    between atoms: C_21  and  C_35 
REMARK    4  A    between atoms: C_24  and  C_26 
REMARK    5  A    between atoms: C_24  and  O_30 
REMARK    6  A    between atoms: O_30  and  P_31 
REMARK    7  A    between atoms: P_31  and  O_33 
REMARK    8  A    between atoms: P_31  and  O_34 
REMARK    9  A    between atoms: C_35  and  C_36 
ROOT
HETATM    1  C   UNK N   1      35.704   9.682  19.929  0.00  0.00     0.032 A 
HETATM    2  C   UNK N   1      35.486  11.004  19.549  0.00  0.00     0.017 A 
HETATM    3  C   UNK N   1      35.553  11.413  18.244  0.00  0.00     0.009 A 
HETATM    4  C   UNK N   1      35.887  10.521  17.243  0.00  0.00    -0.042 A 
HETATM    5  C   UNK N   1      36.207   9.197  17.592  0.00  0.00    -0.050 A 
HETATM    6  C   UNK N   1      36.111   8.768  18.935  0.00  0.00     0.024 A 
HETATM    7  C   UNK N   1      36.723   8.311  16.514  0.00  0.00     0.039 C 
HETATM    8  C   UNK N   1      37.827   9.094  15.771  0.00  0.00     0.010 C 
HETATM    9  C   UNK N   1      37.416  10.525  15.285  0.00  0.00     0.002 C 
HETATM   10  C   UNK N   1      35.999  10.972  15.795  0.00  0.00    -0.005 C 
HETATM   11  C   UNK N   1      34.982  10.251  14.905  0.00  0.00     0.018 C 
HETATM   12  C   UNK N   1      35.086  10.713  13.424  0.00  0.00     0.049 C 
HETATM   13  C   UNK N   1      36.490  11.214  12.955  0.00  0.00     0.170 C 
HETATM   14  C   UNK N   1      37.557  10.461  13.752  0.00  0.00     0.054 C 
ENDROOT
BRANCH   1  15
HETATM   15  C   UNK N   1      35.511   9.285  21.364  0.00  0.00     0.256 C 
HETATM   16  N   UNK N   1      34.372   8.672  21.823  0.00  0.00    -0.321 N 
HETATM   17  H   UNK N   1      34.264   8.575  22.796  0.00  0.00     0.169 HD
HETATM   18  O   UNK N   1      36.400   9.537  22.167  0.00  0.00    -0.267 OA
BRANCH  16  19
HETATM   19  C   UNK N   1      33.330   8.166  20.984  0.00  0.00     0.057 A 
HETATM   20  C   UNK N   1      33.343   6.831  20.545  0.00  0.00     0.032 A 
HETATM   21  C   UNK N   1      34.484   5.931  20.869  0.00  0.00     0.070 C 
HETATM   22  N   UNK N   1      32.278   6.335  19.853  0.00  0.00    -0.368 N 
HETATM   23  C   UNK N   1      31.192   7.100  19.563  0.00  0.00     0.088 A 
ATOM     24  HN  UNK N   1      32.297   5.363  19.545  1.00  0.00     0.165 HD
HETATM   25  C   UNK N   1      31.153   8.439  19.949  0.00  0.00     0.019 A 
HETATM   26  C   UNK N   1      32.228   8.975  20.658  0.00  0.00     0.033 A 
ENDBRANCH  16  19
ENDBRANCH   1  15
BRANCH  10  27
HETATM   27  C   UNK N   1      35.576  12.464  15.618  0.00  0.00     0.053 C 
BRANCH  27  28
HETATM   28  C   UNK N   1      36.120  13.643  16.360  0.00  0.00    -0.057 A 
HETATM   29  C   UNK N   1      35.406  14.134  17.463  0.00  0.00     0.007 A 
HETATM   30  C   UNK N   1      35.766  15.341  18.062  0.00  0.00     0.001 A 
HETATM   31  C   UNK N   1      36.813  16.094  17.529  0.00  0.00     0.000 A 
HETATM   32  C   UNK N   1      37.505  15.630  16.404  0.00  0.00     0.001 A 
HETATM   33  C   UNK N   1      37.153  14.410  15.814  0.00  0.00     0.007 A 
ENDBRANCH  27  28
ENDBRANCH  10  27
BRANCH  13  34
HETATM   34  C   UNK N   1      36.698  10.839  11.473  0.00  0.00     0.419 C 
HETATM   35  F   UNK N   1      37.814  11.487  10.972  0.00  0.00    -0.168 F 
HETATM   36  F   UNK N   1      36.886   9.472  11.354  0.00  0.00    -0.168 F 
HETATM   37  F   UNK N   1      35.597  11.170  10.707  0.00  0.00    -0.168 F 
ENDBRANCH  13  34
BRANCH  13  38
HETATM   38  O   UNK N   1      36.753  12.593  13.203  0.00  0.00    -0.277 OA
BRANCH  38  39
HETATM   39  P   UNK N   1      35.895  13.731  12.178  0.00  0.00     0.391 P 
HETATM   40  O   UNK N   1      36.022  15.095  12.909  0.00  0.00    -0.632 OA
BRANCH  39  41
HETATM   41  O   UNK N   1      36.656  13.997  10.639  0.00  0.00    -0.307 OA
HETATM   42  H   UNK N   1      36.448  14.791  10.124  0.00  0.00     0.222 HD
ENDBRANCH  39  41
BRANCH  39  43
HETATM   43  O   UNK N   1      34.187  13.442  12.063  0.00  0.00    -0.307 OA
HETATM   44  H   UNK N   1      33.336  12.980  12.114  0.00  0.00     0.222 HD
ENDBRANCH  39  43
ENDBRANCH  38  39
ENDBRANCH  13  38
TORSDOF 9
ENDMDL
MODEL 3
REMARK VINA RESULT:      -8.2     13.558     16.811
REMARK  9 active torsions:
REMARK  status: ('A' for Active; 'I' for Inactive)
REMARK    1  A    between atoms: C_3  and  N_9 
REMARK       I    between atoms: N_9  and  C_10 
REMARK    2  A    between atoms: C_10  and  C_12 
REMARK    3  A    between atoms: C_21  and  C_35 
REMARK    4  A    between atoms: C_24  and  C_26 
REMARK    5  A    between atoms: C_24  and  O_30 
REMARK    6  A    between atoms: O_30  and  P_31 
REMARK    7  A    between atoms: P_31  and  O_33 
REMARK    8  A    between atoms: P_31  and  O_34 
REMARK    9  A    between atoms: C_35  and  C_36 
ROOT
HETATM    1  C   UNK N   1      26.531  22.817  -8.153  0.00  0.00     0.032 A 
HETATM    2  C   UNK N   1      26.997  22.629  -6.854  0.00  0.00     0.017 A 
HETATM    3  C   UNK N   1      27.131  23.663  -5.965  0.00  0.00     0.009 A 
HETATM    4  C   UNK N   1      26.842  24.959  -6.346  0.00  0.00    -0.042 A 
HETATM    5  C   UNK N   1      26.458  25.207  -7.676  0.00  0.00    -0.050 A 
HETATM    6  C   UNK N   1      26.293  24.138  -8.584  0.00  0.00     0.024 A 
HETATM    7  C   UNK N   1      26.317  26.628  -8.094  0.00  0.00     0.039 C 
HETATM    8  C   UNK N   1      27.583  27.371  -7.612  0.00  0.00     0.010 C 
HETATM    9  C   UNK N   1      27.932  27.177  -6.097  0.00  0.00     0.002 C 
HETATM   10  C   UNK N   1      27.021  26.119  -5.380  0.00  0.00    -0.005 C 
HETATM   11  C   UNK N   1      25.690  26.825  -5.103  0.00  0.00     0.018 C 
HETATM   12  C   UNK N   1      25.864  28.007  -4.108  0.00  0.00     0.049 C 
HETATM   13  C   UNK N   1      27.265  28.701  -4.099  0.00  0.00     0.170 C 
HETATM   14  C   UNK N   1      27.857  28.598  -5.506  0.00  0.00     0.054 C 
ENDROOT
BRANCH   1  15
HETATM   15  C   UNK N   1      26.311  21.623  -9.037  0.00  0.00     0.256 C 
HETATM   16  N   UNK N   1      27.324  21.014  -9.736  0.00  0.00    -0.321 N 
HETATM   17  H   UNK N   1      27.075  20.332 -10.400  0.00  0.00     0.169 HD
HETATM   18  O   UNK N   1      25.174  21.186  -9.159  0.00  0.00    -0.267 OA
BRANCH  16  19
HETATM   19  C   UNK N   1      28.714  21.302  -9.564  0.00  0.00     0.057 A 
HETATM   20  C   UNK N   1      29.509  20.528  -8.703  0.00  0.00     0.032 A 
HETATM   21  C   UNK N   1      28.910  19.441  -7.880  0.00  0.00     0.070 C 
HETATM   22  N   UNK N   1      30.855  20.738  -8.651  0.00  0.00    -0.368 N 
HETATM   23  C   UNK N   1      31.462  21.690  -9.409  0.00  0.00     0.088 A 
ATOM     24  HN  UNK N   1      31.422  20.166  -8.026  1.00  0.00     0.165 HD
HETATM   25  C   UNK N   1      30.706  22.504 -10.252  0.00  0.00     0.019 A 
HETATM   26  C   UNK N   1      29.326  22.313 -10.325  0.00  0.00     0.033 A 
ENDBRANCH  16  19
ENDBRANCH   1  15
BRANCH  10  27
HETATM   27  C   UNK N   1      27.424  25.628  -3.954  0.00  0.00     0.053 C 
BRANCH  27  28
HETATM   28  C   UNK N   1      28.517  24.666  -3.613  0.00  0.00    -0.057 A 
HETATM   29  C   UNK N   1      28.278  23.695  -2.629  0.00  0.00     0.007 A 
HETATM   30  C   UNK N   1      29.321  22.907  -2.141  0.00  0.00     0.001 A 
HETATM   31  C   UNK N   1      30.622  23.120  -2.597  0.00  0.00     0.000 A 
HETATM   32  C   UNK N   1      30.874  24.114  -3.551  0.00  0.00     0.001 A 
HETATM   33  C   UNK N   1      29.824  24.892  -4.052  0.00  0.00     0.007 A 
ENDBRANCH  27  28
ENDBRANCH  10  27
BRANCH  13  34
HETATM   34  C   UNK N   1      27.089  30.205  -3.802  0.00  0.00     0.419 C 
HETATM   35  F   UNK N   1      27.997  30.943  -4.542  0.00  0.00    -0.168 F 
HETATM   36  F   UNK N   1      25.807  30.606  -4.141  0.00  0.00    -0.168 F 
HETATM   37  F   UNK N   1      27.264  30.480  -2.460  0.00  0.00    -0.168 F 
ENDBRANCH  13  34
BRANCH  13  38
HETATM   38  O   UNK N   1      28.233  28.094  -3.248  0.00  0.00    -0.277 OA
BRANCH  38  39
HETATM   39  P   UNK N   1      29.826  28.832  -3.253  0.00  0.00     0.391 P 
HETATM   40  O   UNK N   1      30.784  27.709  -2.772  0.00  0.00    -0.632 OA
BRANCH  39  41
HETATM   41  O   UNK N   1      30.404  29.239  -4.839  0.00  0.00    -0.307 OA
HETATM   42  H   UNK N   1      29.775  29.408  -5.558  0.00  0.00     0.222 HD
ENDBRANCH  39  41
BRANCH  39  43
HETATM   43  O   UNK N   1      30.022  30.113  -2.097  0.00  0.00    -0.307 OA
HETATM   44  H   UNK N   1      30.280  30.969  -1.721  0.00  0.00     0.222 HD
ENDBRANCH  39  43
ENDBRANCH  38  39
ENDBRANCH  13  38
TORSDOF 9
ENDMDL
MODEL 4
REMARK VINA RESULT:      -8.2      5.866      9.568
REMARK  9 active torsions:
REMARK  status: ('A' for Active; 'I' for Inactive)
REMARK    1  A    between atoms: C_3  and  N_9 
REMARK       I    between atoms: N_9  and  C_10 
REMARK    2  A    between atoms: C_10  and  C_12 
REMARK    3  A    between atoms: C_21  and  C_35 
REMARK    4  A    between atoms: C_24  and  C_26 
REMARK    5  A    between atoms: C_24  and  O_30 
REMARK    6  A    between atoms: O_30  and  P_31 
REMARK    7  A    between atoms: P_31  and  O_33 
REMARK    8  A    between atoms: P_31  and  O_34 
REMARK    9  A    between atoms: C_35  and  C_36 
ROOT
HETATM    1  C   UNK N   1      22.384  18.221   3.874  0.00  0.00     0.032 A 
HETATM    2  C   UNK N   1      23.523  19.018   3.955  0.00  0.00     0.017 A 
HETATM    3  C   UNK N   1      24.788  18.493   3.957  0.00  0.00     0.009 A 
HETATM    4  C   UNK N   1      24.982  17.126   3.920  0.00  0.00    -0.042 A 
HETATM    5  C   UNK N   1      23.858  16.280   3.932  0.00  0.00    -0.050 A 
HETATM    6  C   UNK N   1      22.554  16.822   3.902  0.00  0.00     0.024 A 
HETATM    7  C   UNK N   1      24.105  14.818   4.060  0.00  0.00     0.039 C 
HETATM    8  C   UNK N   1      25.102  14.625   5.224  0.00  0.00     0.010 C 
HETATM    9  C   UNK N   1      26.404  15.491   5.135  0.00  0.00     0.002 C 
HETATM   10  C   UNK N   1      26.380  16.530   3.958  0.00  0.00    -0.005 C 
HETATM   11  C   UNK N   1      26.683  15.735   2.685  0.00  0.00     0.018 C 
HETATM   12  C   UNK N   1      28.115  15.130   2.713  0.00  0.00     0.049 C 
HETATM   13  C   UNK N   1      28.703  14.815   4.127  0.00  0.00     0.170 C 
HETATM   14  C   UNK N   1      27.543  14.456   5.057  0.00  0.00     0.054 C 
ENDROOT
BRANCH   1  15
HETATM   15  C   UNK N   1      21.034  18.871   3.771  0.00  0.00     0.256 C 
HETATM   16  N   UNK N   1      19.976  18.295   3.112  0.00  0.00    -0.321 N 
HETATM   17  H   UNK N   1      19.173  18.846   2.967  0.00  0.00     0.169 HD
HETATM   18  O   UNK N   1      20.874  19.973   4.279  0.00  0.00    -0.267 OA
BRANCH  16  19
HETATM   19  C   UNK N   1      19.961  16.952   2.621  0.00  0.00     0.057 A 
HETATM   20  C   UNK N   1      19.487  15.898   3.420  0.00  0.00     0.032 A 
HETATM   21  C   UNK N   1      19.068  16.136   4.829  0.00  0.00     0.070 C 
HETATM   22  N   UNK N   1      19.363  14.649   2.890  0.00  0.00    -0.368 N 
HETATM   23  C   UNK N   1      19.693  14.382   1.598  0.00  0.00     0.088 A 
ATOM     24  HN  UNK N   1      19.012  13.894   3.478  1.00  0.00     0.165 HD
HETATM   25  C   UNK N   1      20.199  15.391   0.780  0.00  0.00     0.019 A 
HETATM   26  C   UNK N   1      20.339  16.680   1.295  0.00  0.00     0.033 A 
ENDBRANCH  16  19
ENDBRANCH   1  15
BRANCH  10  27
HETATM   27  C   UNK N   1      27.482  17.635   3.913  0.00  0.00     0.053 C 
BRANCH  27  28
HETATM   28  C   UNK N   1      27.642  18.780   4.862  0.00  0.00    -0.057 A 
HETATM   29  C   UNK N   1      27.752  18.508   6.234  0.00  0.00     0.007 A 
HETATM   30  C   UNK N   1      27.706  19.543   7.169  0.00  0.00     0.001 A 
HETATM   31  C   UNK N   1      27.497  20.854   6.740  0.00  0.00     0.000 A 
HETATM   32  C   UNK N   1      27.347  21.128   5.376  0.00  0.00     0.001 A 
HETATM   33  C   UNK N   1      27.410  20.091   4.438  0.00  0.00     0.007 A 
ENDBRANCH  27  28
ENDBRANCH  10  27
BRANCH  13  34
HETATM   34  C   UNK N   1      29.603  13.564   4.040  0.00  0.00     0.419 C 
HETATM   35  F   UNK N   1      30.391  13.468   5.174  0.00  0.00    -0.168 F 
HETATM   36  F   UNK N   1      28.821  12.426   3.942  0.00  0.00    -0.168 F 
HETATM   37  F   UNK N   1      30.415  13.602   2.923  0.00  0.00    -0.168 F 
ENDBRANCH  13  34
BRANCH  13  38
HETATM   38  O   UNK N   1      29.359  15.908   4.764  0.00  0.00    -0.277 OA
BRANCH  38  39
HETATM   39  P   UNK N   1      30.786  16.525   3.947  0.00  0.00     0.391 P 
HETATM   40  O   UNK N   1      31.045  17.911   4.596  0.00  0.00    -0.632 OA
BRANCH  39  41
HETATM   41  O   UNK N   1      32.229  15.618   4.279  0.00  0.00    -0.307 OA
HETATM   42  H   UNK N   1      32.969  15.635   3.653  0.00  0.00     0.222 HD
ENDBRANCH  39  41
BRANCH  39  43
HETATM   43  O   UNK N   1      30.553  16.858   2.259  0.00  0.00    -0.307 OA
HETATM   44  H   UNK N   1      30.583  17.326   1.410  0.00  0.00     0.222 HD
ENDBRANCH  39  43
ENDBRANCH  38  39
ENDBRANCH  13  38
TORSDOF 9
ENDMDL
MODEL 5
REMARK VINA RESULT:      -8.2     12.496     15.939
REMARK  9 active torsions:
REMARK  status: ('A' for Active; 'I' for Inactive)
REMARK    1  A    between atoms: C_3  and  N_9 
REMARK       I    between atoms: N_9  and  C_10 
REMARK    2  A    between atoms: C_10  and  C_12 
REMARK    3  A    between atoms: C_21  and  C_35 
REMARK    4  A    between atoms: C_24  and  C_26 
REMARK    5  A    between atoms: C_24  and  O_30 
REMARK    6  A    between atoms: O_30  and  P_31 
REMARK    7  A    between atoms: P_31  and  O_33 
REMARK    8  A    between atoms: P_31  and  O_34 
REMARK    9  A    between atoms: C_35  and  C_36 
ROOT
HETATM    1  C   UNK N   1      26.847  25.160  -5.411  0.00  0.00     0.032 A 
HETATM    2  C   UNK N   1      26.909  23.953  -6.102  0.00  0.00     0.017 A 
HETATM    3  C   UNK N   1      27.931  23.058  -5.926  0.00  0.00     0.009 A 
HETATM    4  C   UNK N   1      28.978  23.345  -5.072  0.00  0.00    -0.042 A 
HETATM    5  C   UNK N   1      29.004  24.593  -4.425  0.00  0.00    -0.050 A 
HETATM    6  C   UNK N   1      27.937  25.504  -4.585  0.00  0.00     0.024 A 
HETATM    7  C   UNK N   1      30.226  24.935  -3.647  0.00  0.00     0.039 C 
HETATM    8  C   UNK N   1      31.441  24.621  -4.547  0.00  0.00     0.010 C 
HETATM    9  C   UNK N   1      31.455  23.183  -5.167  0.00  0.00     0.002 C 
HETATM   10  C   UNK N   1      30.136  22.376  -4.897  0.00  0.00    -0.005 C 
HETATM   11  C   UNK N   1      30.233  21.879  -3.451  0.00  0.00     0.018 C 
HETATM   12  C   UNK N   1      31.410  20.880  -3.265  0.00  0.00     0.049 C 
HETATM   13  C   UNK N   1      32.623  21.055  -4.236  0.00  0.00     0.170 C 
HETATM   14  C   UNK N   1      32.734  22.537  -4.599  0.00  0.00     0.054 C 
ENDROOT
BRANCH   1  15
HETATM   15  C   UNK N   1      25.644  26.044  -5.576  0.00  0.00     0.256 C 
HETATM   16  N   UNK N   1      25.718  27.322  -6.073  0.00  0.00    -0.321 N 
HETATM   17  H   UNK N   1      24.912  27.883  -6.015  0.00  0.00     0.169 HD
HETATM   18  O   UNK N   1      24.550  25.615  -5.233  0.00  0.00    -0.267 OA
BRANCH  16  19
HETATM   19  C   UNK N   1      26.887  27.894  -6.666  0.00  0.00     0.057 A 
HETATM   20  C   UNK N   1      27.571  28.948  -6.038  0.00  0.00     0.032 A 
HETATM   21  C   UNK N   1      27.052  29.556  -4.782  0.00  0.00     0.070 C 
HETATM   22  N   UNK N   1      28.752  29.393  -6.554  0.00  0.00    -0.368 N 
HETATM   23  C   UNK N   1      29.294  28.849  -7.677  0.00  0.00     0.088 A 
ATOM     24  HN  UNK N   1      29.242  30.154  -6.086  1.00  0.00     0.165 HD
HETATM   25  C   UNK N   1      28.630  27.825  -8.352  0.00  0.00     0.019 A 
HETATM   26  C   UNK N   1      27.420  27.350  -7.847  0.00  0.00     0.033 A 
ENDBRANCH  16  19
ENDBRANCH   1  15
BRANCH  10  27
HETATM   27  C   UNK N   1      29.900  21.044  -5.676  0.00  0.00     0.053 C 
BRANCH  27  28
HETATM   28  C   UNK N   1      29.850  20.872  -7.160  0.00  0.00    -0.057 A 
HETATM   29  C   UNK N   1      29.617  19.591  -7.683  0.00  0.00     0.007 A 
HETATM   30  C   UNK N   1      29.755  19.345  -9.050  0.00  0.00     0.001 A 
HETATM   31  C   UNK N   1      30.180  20.369  -9.898  0.00  0.00     0.000 A 
HETATM   32  C   UNK N   1      30.452  21.640  -9.377  0.00  0.00     0.001 A 
HETATM   33  C   UNK N   1      30.296  21.889  -8.008  0.00  0.00     0.007 A 
ENDBRANCH  27  28
ENDBRANCH  10  27
BRANCH  13  34
HETATM   34  C   UNK N   1      33.927  20.682  -3.498  0.00  0.00     0.419 C 
HETATM   35  F   UNK N   1      34.977  21.445  -3.979  0.00  0.00    -0.168 F 
HETATM   36  F   UNK N   1      33.786  20.921  -2.141  0.00  0.00    -0.168 F 
HETATM   37  F   UNK N   1      34.229  19.343  -3.651  0.00  0.00    -0.168 F 
ENDBRANCH  13  34
BRANCH  13  38
HETATM   38  O   UNK N   1      32.499  20.380  -5.485  0.00  0.00    -0.277 OA
BRANCH  38  39
HETATM   39  P   UNK N   1      33.834  20.592  -6.605  0.00  0.00     0.391 P 
HETATM   40  O   UNK N   1      33.270  20.144  -7.981  0.00  0.00    -0.632 OA
BRANCH  39  41
HETATM   41  O   UNK N   1      34.288  22.250  -6.847  0.00  0.00    -0.307 OA
HETATM   42  H   UNK N   1      33.845  22.783  -7.526  0.00  0.00     0.222 HD
ENDBRANCH  39  41
BRANCH  39  43
HETATM   43  O   UNK N   1      35.185  19.543  -6.312  0.00  0.00    -0.307 OA
HETATM   44  H   UNK N   1      35.986  19.021  -6.477  0.00  0.00     0.222 HD
ENDBRANCH  39  43
ENDBRANCH  38  39
ENDBRANCH  13  38
TORSDOF 9
ENDMDL
MODEL 6
REMARK VINA RESULT:      -8.2     12.716     16.343
REMARK  9 active torsions:
REMARK  status: ('A' for Active; 'I' for Inactive)
REMARK    1  A    between atoms: C_3  and  N_9 
REMARK       I    between atoms: N_9  and  C_10 
REMARK    2  A    between atoms: C_10  and  C_12 
REMARK    3  A    between atoms: C_21  and  C_35 
REMARK    4  A    between atoms: C_24  and  C_26 
REMARK    5  A    between atoms: C_24  and  O_30 
REMARK    6  A    between atoms: O_30  and  P_31 
REMARK    7  A    between atoms: P_31  and  O_33 
REMARK    8  A    between atoms: P_31  and  O_34 
REMARK    9  A    between atoms: C_35  and  C_36 
ROOT
HETATM    1  C   UNK N   1      26.963  23.608  -7.366  0.00  0.00     0.032 A 
HETATM    2  C   UNK N   1      27.907  23.142  -8.277  0.00  0.00     0.017 A 
HETATM    3  C   UNK N   1      29.102  22.599  -7.883  0.00  0.00     0.009 A 
HETATM    4  C   UNK N   1      29.437  22.532  -6.544  0.00  0.00    -0.042 A 
HETATM    5  C   UNK N   1      28.553  23.076  -5.595  0.00  0.00    -0.050 A 
HETATM    6  C   UNK N   1      27.309  23.610  -5.999  0.00  0.00     0.024 A 
HETATM    7  C   UNK N   1      29.019  23.136  -4.183  0.00  0.00     0.039 C 
HETATM    8  C   UNK N   1      30.441  23.739  -4.199  0.00  0.00     0.010 C 
HETATM    9  C   UNK N   1      31.447  23.046  -5.179  0.00  0.00     0.002 C 
HETATM   10  C   UNK N   1      30.774  21.965  -6.098  0.00  0.00    -0.005 C 
HETATM   11  C   UNK N   1      30.590  20.721  -5.223  0.00  0.00     0.018 C 
HETATM   12  C   UNK N   1      31.955  20.131  -4.769  0.00  0.00     0.049 C 
HETATM   13  C   UNK N   1      33.138  21.145  -4.647  0.00  0.00     0.170 C 
HETATM   14  C   UNK N   1      32.561  22.508  -4.261  0.00  0.00     0.054 C 
ENDROOT
BRANCH   1  15
HETATM   15  C   UNK N   1      25.632  24.093  -7.865  0.00  0.00     0.256 C 
HETATM   16  N   UNK N   1      25.273  25.418  -7.867  0.00  0.00    -0.321 N 
HETATM   17  H   UNK N   1      24.337  25.638  -8.075  0.00  0.00     0.169 HD
HETATM   18  O   UNK N   1      24.822  23.269  -8.270  0.00  0.00    -0.267 OA
BRANCH  16  19
HETATM   19  C   UNK N   1      26.166  26.500  -7.588  0.00  0.00     0.057 A 
HETATM   20  C   UNK N   1      26.032  27.258  -6.412  0.00  0.00     0.032 A 
HETATM   21  C   UNK N   1      24.907  27.013  -5.468  0.00  0.00     0.070 C 
HETATM   22  N   UNK N   1      26.968  28.200  -6.103  0.00  0.00    -0.368 N 
HETATM   23  C   UNK N   1      28.037  28.440  -6.909  0.00  0.00     0.088 A 
ATOM     24  HN  UNK N   1      26.863  28.740  -5.245  1.00  0.00     0.165 HD
HETATM   25  C   UNK N   1      28.190  27.735  -8.102  0.00  0.00     0.019 A 
HETATM   26  C   UNK N   1      27.247  26.765  -8.445  0.00  0.00     0.033 A 
ENDBRANCH  16  19
ENDBRANCH   1  15
BRANCH  10  27
HETATM   27  C   UNK N   1      31.590  21.391  -7.299  0.00  0.00     0.053 C 
BRANCH  27  28
HETATM   28  C   UNK N   1      31.115  20.398  -8.311  0.00  0.00    -0.057 A 
HETATM   29  C   UNK N   1      30.398  19.275  -7.870  0.00  0.00     0.007 A 
HETATM   30  C   UNK N   1      30.106  18.230  -8.747  0.00  0.00     0.001 A 
HETATM   31  C   UNK N   1      30.575  18.276 -10.060  0.00  0.00     0.000 A 
HETATM   32  C   UNK N   1      31.324  19.375 -10.497  0.00  0.00     0.001 A 
HETATM   33  C   UNK N   1      31.602  20.431  -9.621  0.00  0.00     0.007 A 
ENDBRANCH  27  28
ENDBRANCH  10  27
BRANCH  13  34
HETATM   34  C   UNK N   1      34.064  20.712  -3.490  0.00  0.00     0.419 C 
HETATM   35  F   UNK N   1      35.279  21.369  -3.585  0.00  0.00    -0.168 F 
HETATM   36  F   UNK N   1      33.480  21.029  -2.275  0.00  0.00    -0.168 F 
HETATM   37  F   UNK N   1      34.282  19.348  -3.498  0.00  0.00    -0.168 F 
ENDBRANCH  13  34
BRANCH  13  38
HETATM   38  O   UNK N   1      33.858  21.380  -5.854  0.00  0.00    -0.277 OA
BRANCH  38  39
HETATM   39  P   UNK N   1      34.725  20.000  -6.508  0.00  0.00     0.391 P 
HETATM   40  O   UNK N   1      34.928  20.338  -8.010  0.00  0.00    -0.632 OA
BRANCH  39  41
HETATM   41  O   UNK N   1      36.336  19.826  -5.885  0.00  0.00    -0.307 OA
HETATM   42  H   UNK N   1      37.014  19.372  -6.408  0.00  0.00     0.222 HD
ENDBRANCH  39  41
BRANCH  39  43
HETATM   43  O   UNK N   1      33.819  18.519  -6.501  0.00  0.00    -0.307 OA
HETATM   44  H   UNK N   1      33.104  17.888  -6.676  0.00  0.00     0.222 HD
ENDBRANCH  39  43
ENDBRANCH  38  39
ENDBRANCH  13  38
TORSDOF 9
ENDMDL
MODEL 7
REMARK VINA RESULT:      -8.1      5.972      9.972
REMARK  9 active torsions:
REMARK  status: ('A' for Active; 'I' for Inactive)
REMARK    1  A    between atoms: C_3  and  N_9 
REMARK       I    between atoms: N_9  and  C_10 
REMARK    2  A    between atoms: C_10  and  C_12 
REMARK    3  A    between atoms: C_21  and  C_35 
REMARK    4  A    between atoms: C_24  and  C_26 
REMARK    5  A    between atoms: C_24  and  O_30 
REMARK    6  A    between atoms: O_30  and  P_31 
REMARK    7  A    between atoms: P_31  and  O_33 
REMARK    8  A    between atoms: P_31  and  O_34 
REMARK    9  A    between atoms: C_35  and  C_36 
ROOT
HETATM    1  C   UNK N   1      21.389  15.888   3.949  0.00  0.00     0.032 A 
HETATM    2  C   UNK N   1      22.137  16.600   4.883  0.00  0.00     0.017 A 
HETATM    3  C   UNK N   1      23.506  16.565   4.907  0.00  0.00     0.009 A 
HETATM    4  C   UNK N   1      24.205  15.775   4.015  0.00  0.00    -0.042 A 
HETATM    5  C   UNK N   1      23.487  14.967   3.116  0.00  0.00    -0.050 A 
HETATM    6  C   UNK N   1      22.076  15.024   3.072  0.00  0.00     0.024 A 
HETATM    7  C   UNK N   1      24.266  14.007   2.287  0.00  0.00     0.039 C 
HETATM    8  C   UNK N   1      25.227  13.261   3.238  0.00  0.00     0.010 C 
HETATM    9  C   UNK N   1      26.106  14.181   4.152  0.00  0.00     0.002 C 
HETATM   10  C   UNK N   1      25.723  15.701   4.056  0.00  0.00    -0.005 C 
HETATM   11  C   UNK N   1      26.342  16.210   2.750  0.00  0.00     0.018 C 
HETATM   12  C   UNK N   1      27.895  16.145   2.788  0.00  0.00     0.049 C 
HETATM   13  C   UNK N   1      28.517  15.041   3.703  0.00  0.00     0.170 C 
HETATM   14  C   UNK N   1      27.554  13.853   3.740  0.00  0.00     0.054 C 
ENDROOT
BRANCH   1  15
HETATM   15  C   UNK N   1      19.897  16.056   3.916  0.00  0.00     0.256 C 
HETATM   16  N   UNK N   1      19.282  17.187   3.439  0.00  0.00    -0.321 N 
HETATM   17  H   UNK N   1      18.313  17.277   3.583  0.00  0.00     0.169 HD
HETATM   18  O   UNK N   1      19.195  15.152   4.352  0.00  0.00    -0.267 OA
BRANCH  16  19
HETATM   19  C   UNK N   1      19.954  18.244   2.748  0.00  0.00     0.057 A 
HETATM   20  C   UNK N   1      20.160  18.180   1.360  0.00  0.00     0.032 A 
HETATM   21  C   UNK N   1      19.763  16.974   0.582  0.00  0.00     0.070 C 
HETATM   22  N   UNK N   1      20.688  19.252   0.702  0.00  0.00    -0.368 N 
HETATM   23  C   UNK N   1      21.033  20.394   1.355  0.00  0.00     0.088 A 
ATOM     24  HN  UNK N   1      20.827  19.195  -0.306  1.00  0.00     0.165 HD
HETATM   25  C   UNK N   1      20.877  20.487   2.737  0.00  0.00     0.019 A 
HETATM   26  C   UNK N   1      20.341  19.406   3.437  0.00  0.00     0.033 A 
ENDBRANCH  16  19
ENDBRANCH   1  15
BRANCH  10  27
HETATM   27  C   UNK N   1      26.324  16.692   5.101  0.00  0.00     0.053 C 
BRANCH  27  28
HETATM   28  C   UNK N   1      26.314  18.186   5.027  0.00  0.00    -0.057 A 
HETATM   29  C   UNK N   1      25.936  18.799   3.824  0.00  0.00     0.007 A 
HETATM   30  C   UNK N   1      26.098  20.173   3.645  0.00  0.00     0.001 A 
HETATM   31  C   UNK N   1      26.688  20.938   4.653  0.00  0.00     0.000 A 
HETATM   32  C   UNK N   1      27.104  20.326   5.842  0.00  0.00     0.001 A 
HETATM   33  C   UNK N   1      26.925  18.949   6.026  0.00  0.00     0.007 A 
ENDBRANCH  27  28
ENDBRANCH  10  27
BRANCH  13  34
HETATM   34  C   UNK N   1      29.827  14.528   3.067  0.00  0.00     0.419 C 
HETATM   35  F   UNK N   1      30.503  13.718   3.964  0.00  0.00    -0.168 F 
HETATM   36  F   UNK N   1      29.542  13.793   1.928  0.00  0.00    -0.168 F 
HETATM   37  F   UNK N   1      30.648  15.572   2.688  0.00  0.00    -0.168 F 
ENDBRANCH  13  34
BRANCH  13  38
HETATM   38  O   UNK N   1      28.691  15.416   5.067  0.00  0.00    -0.277 OA
BRANCH  38  39
HETATM   39  P   UNK N   1      29.925  16.625   5.376  0.00  0.00     0.391 P 
HETATM   40  O   UNK N   1      29.585  17.186   6.783  0.00  0.00    -0.632 OA
BRANCH  39  41
HETATM   41  O   UNK N   1      31.522  15.967   5.551  0.00  0.00    -0.307 OA
HETATM   42  H   UNK N   1      31.800  15.212   5.009  0.00  0.00     0.222 HD
ENDBRANCH  39  41
BRANCH  39  43
HETATM   43  O   UNK N   1      29.858  18.000   4.318  0.00  0.00    -0.307 OA
HETATM   44  H   UNK N   1      29.670  18.897   4.001  0.00  0.00     0.222 HD
ENDBRANCH  39  43
ENDBRANCH  38  39
ENDBRANCH  13  38
TORSDOF 9
ENDMDL
MODEL 8
REMARK VINA RESULT:      -8.1      4.754      8.247
REMARK  9 active torsions:
REMARK  status: ('A' for Active; 'I' for Inactive)
REMARK    1  A    between atoms: C_3  and  N_9 
REMARK       I    between atoms: N_9  and  C_10 
REMARK    2  A    between atoms: C_10  and  C_12 
REMARK    3  A    between atoms: C_21  and  C_35 
REMARK    4  A    between atoms: C_24  and  C_26 
REMARK    5  A    between atoms: C_24  and  O_30 
REMARK    6  A    between atoms: O_30  and  P_31 
REMARK    7  A    between atoms: P_31  and  O_33 
REMARK    8  A    between atoms: P_31  and  O_34 
REMARK    9  A    between atoms: C_35  and  C_36 
ROOT
HETATM    1  C   UNK N   1      25.188  14.099   6.172  0.00  0.00     0.032 A 
HETATM    2  C   UNK N   1      25.543  15.266   6.842  0.00  0.00     0.017 A 
HETATM    3  C   UNK N   1      26.723  15.919   6.604  0.00  0.00     0.009 A 
HETATM    4  C   UNK N   1      27.639  15.411   5.702  0.00  0.00    -0.042 A 
HETATM    5  C   UNK N   1      27.362  14.185   5.072  0.00  0.00    -0.050 A 
HETATM    6  C   UNK N   1      26.133  13.526   5.297  0.00  0.00     0.024 A 
HETATM    7  C   UNK N   1      28.440  13.586   4.238  0.00  0.00     0.039 C 
HETATM    8  C   UNK N   1      29.739  13.633   5.072  0.00  0.00     0.010 C 
HETATM    9  C   UNK N   1      30.094  15.036   5.671  0.00  0.00     0.002 C 
HETATM   10  C   UNK N   1      28.967  16.108   5.456  0.00  0.00    -0.005 C 
HETATM   11  C   UNK N   1      29.094  16.568   4.000  0.00  0.00     0.018 C 
HETATM   12  C   UNK N   1      30.447  17.290   3.743  0.00  0.00     0.049 C 
HETATM   13  C   UNK N   1      31.642  16.860   4.654  0.00  0.00     0.170 C 
HETATM   14  C   UNK N   1      31.450  15.390   5.031  0.00  0.00     0.054 C 
ENDROOT
BRANCH   1  15
HETATM   15  C   UNK N   1      23.833  13.495   6.409  0.00  0.00     0.256 C 
HETATM   16  N   UNK N   1      22.662  14.156   6.132  0.00  0.00    -0.321 N 
HETATM   17  H   UNK N   1      21.822  13.751   6.447  0.00  0.00     0.169 HD
HETATM   18  O   UNK N   1      23.768  12.371   6.889  0.00  0.00    -0.267 OA
BRANCH  16  19
HETATM   19  C   UNK N   1      22.578  15.393   5.419  0.00  0.00     0.057 A 
HETATM   20  C   UNK N   1      22.546  15.414   4.015  0.00  0.00     0.032 A 
HETATM   21  C   UNK N   1      22.683  14.157   3.228  0.00  0.00     0.070 C 
HETATM   22  N   UNK N   1      22.338  16.591   3.359  0.00  0.00    -0.368 N 
HETATM   23  C   UNK N   1      22.166  17.763   4.026  0.00  0.00     0.088 A 
ATOM     24  HN  UNK N   1      22.311  16.592   2.340  1.00  0.00     0.165 HD
HETATM   25  C   UNK N   1      22.225  17.793   5.419  0.00  0.00     0.019 A 
HETATM   26  C   UNK N   1      22.438  16.604   6.118  0.00  0.00     0.033 A 
ENDBRANCH  16  19
ENDBRANCH   1  15
BRANCH  10  27
HETATM   27  C   UNK N   1      29.063  17.461   6.227  0.00  0.00     0.053 C 
BRANCH  27  28
HETATM   28  C   UNK N   1      28.148  18.637   6.091  0.00  0.00    -0.057 A 
HETATM   29  C   UNK N   1      27.837  19.104   4.805  0.00  0.00     0.007 A 
HETATM   30  C   UNK N   1      27.152  20.307   4.633  0.00  0.00     0.001 A 
HETATM   31  C   UNK N   1      26.818  21.079   5.747  0.00  0.00     0.000 A 
HETATM   32  C   UNK N   1      27.160  20.639   7.031  0.00  0.00     0.001 A 
HETATM   33  C   UNK N   1      27.833  19.423   7.203  0.00  0.00     0.007 A 
ENDBRANCH  27  28
ENDBRANCH  10  27
BRANCH  13  34
HETATM   34  C   UNK N   1      32.956  16.942   3.847  0.00  0.00     0.419 C 
HETATM   35  F   UNK N   1      33.811  15.923   4.231  0.00  0.00    -0.168 F 
HETATM   36  F   UNK N   1      32.687  16.812   2.494  0.00  0.00    -0.168 F 
HETATM   37  F   UNK N   1      33.586  18.158   4.027  0.00  0.00    -0.168 F 
ENDBRANCH  13  34
BRANCH  13  38
HETATM   38  O   UNK N   1      31.731  17.550   5.898  0.00  0.00    -0.277 OA
BRANCH  38  39
HETATM   39  P   UNK N   1      33.020  17.029   6.971  0.00  0.00     0.391 P 
HETATM   40  O   UNK N   1      32.548  17.451   8.388  0.00  0.00    -0.632 OA
BRANCH  39  41
HETATM   41  O   UNK N   1      33.194  15.305   7.070  0.00  0.00    -0.307 OA
HETATM   42  H   UNK N   1      32.430  14.728   6.914  0.00  0.00     0.222 HD
ENDBRANCH  39  41
BRANCH  39  43
HETATM   43  O   UNK N   1      34.525  17.862   6.734  0.00  0.00    -0.307 OA
HETATM   44  H   UNK N   1      35.190  18.446   6.338  0.00  0.00     0.222 HD
ENDBRANCH  39  43
ENDBRANCH  38  39
ENDBRANCH  13  38
TORSDOF 9
ENDMDL
MODEL 9
REMARK VINA RESULT:      -8.1      5.857      8.152
REMARK  9 active torsions:
REMARK  status: ('A' for Active; 'I' for Inactive)
REMARK    1  A    between atoms: C_3  and  N_9 
REMARK       I    between atoms: N_9  and  C_10 
REMARK    2  A    between atoms: C_10  and  C_12 
REMARK    3  A    between atoms: C_21  and  C_35 
REMARK    4  A    between atoms: C_24  and  C_26 
REMARK    5  A    between atoms: C_24  and  O_30 
REMARK    6  A    between atoms: O_30  and  P_31 
REMARK    7  A    between atoms: P_31  and  O_33 
REMARK    8  A    between atoms: P_31  and  O_34 
REMARK    9  A    between atoms: C_35  and  C_36 
ROOT
HETATM    1  C   UNK N   1      27.384  15.672   5.644  0.00  0.00     0.032 A 
HETATM    2  C   UNK N   1      26.535  15.762   6.743  0.00  0.00     0.017 A 
HETATM    3  C   UNK N   1      25.237  15.323   6.706  0.00  0.00     0.009 A 
HETATM    4  C   UNK N   1      24.704  14.803   5.542  0.00  0.00    -0.042 A 
HETATM    5  C   UNK N   1      25.498  14.780   4.382  0.00  0.00    -0.050 A 
HETATM    6  C   UNK N   1      26.843  15.207   4.427  0.00  0.00     0.024 A 
HETATM    7  C   UNK N   1      24.840  14.371   3.111  0.00  0.00     0.039 C 
HETATM    8  C   UNK N   1      23.521  15.168   3.005  0.00  0.00     0.010 C 
HETATM    9  C   UNK N   1      22.592  15.088   4.264  0.00  0.00     0.002 C 
HETATM   10  C   UNK N   1      23.255  14.346   5.479  0.00  0.00    -0.005 C 
HETATM   11  C   UNK N   1      23.156  12.850   5.167  0.00  0.00     0.018 C 
HETATM   12  C   UNK N   1      21.677  12.373   5.109  0.00  0.00     0.049 C 
HETATM   13  C   UNK N   1      20.622  13.448   4.691  0.00  0.00     0.170 C 
HETATM   14  C   UNK N   1      21.298  14.437   3.740  0.00  0.00     0.054 C 
ENDROOT
BRANCH   1  15
HETATM   15  C   UNK N   1      28.823  16.077   5.789  0.00  0.00     0.256 C 
HETATM   16  N   UNK N   1      29.237  17.386   5.770  0.00  0.00    -0.321 N 
HETATM   17  H   UNK N   1      30.204  17.560   5.726  0.00  0.00     0.169 HD
HETATM   18  O   UNK N   1      29.670  15.201   5.908  0.00  0.00    -0.267 OA
BRANCH  16  19
HETATM   19  C   UNK N   1      28.358  18.514   5.807  0.00  0.00     0.057 A 
HETATM   20  C   UNK N   1      27.983  19.094   7.030  0.00  0.00     0.032 A 
HETATM   21  C   UNK N   1      28.419  18.500   8.324  0.00  0.00     0.070 C 
HETATM   22  N   UNK N   1      27.249  20.243   7.039  0.00  0.00    -0.368 N 
HETATM   23  C   UNK N   1      26.856  20.852   5.888  0.00  0.00     0.088 A 
ATOM     24  HN  UNK N   1      26.988  20.658   7.933  1.00  0.00     0.165 HD
HETATM   25  C   UNK N   1      27.178  20.291   4.652  0.00  0.00     0.019 A 
HETATM   26  C   UNK N   1      27.927  19.115   4.612  0.00  0.00     0.033 A 
ENDBRANCH  16  19
ENDBRANCH   1  15
BRANCH  10  27
HETATM   27  C   UNK N   1      22.561  14.427   6.875  0.00  0.00     0.053 C 
BRANCH  27  28
HETATM   28  C   UNK N   1      22.665  13.431   7.986  0.00  0.00    -0.057 A 
HETATM   29  C   UNK N   1      21.539  13.195   8.788  0.00  0.00     0.007 A 
HETATM   30  C   UNK N   1      21.641  12.428   9.949  0.00  0.00     0.001 A 
HETATM   31  C   UNK N   1      22.885  11.934  10.345  0.00  0.00     0.000 A 
HETATM   32  C   UNK N   1      24.021  12.199   9.571  0.00  0.00     0.001 A 
HETATM   33  C   UNK N   1      23.913  12.954   8.397  0.00  0.00     0.007 A 
ENDBRANCH  27  28
ENDBRANCH  10  27
BRANCH  13  34
HETATM   34  C   UNK N   1      19.490  12.769   3.891  0.00  0.00     0.419 C 
HETATM   35  F   UNK N   1      19.479  13.244   2.590  0.00  0.00    -0.168 F 
HETATM   36  F   UNK N   1      19.688  11.398   3.864  0.00  0.00    -0.168 F 
HETATM   37  F   UNK N   1      18.255  12.995   4.468  0.00  0.00    -0.168 F 
ENDBRANCH  13  34
BRANCH  13  38
HETATM   38  O   UNK N   1      20.121  14.249   5.758  0.00  0.00    -0.277 OA
BRANCH  38  39
HETATM   39  P   UNK N   1      19.475  15.816   5.301  0.00  0.00     0.391 P 
HETATM   40  O   UNK N   1      18.088  15.889   5.994  0.00  0.00    -0.632 OA
BRANCH  39  41
HETATM   41  O   UNK N   1      20.358  17.156   5.963  0.00  0.00    -0.307 OA
HETATM   42  H   UNK N   1      20.163  18.060   5.670  0.00  0.00     0.222 HD
ENDBRANCH  39  41
BRANCH  39  43
HETATM   43  O   UNK N   1      19.138  15.982   3.606  0.00  0.00    -0.307 OA
HETATM   44  H   UNK N   1      18.657  15.942   2.765  0.00  0.00     0.222 HD
ENDBRANCH  39  43
ENDBRANCH  38  39
ENDBRANCH  13  38
TORSDOF 9
ENDMDL
