MODEL 1
REMARK VINA RESULT:      -4.6      0.000      0.000
REMARK  3 active torsions:
REMARK  status: ('A' for Active; 'I' for Inactive)
REMARK    1  A    between atoms: C_5  and  C_3 
REMARK    2  A    between atoms: C_6  and  C_4 
REMARK    3  A    between atoms: O_8  and  C_4 
ROOT
HETATM    1  C   UNK N   1      21.054  12.531  10.928  0.00  0.00     0.043 A 
HETATM    2  C   UNK N   1      22.288  11.956  11.199  0.00  0.00     0.038 A 
HETATM    3  C   UNK N   1      21.310  13.538  10.014  0.00  0.00     0.113 A 
HETATM    4  C   UNK N   1      23.196  12.657  10.429  0.00  0.00     0.077 A 
HETATM    5  O   UNK N   1      22.586  13.587   9.740  0.00  0.00    -0.310 OA
ENDROOT
BRANCH   4   6
HETATM    6  C   UNK N   1      24.665  12.411  10.374  0.00  0.00     0.229 C 
BRANCH   6   7
HETATM    7  O   UNK N   1      25.200  12.446  11.662  0.00  0.00    -0.394 OA
HETATM    8  H   UNK N   1      25.463  11.622  12.101  0.00  0.00     0.209 HD
ENDBRANCH   6   7
ENDBRANCH   4   6
BRANCH   3   9
HETATM    9  C   UNK N   1      20.327  14.445   9.413  0.00  0.00     0.295 C 
HETATM   10  O   UNK N   1      19.156  14.411   9.750  0.00  0.00    -0.299 OA
ENDBRANCH   3   9
TORSDOF 3
ENDMDL
MODEL 2
REMARK VINA RESULT:      -4.4     10.090     11.516
REMARK  3 active torsions:
REMARK  status: ('A' for Active; 'I' for Inactive)
REMARK    1  A    between atoms: C_5  and  C_3 
REMARK    2  A    between atoms: C_6  and  C_4 
REMARK    3  A    between atoms: O_8  and  C_4 
ROOT
HETATM    1  C   UNK N   1      22.681  19.277   3.659  0.00  0.00     0.043 A 
HETATM    2  C   UNK N   1      21.419  19.437   3.103  0.00  0.00     0.038 A 
HETATM    3  C   UNK N   1      23.491  20.187   3.001  0.00  0.00     0.113 A 
HETATM    4  C   UNK N   1      21.560  20.429   2.153  0.00  0.00     0.077 A 
HETATM    5  O   UNK N   1      22.798  20.853   2.116  0.00  0.00    -0.310 OA
ENDROOT
BRANCH   4   6
HETATM    6  C   UNK N   1      20.474  20.959   1.281  0.00  0.00     0.229 C 
BRANCH   6   7
HETATM    7  O   UNK N   1      20.689  20.558  -0.039  0.00  0.00    -0.394 OA
HETATM    8  H   UNK N   1      19.958  20.576  -0.676  0.00  0.00     0.209 HD
ENDBRANCH   6   7
ENDBRANCH   4   6
BRANCH   3   9
HETATM    9  C   UNK N   1      24.923  20.409   3.227  0.00  0.00     0.295 C 
HETATM   10  O   UNK N   1      25.640  20.823   2.331  0.00  0.00    -0.299 OA
ENDBRANCH   3   9
TORSDOF 3
ENDMDL
MODEL 3
REMARK VINA RESULT:      -4.4     11.940     13.243
REMARK  3 active torsions:
REMARK  status: ('A' for Active; 'I' for Inactive)
REMARK    1  A    between atoms: C_5  and  C_3 
REMARK    2  A    between atoms: C_6  and  C_4 
REMARK    3  A    between atoms: O_8  and  C_4 
ROOT
HETATM    1  C   UNK N   1      32.526  17.431   7.733  0.00  0.00     0.043 A 
HETATM    2  C   UNK N   1      31.988  17.198   6.475  0.00  0.00     0.038 A 
HETATM    3  C   UNK N   1      33.821  17.863   7.505  0.00  0.00     0.113 A 
HETATM    4  C   UNK N   1      32.995  17.507   5.582  0.00  0.00     0.077 A 
HETATM    5  O   UNK N   1      34.068  17.897   6.223  0.00  0.00    -0.310 OA
ENDROOT
BRANCH   4   6
HETATM    6  C   UNK N   1      32.902  17.417   4.098  0.00  0.00     0.229 C 
BRANCH   6   7
HETATM    7  O   UNK N   1      31.679  17.936   3.668  0.00  0.00    -0.394 OA
HETATM    8  H   UNK N   1      30.922  17.958   4.274  0.00  0.00     0.209 HD
ENDBRANCH   6   7
ENDBRANCH   4   6
BRANCH   3   9
HETATM    9  C   UNK N   1      34.810  18.240   8.520  0.00  0.00     0.295 C 
HETATM   10  O   UNK N   1      35.352  19.332   8.489  0.00  0.00    -0.299 OA
ENDBRANCH   3   9
TORSDOF 3
ENDMDL
MODEL 4
REMARK VINA RESULT:      -4.2      0.386      4.075
REMARK  3 active torsions:
REMARK  status: ('A' for Active; 'I' for Inactive)
REMARK    1  A    between atoms: C_5  and  C_3 
REMARK    2  A    between atoms: C_6  and  C_4 
REMARK    3  A    between atoms: O_8  and  C_4 
ROOT
HETATM    1  C   UNK N   1      21.838  12.002  11.164  0.00  0.00     0.043 A 
HETATM    2  C   UNK N   1      20.722  12.715  10.749  0.00  0.00     0.038 A 
HETATM    3  C   UNK N   1      22.917  12.619  10.556  0.00  0.00     0.113 A 
HETATM    4  C   UNK N   1      21.209  13.709   9.923  0.00  0.00     0.077 A 
HETATM    5  O   UNK N   1      22.511  13.626   9.828  0.00  0.00    -0.310 OA
ENDROOT
BRANCH   4   6
HETATM    6  C   UNK N   1      20.390  14.741   9.226  0.00  0.00     0.229 C 
BRANCH   6   7
HETATM    7  O   UNK N   1      19.052  14.616   9.601  0.00  0.00    -0.394 OA
HETATM    8  H   UNK N   1      18.545  15.402   9.858  0.00  0.00     0.209 HD
ENDBRANCH   6   7
ENDBRANCH   4   6
BRANCH   3   9
HETATM    9  C   UNK N   1      24.328  12.239  10.678  0.00  0.00     0.295 C 
HETATM   10  O   UNK N   1      24.817  11.993  11.768  0.00  0.00    -0.299 OA
ENDBRANCH   3   9
TORSDOF 3
ENDMDL
MODEL 5
REMARK VINA RESULT:      -4.1      8.385     10.254
REMARK  3 active torsions:
REMARK  status: ('A' for Active; 'I' for Inactive)
REMARK    1  A    between atoms: C_5  and  C_3 
REMARK    2  A    between atoms: C_6  and  C_4 
REMARK    3  A    between atoms: O_8  and  C_4 
ROOT
HETATM    1  C   UNK N   1      20.568  17.863   3.234  0.00  0.00     0.043 A 
HETATM    2  C   UNK N   1      20.293  18.574   2.074  0.00  0.00     0.038 A 
HETATM    3  C   UNK N   1      21.181  18.768   4.084  0.00  0.00     0.113 A 
HETATM    4  C   UNK N   1      20.760  19.853   2.308  0.00  0.00     0.077 A 
HETATM    5  O   UNK N   1      21.280  19.936   3.506  0.00  0.00    -0.310 OA
ENDROOT
BRANCH   4   6
HETATM    6  C   UNK N   1      20.694  20.993   1.351  0.00  0.00     0.229 C 
BRANCH   6   7
HETATM    7  O   UNK N   1      20.626  20.510   0.043  0.00  0.00    -0.394 OA
HETATM    8  H   UNK N   1      20.856  19.587  -0.146  0.00  0.00     0.209 HD
ENDBRANCH   6   7
ENDBRANCH   4   6
BRANCH   3   9
HETATM    9  C   UNK N   1      21.666  18.503   5.441  0.00  0.00     0.295 C 
HETATM   10  O   UNK N   1      21.030  18.870   6.415  0.00  0.00    -0.299 OA
ENDBRANCH   3   9
TORSDOF 3
ENDMDL
MODEL 6
REMARK VINA RESULT:      -3.9      9.300     11.405
REMARK  3 active torsions:
REMARK  status: ('A' for Active; 'I' for Inactive)
REMARK    1  A    between atoms: C_5  and  C_3 
REMARK    2  A    between atoms: C_6  and  C_4 
REMARK    3  A    between atoms: O_8  and  C_4 
ROOT
HETATM    1  C   UNK N   1      31.752  17.001   6.847  0.00  0.00     0.043 A 
HETATM    2  C   UNK N   1      30.435  17.062   7.279  0.00  0.00     0.038 A 
HETATM    3  C   UNK N   1      32.475  17.750   7.759  0.00  0.00     0.113 A 
HETATM    4  C   UNK N   1      30.458  17.842   8.418  0.00  0.00     0.077 A 
HETATM    5  O   UNK N   1      31.680  18.234   8.677  0.00  0.00    -0.310 OA
ENDROOT
BRANCH   4   6
HETATM    6  C   UNK N   1      29.277  18.201   9.252  0.00  0.00     0.229 C 
BRANCH   6   7
HETATM    7  O   UNK N   1      29.701  18.651  10.504  0.00  0.00    -0.394 OA
HETATM    8  H   UNK N   1      30.188  18.056  11.094  0.00  0.00     0.209 HD
ENDBRANCH   6   7
ENDBRANCH   4   6
BRANCH   3   9
HETATM    9  C   UNK N   1      33.920  17.995   7.744  0.00  0.00     0.295 C 
HETATM   10  O   UNK N   1      34.545  17.979   6.696  0.00  0.00    -0.299 OA
ENDBRANCH   3   9
TORSDOF 3
ENDMDL
MODEL 7
REMARK VINA RESULT:      -3.9     13.362     14.307
REMARK  3 active torsions:
REMARK  status: ('A' for Active; 'I' for Inactive)
REMARK    1  A    between atoms: C_5  and  C_3 
REMARK    2  A    between atoms: C_6  and  C_4 
REMARK    3  A    between atoms: O_8  and  C_4 
ROOT
HETATM    1  C   UNK N   1      35.090  13.879  11.983  0.00  0.00     0.043 A 
HETATM    2  C   UNK N   1      35.307  13.258  13.205  0.00  0.00     0.038 A 
HETATM    3  C   UNK N   1      35.831  15.047  12.027  0.00  0.00     0.113 A 
HETATM    4  C   UNK N   1      36.161  14.095  13.896  0.00  0.00     0.077 A 
HETATM    5  O   UNK N   1      36.453  15.146  13.172  0.00  0.00    -0.310 OA
ENDROOT
BRANCH   4   6
HETATM    6  C   UNK N   1      36.689  13.860  15.269  0.00  0.00     0.229 C 
BRANCH   6   7
HETATM    7  O   UNK N   1      37.628  14.842  15.589  0.00  0.00    -0.394 OA
HETATM    8  H   UNK N   1      38.570  14.616  15.632  0.00  0.00     0.209 HD
ENDBRANCH   6   7
ENDBRANCH   4   6
BRANCH   3   9
HETATM    9  C   UNK N   1      35.935  16.058  10.971  0.00  0.00     0.295 C 
HETATM   10  O   UNK N   1      35.215  17.043  10.974  0.00  0.00    -0.299 OA
ENDBRANCH   3   9
TORSDOF 3
ENDMDL
MODEL 8
REMARK VINA RESULT:      -3.8      9.513     10.539
REMARK  3 active torsions:
REMARK  status: ('A' for Active; 'I' for Inactive)
REMARK    1  A    between atoms: C_5  and  C_3 
REMARK    2  A    between atoms: C_6  and  C_4 
REMARK    3  A    between atoms: O_8  and  C_4 
ROOT
HETATM    1  C   UNK N   1      21.506  19.257   3.110  0.00  0.00     0.043 A 
HETATM    2  C   UNK N   1      22.704  19.103   3.794  0.00  0.00     0.038 A 
HETATM    3  C   UNK N   1      21.730  20.276   2.200  0.00  0.00     0.113 A 
HETATM    4  C   UNK N   1      23.561  20.040   3.249  0.00  0.00     0.077 A 
HETATM    5  O   UNK N   1      22.955  20.718   2.308  0.00  0.00    -0.310 OA
ENDROOT
BRANCH   4   6
HETATM    6  C   UNK N   1      24.976  20.266   3.656  0.00  0.00     0.229 C 
BRANCH   6   7
HETATM    7  O   UNK N   1      25.745  19.146   3.335  0.00  0.00    -0.394 OA
HETATM    8  H   UNK N   1      26.249  19.125   2.507  0.00  0.00     0.209 HD
ENDBRANCH   6   7
ENDBRANCH   4   6
BRANCH   3   9
HETATM    9  C   UNK N   1      20.767  20.817   1.236  0.00  0.00     0.295 C 
HETATM   10  O   UNK N   1      21.011  20.817   0.041  0.00  0.00    -0.299 OA
ENDBRANCH   3   9
TORSDOF 3
ENDMDL
MODEL 9
REMARK VINA RESULT:      -3.8      9.030     10.599
REMARK  3 active torsions:
REMARK  status: ('A' for Active; 'I' for Inactive)
REMARK    1  A    between atoms: C_5  and  C_3 
REMARK    2  A    between atoms: C_6  and  C_4 
REMARK    3  A    between atoms: O_8  and  C_4 
ROOT
HETATM    1  C   UNK N   1      21.577  18.354   3.654  0.00  0.00     0.043 A 
HETATM    2  C   UNK N   1      21.664  19.669   3.218  0.00  0.00     0.038 A 
HETATM    3  C   UNK N   1      20.757  17.716   2.739  0.00  0.00     0.113 A 
HETATM    4  C   UNK N   1      20.892  19.728   2.074  0.00  0.00     0.077 A 
HETATM    5  O   UNK N   1      20.369  18.556   1.816  0.00  0.00    -0.310 OA
ENDROOT
BRANCH   4   6
HETATM    6  C   UNK N   1      20.670  20.939   1.234  0.00  0.00     0.229 C 
BRANCH   6   7
HETATM    7  O   UNK N   1      20.616  20.577  -0.113  0.00  0.00    -0.394 OA
HETATM    8  H   UNK N   1      19.826  20.140  -0.466  0.00  0.00     0.209 HD
ENDBRANCH   6   7
ENDBRANCH   4   6
BRANCH   3   9
HETATM    9  C   UNK N   1      20.354  16.307   2.757  0.00  0.00     0.295 C 
HETATM   10  O   UNK N   1      19.921  15.767   1.753  0.00  0.00    -0.299 OA
ENDBRANCH   3   9
TORSDOF 3
ENDMDL
