MODEL 1
REMARK VINA RESULT:      -5.0      0.000      0.000
REMARK  1 active torsions:
REMARK  status: ('A' for Active; 'I' for Inactive)
REMARK    1  A    between atoms: N_13  and  C_10 
ROOT
HETATM    1  C   UNK N   1      35.178  13.596  18.577  0.00  0.00     0.004 A 
HETATM    2  C   UNK N   1      35.397  12.489  19.404  0.00  0.00     0.024 A 
HETATM    3  C   UNK N   1      34.976  13.414  17.205  0.00  0.00     0.029 A 
HETATM    4  C   UNK N   1      35.214  11.023  17.493  0.00  0.00     0.053 A 
HETATM    5  C   UNK N   1      35.414  11.203  18.859  0.00  0.00     0.036 A 
HETATM    6  C   UNK N   1      34.993  12.123  16.648  0.00  0.00     0.031 A 
HETATM    7 Cl   UNK N   1      35.687   9.811  19.881  0.00  0.00    -0.084 Cl
ENDROOT
BRANCH   6   8
HETATM    8  N   UNK N   1      34.789  11.918  15.247  0.00  0.00    -0.378 N 
HETATM    9  C   UNK N   1      35.281  12.914  14.321  0.00  0.00     0.142 A 
HETATM   10  C   UNK N   1      35.056  12.679  12.835  0.00  0.00     0.133 A 
HETATM   11  N   UNK N   1      34.360  11.475  12.386  0.00  0.00    -0.418 N 
HETATM   12  C   UNK N   1      33.877  10.490  13.347  0.00  0.00     0.133 A 
HETATM   13  H   UNK N   1      34.211  11.322  11.388  0.00  0.00     0.153 HD
HETATM   14  C   UNK N   1      34.099  10.720  14.830  0.00  0.00     0.142 A 
ENDBRANCH   6   8
TORSDOF 1
ENDMDL
MODEL 2
REMARK VINA RESULT:      -5.0     13.962     15.426
REMARK  1 active torsions:
REMARK  status: ('A' for Active; 'I' for Inactive)
REMARK    1  A    between atoms: N_13  and  C_10 
ROOT
HETATM    1  C   UNK N   1      20.785  12.380  11.149  0.00  0.00     0.004 A 
HETATM    2  C   UNK N   1      22.095  11.947  11.376  0.00  0.00     0.024 A 
HETATM    3  C   UNK N   1      20.533  13.385  10.210  0.00  0.00     0.029 A 
HETATM    4  C   UNK N   1      22.902  13.519   9.730  0.00  0.00     0.053 A 
HETATM    5  C   UNK N   1      23.152  12.518  10.664  0.00  0.00     0.036 A 
HETATM    6  C   UNK N   1      21.591  13.967   9.489  0.00  0.00     0.031 A 
HETATM    7 Cl   UNK N   1      24.795  11.987  10.937  0.00  0.00    -0.084 Cl
ENDROOT
BRANCH   6   8
HETATM    8  N   UNK N   1      21.354  14.996   8.525  0.00  0.00    -0.378 N 
HETATM    9  C   UNK N   1      22.148  15.010   7.316  0.00  0.00     0.142 A 
HETATM   10  C   UNK N   1      21.882  16.112   6.302  0.00  0.00     0.133 A 
HETATM   11  N   UNK N   1      20.850  17.112   6.566  0.00  0.00    -0.418 N 
HETATM   12  C   UNK N   1      20.067  17.068   7.796  0.00  0.00     0.133 A 
HETATM   13  H   UNK N   1      20.675  17.849   5.883  0.00  0.00     0.153 HD
HETATM   14  C   UNK N   1      20.328  15.971   8.811  0.00  0.00     0.142 A 
ENDBRANCH   6   8
TORSDOF 1
ENDMDL
MODEL 3
REMARK VINA RESULT:      -4.9     14.116     15.614
REMARK  1 active torsions:
REMARK  status: ('A' for Active; 'I' for Inactive)
REMARK    1  A    between atoms: N_13  and  C_10 
ROOT
HETATM    1  C   UNK N   1      23.459  12.271  10.038  0.00  0.00     0.004 A 
HETATM    2  C   UNK N   1      22.467  11.813  10.912  0.00  0.00     0.024 A 
HETATM    3  C   UNK N   1      23.188  13.332   9.167  0.00  0.00     0.029 A 
HETATM    4  C   UNK N   1      20.937  13.469  10.047  0.00  0.00     0.053 A 
HETATM    5  C   UNK N   1      21.207  12.414  10.914  0.00  0.00     0.036 A 
HETATM    6  C   UNK N   1      21.922  13.943   9.162  0.00  0.00     0.031 A 
HETATM    7 Cl   UNK N   1      19.958  11.852  12.000  0.00  0.00    -0.084 Cl
ENDROOT
BRANCH   6   8
HETATM    8  N   UNK N   1      21.626  15.028   8.279  0.00  0.00    -0.378 N 
HETATM    9  C   UNK N   1      22.374  15.143   7.046  0.00  0.00     0.142 A 
HETATM   10  C   UNK N   1      22.046  16.303   6.119  0.00  0.00     0.133 A 
HETATM   11  N   UNK N   1      21.003  17.257   6.488  0.00  0.00    -0.418 N 
HETATM   12  C   UNK N   1      20.267  17.112   7.739  0.00  0.00     0.133 A 
HETATM   13  H   UNK N   1      20.786  18.034   5.863  0.00  0.00     0.153 HD
HETATM   14  C   UNK N   1      20.591  15.957   8.667  0.00  0.00     0.142 A 
ENDBRANCH   6   8
TORSDOF 1
ENDMDL
MODEL 4
REMARK VINA RESULT:      -4.9     11.215     12.346
REMARK  1 active torsions:
REMARK  status: ('A' for Active; 'I' for Inactive)
REMARK    1  A    between atoms: N_13  and  C_10 
ROOT
HETATM    1  C   UNK N   1      34.005  16.796   6.963  0.00  0.00     0.004 A 
HETATM    2  C   UNK N   1      33.993  16.769   5.565  0.00  0.00     0.024 A 
HETATM    3  C   UNK N   1      32.823  17.048   7.668  0.00  0.00     0.029 A 
HETATM    4  C   UNK N   1      31.624  17.243   5.574  0.00  0.00     0.053 A 
HETATM    5  C   UNK N   1      32.801  16.993   4.873  0.00  0.00     0.036 A 
HETATM    6  C   UNK N   1      31.618  17.275   6.980  0.00  0.00     0.031 A 
HETATM    7 Cl   UNK N   1      32.770  16.962   3.125  0.00  0.00    -0.084 Cl
ENDROOT
BRANCH   6   8
HETATM    8  N   UNK N   1      30.400  17.534   7.683  0.00  0.00    -0.378 N 
HETATM    9  C   UNK N   1      29.155  17.072   7.107  0.00  0.00     0.142 A 
HETATM   10  C   UNK N   1      27.869  17.356   7.868  0.00  0.00     0.133 A 
HETATM   11  N   UNK N   1      27.920  18.075   9.139  0.00  0.00    -0.418 N 
HETATM   12  C   UNK N   1      29.192  18.526   9.692  0.00  0.00     0.133 A 
HETATM   13  H   UNK N   1      27.055  18.263   9.646  0.00  0.00     0.153 HD
HETATM   14  C   UNK N   1      30.477  18.246   8.937  0.00  0.00     0.142 A 
ENDBRANCH   6   8
TORSDOF 1
ENDMDL
MODEL 5
REMARK VINA RESULT:      -4.8      2.629      4.343
REMARK  1 active torsions:
REMARK  status: ('A' for Active; 'I' for Inactive)
REMARK    1  A    between atoms: N_13  and  C_10 
ROOT
HETATM    1  C   UNK N   1      33.878  10.811  14.090  0.00  0.00     0.004 A 
HETATM    2  C   UNK N   1      33.973  11.268  15.409  0.00  0.00     0.024 A 
HETATM    3  C   UNK N   1      34.560  11.480  13.068  0.00  0.00     0.029 A 
HETATM    4  C   UNK N   1      35.425  13.058  14.686  0.00  0.00     0.053 A 
HETATM    5  C   UNK N   1      34.747  12.392  15.704  0.00  0.00     0.036 A 
HETATM    6  C   UNK N   1      35.341  12.612  13.356  0.00  0.00     0.031 A 
HETATM    7 Cl   UNK N   1      34.874  12.975  17.347  0.00  0.00    -0.084 Cl
ENDROOT
BRANCH   6   8
HETATM    8  N   UNK N   1      36.045  13.309  12.324  0.00  0.00    -0.378 N 
HETATM    9  C   UNK N   1      37.197  12.676  11.720  0.00  0.00     0.142 A 
HETATM   10  C   UNK N   1      37.933  13.431  10.624  0.00  0.00     0.133 A 
HETATM   11  N   UNK N   1      37.468  14.755  10.214  0.00  0.00    -0.418 N 
HETATM   12  C   UNK N   1      36.303  15.365  10.844  0.00  0.00     0.133 A 
HETATM   13  H   UNK N   1      37.965  15.258   9.479  0.00  0.00     0.153 HD
HETATM   14  C   UNK N   1      35.565  14.615  11.937  0.00  0.00     0.142 A 
ENDBRANCH   6   8
TORSDOF 1
ENDMDL
MODEL 6
REMARK VINA RESULT:      -4.8      1.925      2.382
REMARK  1 active torsions:
REMARK  status: ('A' for Active; 'I' for Inactive)
REMARK    1  A    between atoms: N_13  and  C_10 
ROOT
HETATM    1  C   UNK N   1      35.149  13.132  18.180  0.00  0.00     0.004 A 
HETATM    2  C   UNK N   1      35.262  11.819  18.651  0.00  0.00     0.024 A 
HETATM    3  C   UNK N   1      35.532  13.440  16.871  0.00  0.00     0.029 A 
HETATM    4  C   UNK N   1      36.139  11.125  16.510  0.00  0.00     0.053 A 
HETATM    5  C   UNK N   1      35.757  10.818  17.813  0.00  0.00     0.036 A 
HETATM    6  C   UNK N   1      36.032  12.438  16.021  0.00  0.00     0.031 A 
HETATM    7 Cl   UNK N   1      35.904   9.173  18.388  0.00  0.00    -0.084 Cl
ENDROOT
BRANCH   6   8
HETATM    8  N   UNK N   1      36.429  12.735  14.679  0.00  0.00    -0.378 N 
HETATM    9  C   UNK N   1      37.234  11.768  13.965  0.00  0.00     0.142 A 
HETATM   10  C   UNK N   1      37.648  12.100  12.539  0.00  0.00     0.133 A 
HETATM   11  N   UNK N   1      37.230  13.363  11.935  0.00  0.00    -0.418 N 
HETATM   12  C   UNK N   1      36.418  14.315  12.683  0.00  0.00     0.133 A 
HETATM   13  H   UNK N   1      37.509  13.581  10.978  0.00  0.00     0.153 HD
HETATM   14  C   UNK N   1      36.003  13.990  14.106  0.00  0.00     0.142 A 
ENDBRANCH   6   8
TORSDOF 1
ENDMDL
MODEL 7
REMARK VINA RESULT:      -4.8     12.540     13.880
REMARK  1 active torsions:
REMARK  status: ('A' for Active; 'I' for Inactive)
REMARK    1  A    between atoms: N_13  and  C_10 
ROOT
HETATM    1  C   UNK N   1      24.340  11.996  11.461  0.00  0.00     0.004 A 
HETATM    2  C   UNK N   1      23.014  11.867  11.886  0.00  0.00     0.024 A 
HETATM    3  C   UNK N   1      24.625  12.594  10.229  0.00  0.00     0.029 A 
HETATM    4  C   UNK N   1      22.258  12.930   9.854  0.00  0.00     0.053 A 
HETATM    5  C   UNK N   1      21.974  12.335  11.080  0.00  0.00     0.036 A 
HETATM    6  C   UNK N   1      23.584  13.069   9.411  0.00  0.00     0.031 A 
HETATM    7 Cl   UNK N   1      20.312  12.180  11.598  0.00  0.00    -0.084 Cl
ENDROOT
BRANCH   6   8
HETATM    8  N   UNK N   1      23.855  13.683   8.148  0.00  0.00    -0.378 N 
HETATM    9  C   UNK N   1      25.210  13.659   7.642  0.00  0.00     0.142 A 
HETATM   10  C   UNK N   1      25.481  14.317   6.298  0.00  0.00     0.133 A 
HETATM   11  N   UNK N   1      24.386  14.947   5.562  0.00  0.00    -0.418 N 
HETATM   12  C   UNK N   1      23.031  14.953   6.102  0.00  0.00     0.133 A 
HETATM   13  H   UNK N   1      24.572  15.387   4.661  0.00  0.00     0.153 HD
HETATM   14  C   UNK N   1      22.756  14.298   7.442  0.00  0.00     0.142 A 
ENDBRANCH   6   8
TORSDOF 1
ENDMDL
MODEL 8
REMARK VINA RESULT:      -4.8     11.191     12.181
REMARK  1 active torsions:
REMARK  status: ('A' for Active; 'I' for Inactive)
REMARK    1  A    between atoms: N_13  and  C_10 
ROOT
HETATM    1  C   UNK N   1      32.763  17.200   4.859  0.00  0.00     0.004 A 
HETATM    2  C   UNK N   1      33.760  17.557   5.773  0.00  0.00     0.024 A 
HETATM    3  C   UNK N   1      31.443  17.036   5.293  0.00  0.00     0.029 A 
HETATM    4  C   UNK N   1      32.124  17.586   7.549  0.00  0.00     0.053 A 
HETATM    5  C   UNK N   1      33.438  17.749   7.118  0.00  0.00     0.036 A 
HETATM    6  C   UNK N   1      31.110  17.227   6.645  0.00  0.00     0.031 A 
HETATM    7 Cl   UNK N   1      34.674  18.196   8.271  0.00  0.00    -0.084 Cl
ENDROOT
BRANCH   6   8
HETATM    8  N   UNK N   1      29.766  17.064   7.108  0.00  0.00    -0.378 N 
HETATM    9  C   UNK N   1      28.793  16.471   6.217  0.00  0.00     0.142 A 
HETATM   10  C   UNK N   1      27.369  16.304   6.725  0.00  0.00     0.133 A 
HETATM   11  N   UNK N   1      27.024  16.739   8.076  0.00  0.00    -0.418 N 
HETATM   12  C   UNK N   1      28.029  17.334   8.949  0.00  0.00     0.133 A 
HETATM   13  H   UNK N   1      26.067  16.626   8.413  0.00  0.00     0.153 HD
HETATM   14  C   UNK N   1      29.451  17.502   8.447  0.00  0.00     0.142 A 
ENDBRANCH   6   8
TORSDOF 1
ENDMDL
MODEL 9
REMARK VINA RESULT:      -4.7      6.883      9.608
REMARK  1 active torsions:
REMARK  status: ('A' for Active; 'I' for Inactive)
REMARK    1  A    between atoms: N_13  and  C_10 
ROOT
HETATM    1  C   UNK N   1      33.832  18.148   7.981  0.00  0.00     0.004 A 
HETATM    2  C   UNK N   1      33.747  17.556   6.716  0.00  0.00     0.024 A 
HETATM    3  C   UNK N   1      34.454  17.466   9.032  0.00  0.00     0.029 A 
HETATM    4  C   UNK N   1      34.901  15.605   7.550  0.00  0.00     0.053 A 
HETATM    5  C   UNK N   1      34.283  16.284   6.504  0.00  0.00     0.036 A 
HETATM    6  C   UNK N   1      34.996  16.185   8.827  0.00  0.00     0.031 A 
HETATM    7 Cl   UNK N   1      34.184  15.532   4.929  0.00  0.00    -0.084 Cl
ENDROOT
BRANCH   6   8
HETATM    8  N   UNK N   1      35.635  15.472   9.889  0.00  0.00    -0.378 N 
HETATM    9  C   UNK N   1      35.318  15.830  11.254  0.00  0.00     0.142 A 
HETATM   10  C   UNK N   1      36.007  15.062  12.371  0.00  0.00     0.133 A 
HETATM   11  N   UNK N   1      36.955  13.999  12.046  0.00  0.00    -0.418 N 
HETATM   12  C   UNK N   1      37.252  13.662  10.658  0.00  0.00     0.133 A 
HETATM   13  H   UNK N   1      37.415  13.486  12.799  0.00  0.00     0.153 HD
HETATM   14  C   UNK N   1      36.568  14.426   9.540  0.00  0.00     0.142 A 
ENDBRANCH   6   8
TORSDOF 1
ENDMDL
