REMARK  4 active torsions:
REMARK  status: ('A' for Active; 'I' for Inactive)
REMARK    1  A    between atoms: C_6  and  C_7 
REMARK    2  A    between atoms: C_7  and  C_8 
REMARK       I    between atoms: N_11  and  C_14 
REMARK    3  A    between atoms: C_14  and  C_16 
REMARK       I    between atoms: C_16  and  N_18 
REMARK    4  A    between atoms: N_18  and  C_19 
ROOT
HETATM    1  C   UNK N   1       4.450   6.950  -0.966  0.00  0.00    -0.007 C 
HETATM    2  C   UNK N   1       5.808   6.539  -1.582  0.00  0.00     0.025 C 
HETATM    3  C   UNK N   1       6.562   5.539  -0.699  0.00  0.00     0.126 C 
HETATM    4  N   UNK N   1       5.669   4.445  -0.410  0.00  0.00    -0.344 N 
HETATM    5  C   UNK N   1       4.430   4.754   0.275  0.00  0.00     0.126 C 
HETATM    6  C   UNK N   1       3.620   5.715  -0.603  0.00  0.00     0.025 C 
HETATM    7  C   UNK N   1       5.872   3.224  -0.982  0.00  0.00     0.311 C 
HETATM    8  O   UNK N   1       6.840   3.036  -1.706  0.00  0.00    -0.262 OA
ENDROOT
BRANCH   7   9
HETATM    9  C   UNK N   1       4.828   2.195  -0.904  0.00  0.00     0.314 C 
HETATM   10  O   UNK N   1       4.246   1.873  -1.930  0.00  0.00    -0.262 OA
HETATM   11  N   UNK N   1       4.444   1.688   0.295  0.00  0.00    -0.319 N 
HETATM   12  H   UNK N   1       5.026   1.793   1.081  0.00  0.00     0.169 HD
BRANCH  11  13
HETATM   13  C   UNK N   1       3.212   1.010   0.419  0.00  0.00     0.037 A 
HETATM   14  C   UNK N   1       3.149  -0.366   0.762  0.00  0.00     0.032 A 
HETATM   15  C   UNK N   1       1.896  -1.018   0.841  0.00  0.00     0.035 A 
HETATM   16  C   UNK N   1       0.757  -0.253   0.587  0.00  0.00     0.071 A 
HETATM   17  C   UNK N   1       0.835   1.071   0.275  0.00  0.00     0.110 A 
HETATM   18  N   UNK N   1      -0.532  -0.631   0.606  0.00  0.00    -0.300 N 
HETATM   19  C   UNK N   1       2.035   1.736   0.173  0.00  0.00     0.069 A 
HETATM   20  O   UNK N   1      -0.369   1.540   0.101  0.00  0.00    -0.259 OA
HETATM   21  C   UNK N   1      -1.191   0.530   0.296  0.00  0.00     0.370 A 
HETATM   22  O   UNK N   1      -2.400   0.620   0.212  0.00  0.00    -0.238 OA
HETATM   23  H   UNK N   1      -0.910  -1.521   0.794  0.00  0.00     0.171 HD
ENDBRANCH  11  13
ENDBRANCH   7   9
BRANCH   1  24
HETATM   24  C   UNK N   1       4.525   7.882   0.252  0.00  0.00     0.043 C 
BRANCH  24  25
HETATM   25  C   UNK N   1       5.741   8.743   0.276  0.00  0.00    -0.058 A 
HETATM   26  C   UNK N   1       6.931   8.222   0.794  0.00  0.00     0.010 A 
HETATM   27  C   UNK N   1       8.091   8.992   0.801  0.00  0.00     0.043 A 
HETATM   28  C   UNK N   1       8.064  10.293   0.298  0.00  0.00     0.116 A 
HETATM   29  C   UNK N   1       6.872  10.827  -0.207  0.00  0.00     0.043 A 
HETATM   30  F   UNK N   1       9.195  11.037   0.302  0.00  0.00    -0.206 F 
HETATM   31  C   UNK N   1       5.707  10.051  -0.219  0.00  0.00     0.010 A 
ENDBRANCH  24  25
ENDBRANCH   1  24
TORSDOF 4
