REMARK  3 active torsions:
REMARK  status: ('A' for Active; 'I' for Inactive)
REMARK    1  A    between atoms: C_19  and  C_20 
REMARK    2  A    between atoms: C_20  and  C_22 
REMARK    3  A    between atoms: C_22  and  O_23 
ROOT
HETATM    1  C   UNK N   1       6.289   0.136  -2.039  0.00  0.00     0.025 C 
HETATM    2  C   UNK N   1       5.744   0.155  -0.615  0.00  0.00     0.003 C 
HETATM    3  C   UNK N   1       6.511  -0.881   0.232  0.00  0.00     0.026 C 
HETATM    4  C   UNK N   1       7.994  -0.537   0.414  0.00  0.00     0.084 C 
HETATM    5  C   UNK N   1       8.210   0.923   0.701  0.00  0.00     0.149 C 
HETATM    6  O   UNK N   1       9.308   1.309   1.060  0.00  0.00    -0.293 OA
HETATM    7  C   UNK N   1       7.119   1.901   0.522  0.00  0.00     0.054 C 
HETATM    8  C   UNK N   1       5.949   1.552  -0.033  0.00  0.00    -0.064 C 
HETATM    9  C   UNK N   1       4.929   2.636  -0.261  0.00  0.00     0.036 C 
HETATM   10  C   UNK N   1       3.956   2.257  -1.377  0.00  0.00     0.014 C 
HETATM   11  C   UNK N   1       3.256   0.926  -1.091  0.00  0.00     0.020 C 
HETATM   12  C   UNK N   1       4.248  -0.150  -0.670  0.00  0.00    -0.067 C 
HETATM   13  C   UNK N   1       3.744  -1.318  -0.218  0.00  0.00    -0.022 C 
HETATM   14  C   UNK N   1       2.251  -1.521  -0.218  0.00  0.00     0.040 C 
HETATM   15  C   UNK N   1       1.524  -0.279   0.354  0.00  0.00     0.002 C 
HETATM   16  C   UNK N   1       2.251   1.052   0.065  0.00  0.00     0.006 C 
HETATM   17  C   UNK N   1       1.158   2.100  -0.158  0.00  0.00     0.009 C 
HETATM   18  C   UNK N   1      -0.163   1.380   0.091  0.00  0.00     0.047 C 
HETATM   19  C   UNK N   1       0.129  -0.065  -0.276  0.00  0.00     0.128 C 
HETATM   20  O   UNK N   1       0.222  -0.140  -1.673  0.00  0.00    -0.381 OA
HETATM   21  C   UNK N   1       1.459  -0.399   1.877  0.00  0.00     0.019 C 
HETATM   22  H   UNK N   1       0.209  -0.222  -2.639  0.00  0.00     0.211 HD
ENDROOT
BRANCH  19  23
HETATM   23  C   UNK N   1      -0.966  -1.017   0.178  0.00  0.00     0.184 C 
HETATM   24  O   UNK N   1      -0.709  -1.961   0.908  0.00  0.00    -0.292 OA
BRANCH  23  25
HETATM   25  C   UNK N   1      -2.376  -0.838  -0.294  0.00  0.00     0.245 C 
BRANCH  25  26
HETATM   26  O   UNK N   1      -2.915   0.340   0.226  0.00  0.00    -0.393 OA
HETATM   27  H   UNK N   1      -2.393   1.074   0.587  0.00  0.00     0.209 HD
ENDBRANCH  25  26
ENDBRANCH  23  25
ENDBRANCH  19  23
TORSDOF 3
