REMARK  8 active torsions:
REMARK  status: ('A' for Active; 'I' for Inactive)
REMARK    1  A    between atoms: N_4  and  C_9 
REMARK    2  A    between atoms: C_12  and  C_15 
REMARK       I    between atoms: C_15  and  N_17 
REMARK    3  A    between atoms: N_17  and  C_18 
REMARK    4  A    between atoms: C_20  and  C_24 
REMARK    5  A    between atoms: C_24  and  C_25 
REMARK    6  A    between atoms: C_25  and  C_26 
REMARK    7  A    between atoms: C_28  and  O_34 
REMARK    8  A    between atoms: C_30  and  O_32 
ROOT
HETATM    1  C   UNK N   1      -1.783  -3.376   0.011  0.00  0.00     0.124 A 
HETATM    2  C   UNK N   1      -0.470  -2.953   0.164  0.00  0.00     0.076 A 
HETATM    3  C   UNK N   1       0.235  -4.156   0.261  0.00  0.00     0.029 A 
HETATM    4  N   UNK N   1      -0.613  -5.193   0.177  0.00  0.00    -0.303 N 
HETATM    5  N   UNK N   1      -1.831  -4.722   0.025  0.00  0.00    -0.285 N 
ATOM      6  HN  UNK N   1      -2.676  -5.285  -0.068  1.00  0.00     0.188 HD
HETATM    7  H   UNK N   1      -0.365  -6.145   0.222  0.00  0.00     0.186 HD
ENDROOT
BRANCH   1   8
HETATM    8  N   UNK N   1      -2.981  -2.629  -0.119  0.00  0.00    -0.308 N 
HETATM    9  C   UNK N   1      -3.419  -1.339  -0.155  0.00  0.00     0.257 C 
HETATM   10  O   UNK N   1      -4.629  -1.191  -0.249  0.00  0.00    -0.267 OA
HETATM   11  H   UNK N   1      -3.745  -3.242  -0.214  0.00  0.00     0.170 HD
BRANCH   9  12
HETATM   12  C   UNK N   1      -2.604  -0.081  -0.073  0.00  0.00     0.032 A 
HETATM   13  C   UNK N   1      -1.199   0.012  -0.029  0.00  0.00     0.019 A 
HETATM   14  C   UNK N   1      -0.574   1.285   0.066  0.00  0.00     0.030 A 
HETATM   15  C   UNK N   1      -1.354   2.466   0.126  0.00  0.00     0.030 A 
HETATM   16  C   UNK N   1      -2.742   2.347   0.067  0.00  0.00     0.030 A 
HETATM   17  C   UNK N   1      -3.345   1.109  -0.036  0.00  0.00     0.019 A 
BRANCH  15  18
HETATM   18  N   UNK N   1      -0.785   3.770   0.308  0.00  0.00    -0.377 N 
HETATM   19  C   UNK N   1       0.643   3.996   0.384  0.00  0.00     0.147 C 
HETATM   20  C   UNK N   1       1.008   5.261  -0.418  0.00  0.00     0.091 C 
HETATM   21  C   UNK N   1       2.453   5.628  -0.149  0.00  0.00     0.033 C 
HETATM   22  N   UNK N   1       0.157   6.393  -0.037  0.00  0.00    -0.411 N 
HETATM   23  C   UNK N   1      -1.235   6.062  -0.334  0.00  0.00     0.091 C 
HETATM   24  H   UNK N   1       0.483   7.269   0.370  0.00  0.00     0.154 HD
HETATM   25  C   UNK N   1      -1.658   4.903   0.550  0.00  0.00     0.147 C 
HETATM   26  C   UNK N   1      -2.118   7.258  -0.041  0.00  0.00     0.033 C 
ENDBRANCH  15  18
ENDBRANCH   9  12
ENDBRANCH   1   8
BRANCH   3  27
HETATM   27  C   UNK N   1       1.704  -4.340   0.452  0.00  0.00     0.063 C 
BRANCH  27  28
HETATM   28  C   UNK N   1       2.309  -5.139  -0.703  0.00  0.00     0.045 C 
BRANCH  28  29
HETATM   29  C   UNK N   1       2.656  -6.563  -0.362  0.00  0.00    -0.052 A 
HETATM   30  C   UNK N   1       4.004  -6.923  -0.260  0.00  0.00     0.044 A 
HETATM   31  C   UNK N   1       4.377  -8.251  -0.028  0.00  0.00     0.071 A 
HETATM   32  C   UNK N   1       3.382  -9.235   0.086  0.00  0.00     0.073 A 
HETATM   33  C   UNK N   1       2.023  -8.894  -0.026  0.00  0.00     0.071 A 
HETATM   34  C   UNK N   1       1.666  -7.553  -0.249  0.00  0.00     0.044 A 
BRANCH  31  35
HETATM   35  O   UNK N   1       5.693  -8.558   0.065  0.00  0.00    -0.356 OA
HETATM   36  C   UNK N   1       6.158  -9.840   0.251  0.00  0.00     0.210 C 
ENDBRANCH  31  35
BRANCH  33  37
HETATM   37  O   UNK N   1       1.052  -9.836   0.058  0.00  0.00    -0.356 OA
HETATM   38  C   UNK N   1       1.318 -11.180   0.215  0.00  0.00     0.210 C 
ENDBRANCH  33  37
ENDBRANCH  28  29
ENDBRANCH  27  28
ENDBRANCH   3  27
TORSDOF 8
