MODEL 1
REMARK VINA RESULT:      -6.1      0.000      0.000
REMARK  11 active torsions:
REMARK  status: ('A' for Active; 'I' for Inactive)
REMARK    1  A    between atoms: C_3  and  C_14 
REMARK    2  A    between atoms: C_4  and  O_13 
REMARK    3  A    between atoms: C_5  and  O_11 
REMARK    4  A    between atoms: C_6  and  O_9 
REMARK    5  A    between atoms: C_14  and  C_15 
REMARK    6  A    between atoms: C_16  and  C_18 
REMARK    7  A    between atoms: C_18  and  C_19 
REMARK    8  A    between atoms: C_19  and  C_20 
REMARK    9  A    between atoms: C_21  and  C_23 
REMARK   10  A    between atoms: C_23  and  C_24 
REMARK   11  A    between atoms: C_24  and  C_25 
ROOT
HETATM    1  C   UNK N   1      32.203  15.810   7.304  0.00  0.00     0.035 C 
ENDROOT
BRANCH   1   2
HETATM    2  C   UNK N   1      32.911  15.747   8.653  0.00  0.00     0.035 C 
HETATM    3  C   UNK N   1      34.133  16.648   8.589  0.00  0.00     0.066 C 
HETATM    4  C   UNK N   1      33.736  18.113   8.413  0.00  0.00     0.018 C 
HETATM    5  C   UNK N   1      34.998  16.457   9.800  0.00  0.00     0.189 C 
HETATM    6  C   UNK N   1      35.227  15.076  10.332  0.00  0.00     0.146 C 
HETATM    7  O   UNK N   1      35.554  17.422  10.310  0.00  0.00    -0.290 OA
HETATM    8  C   UNK N   1      34.439  14.048   9.886  0.00  0.00     0.111 C 
HETATM    9  C   UNK N   1      33.308  14.286   8.900  0.00  0.00     0.182 C 
BRANCH   6  10
HETATM   10  O   UNK N   1      36.211  14.824  11.239  0.00  0.00    -0.350 OA
HETATM   11  C   UNK N   1      36.038  14.743  12.602  0.00  0.00     0.210 C 
ENDBRANCH   6  10
BRANCH   8  12
HETATM   12  O   UNK N   1      34.617  12.751  10.283  0.00  0.00    -0.355 OA
HETATM   13  C   UNK N   1      35.287  11.761   9.603  0.00  0.00     0.209 C 
ENDBRANCH   8  12
BRANCH   9  14
HETATM   14  O   UNK N   1      32.173  13.580   9.308  0.00  0.00    -0.388 OA
HETATM   15  H   UNK N   1      31.617  13.677  10.097  0.00  0.00     0.210 HD
ENDBRANCH   9  14
ENDBRANCH   1   2
BRANCH   1  16
HETATM   16  C   UNK N   1      32.915  15.054   6.223  0.00  0.00    -0.024 C 
HETATM   17  C   UNK N   1      33.464  15.672   5.168  0.00  0.00    -0.087 C 
HETATM   18  C   UNK N   1      34.196  14.860   4.156  0.00  0.00     0.043 C 
BRANCH  17  19
HETATM   19  C   UNK N   1      33.358  17.155   4.961  0.00  0.00     0.037 C 
BRANCH  19  20
HETATM   20  C   UNK N   1      32.374  17.486   3.852  0.00  0.00     0.031 C 
BRANCH  20  21
HETATM   21  C   UNK N   1      31.012  17.615   4.438  0.00  0.00    -0.024 C 
HETATM   22  C   UNK N   1      30.031  16.781   4.090  0.00  0.00    -0.087 C 
HETATM   23  C   UNK N   1      30.265  15.681   3.097  0.00  0.00     0.043 C 
BRANCH  22  24
HETATM   24  C   UNK N   1      28.691  16.930   4.728  0.00  0.00     0.037 C 
BRANCH  24  25
HETATM   25  C   UNK N   1      28.734  18.057   5.743  0.00  0.00     0.031 C 
BRANCH  25  26
HETATM   26  C   UNK N   1      28.093  17.605   7.015  0.00  0.00    -0.024 C 
HETATM   27  C   UNK N   1      28.674  17.764   8.209  0.00  0.00    -0.091 C 
HETATM   28  C   UNK N   1      27.964  17.289   9.428  0.00  0.00     0.042 C 
HETATM   29  C   UNK N   1      30.024  18.392   8.355  0.00  0.00     0.042 C 
ENDBRANCH  25  26
ENDBRANCH  24  25
ENDBRANCH  22  24
ENDBRANCH  20  21
ENDBRANCH  19  20
ENDBRANCH  17  19
ENDBRANCH   1  16
TORSDOF 11
ENDMDL
MODEL 2
REMARK VINA RESULT:      -6.0     12.955     15.800
REMARK  11 active torsions:
REMARK  status: ('A' for Active; 'I' for Inactive)
REMARK    1  A    between atoms: C_3  and  C_14 
REMARK    2  A    between atoms: C_4  and  O_13 
REMARK    3  A    between atoms: C_5  and  O_11 
REMARK    4  A    between atoms: C_6  and  O_9 
REMARK    5  A    between atoms: C_14  and  C_15 
REMARK    6  A    between atoms: C_16  and  C_18 
REMARK    7  A    between atoms: C_18  and  C_19 
REMARK    8  A    between atoms: C_19  and  C_20 
REMARK    9  A    between atoms: C_21  and  C_23 
REMARK   10  A    between atoms: C_23  and  C_24 
REMARK   11  A    between atoms: C_24  and  C_25 
ROOT
HETATM    1  C   UNK N   1      28.894  23.487  -4.634  0.00  0.00     0.035 C 
ENDROOT
BRANCH   1   2
HETATM    2  C   UNK N   1      29.851  22.328  -4.374  0.00  0.00     0.035 C 
HETATM    3  C   UNK N   1      30.866  22.775  -3.334  0.00  0.00     0.066 C 
HETATM    4  C   UNK N   1      30.198  23.053  -1.989  0.00  0.00     0.018 C 
HETATM    5  C   UNK N   1      31.969  21.768  -3.201  0.00  0.00     0.189 C 
HETATM    6  C   UNK N   1      32.529  21.120  -4.429  0.00  0.00     0.146 C 
HETATM    7  O   UNK N   1      32.440  21.523  -2.097  0.00  0.00    -0.290 OA
HETATM    8  C   UNK N   1      31.857  21.244  -5.616  0.00  0.00     0.111 C 
HETATM    9  C   UNK N   1      30.532  21.982  -5.704  0.00  0.00     0.182 C 
BRANCH   6  10
HETATM   10  O   UNK N   1      33.699  20.424  -4.388  0.00  0.00    -0.350 OA
HETATM   11  C   UNK N   1      33.814  19.070  -4.173  0.00  0.00     0.210 C 
ENDBRANCH   6  10
BRANCH   8  12
HETATM   12  O   UNK N   1      32.327  20.727  -6.792  0.00  0.00    -0.355 OA
HETATM   13  C   UNK N   1      33.032  21.394  -7.767  0.00  0.00     0.209 C 
ENDBRANCH   8  12
BRANCH   9  14
HETATM   14  O   UNK N   1      29.636  21.246  -6.484  0.00  0.00    -0.388 OA
HETATM   15  H   UNK N   1      28.925  20.639  -6.228  0.00  0.00     0.210 HD
ENDBRANCH   9  14
ENDBRANCH   1   2
BRANCH   1  16
HETATM   16  C   UNK N   1      29.369  24.420  -5.705  0.00  0.00    -0.024 C 
HETATM   17  C   UNK N   1      29.835  25.646  -5.425  0.00  0.00    -0.087 C 
HETATM   18  C   UNK N   1      30.332  26.502  -6.538  0.00  0.00     0.043 C 
BRANCH  17  19
HETATM   19  C   UNK N   1      29.863  26.193  -4.028  0.00  0.00     0.037 C 
BRANCH  19  20
HETATM   20  C   UNK N   1      29.273  27.592  -3.974  0.00  0.00     0.031 C 
BRANCH  20  21
HETATM   21  C   UNK N   1      27.800  27.487  -3.785  0.00  0.00    -0.024 C 
HETATM   22  C   UNK N   1      26.953  28.041  -4.655  0.00  0.00    -0.087 C 
HETATM   23  C   UNK N   1      27.456  28.786  -5.857  0.00  0.00     0.043 C 
BRANCH  22  24
HETATM   24  C   UNK N   1      25.486  27.882  -4.441  0.00  0.00     0.037 C 
BRANCH  24  25
HETATM   25  C   UNK N   1      24.856  27.266  -5.675  0.00  0.00     0.031 C 
BRANCH  25  26
HETATM   26  C   UNK N   1      25.100  25.792  -5.676  0.00  0.00    -0.024 C 
HETATM   27  C   UNK N   1      25.738  25.167  -6.672  0.00  0.00    -0.091 C 
HETATM   28  C   UNK N   1      25.943  23.696  -6.589  0.00  0.00     0.042 C 
HETATM   29  C   UNK N   1      26.239  25.903  -7.874  0.00  0.00     0.042 C 
ENDBRANCH  25  26
ENDBRANCH  24  25
ENDBRANCH  22  24
ENDBRANCH  20  21
ENDBRANCH  19  20
ENDBRANCH  17  19
ENDBRANCH   1  16
TORSDOF 11
ENDMDL
MODEL 3
REMARK VINA RESULT:      -5.8      8.809     11.718
REMARK  11 active torsions:
REMARK  status: ('A' for Active; 'I' for Inactive)
REMARK    1  A    between atoms: C_3  and  C_14 
REMARK    2  A    between atoms: C_4  and  O_13 
REMARK    3  A    between atoms: C_5  and  O_11 
REMARK    4  A    between atoms: C_6  and  O_9 
REMARK    5  A    between atoms: C_14  and  C_15 
REMARK    6  A    between atoms: C_16  and  C_18 
REMARK    7  A    between atoms: C_18  and  C_19 
REMARK    8  A    between atoms: C_19  and  C_20 
REMARK    9  A    between atoms: C_21  and  C_23 
REMARK   10  A    between atoms: C_23  and  C_24 
REMARK   11  A    between atoms: C_24  and  C_25 
ROOT
HETATM    1  C   UNK N   1      22.637  14.888   4.618  0.00  0.00     0.035 C 
ENDROOT
BRANCH   1   2
HETATM    2  C   UNK N   1      21.533  15.565   5.424  0.00  0.00     0.035 C 
HETATM    3  C   UNK N   1      22.068  16.890   5.941  0.00  0.00     0.066 C 
HETATM    4  C   UNK N   1      22.373  17.852   4.794  0.00  0.00     0.018 C 
HETATM    5  C   UNK N   1      21.115  17.499   6.928  0.00  0.00     0.189 C 
HETATM    6  C   UNK N   1      20.441  16.624   7.939  0.00  0.00     0.146 C 
HETATM    7  O   UNK N   1      20.939  18.711   6.936  0.00  0.00    -0.290 OA
HETATM    8  C   UNK N   1      20.485  15.264   7.780  0.00  0.00     0.111 C 
HETATM    9  C   UNK N   1      21.160  14.626   6.579  0.00  0.00     0.182 C 
BRANCH   6  10
HETATM   10  O   UNK N   1      19.799  17.155   9.015  0.00  0.00    -0.350 OA
HETATM   11  C   UNK N   1      18.455  17.441   9.081  0.00  0.00     0.210 C 
ENDBRANCH   6  10
BRANCH   8  12
HETATM   12  O   UNK N   1      19.939  14.394   8.685  0.00  0.00    -0.355 OA
HETATM   13  C   UNK N   1      20.551  13.864   9.797  0.00  0.00     0.209 C 
ENDBRANCH   8  12
BRANCH   9  14
HETATM   14  O   UNK N   1      20.354  13.601   6.076  0.00  0.00    -0.388 OA
HETATM   15  H   UNK N   1      19.548  13.197   6.433  0.00  0.00     0.210 HD
ENDBRANCH   9  14
ENDBRANCH   1   2
BRANCH   1  16
HETATM   16  C   UNK N   1      23.801  14.452   5.455  0.00  0.00    -0.024 C 
HETATM   17  C   UNK N   1      25.053  14.852   5.194  0.00  0.00    -0.087 C 
HETATM   18  C   UNK N   1      26.154  14.414   6.096  0.00  0.00     0.043 C 
BRANCH  17  19
HETATM   19  C   UNK N   1      25.389  15.720   4.016  0.00  0.00     0.037 C 
BRANCH  19  20
HETATM   20  C   UNK N   1      26.022  14.907   2.899  0.00  0.00     0.031 C 
BRANCH  20  21
HETATM   21  C   UNK N   1      25.068  14.828   1.760  0.00  0.00    -0.024 C 
HETATM   22  C   UNK N   1      24.414  13.698   1.486  0.00  0.00    -0.087 C 
HETATM   23  C   UNK N   1      24.615  12.466   2.320  0.00  0.00     0.043 C 
BRANCH  22  24
HETATM   24  C   UNK N   1      23.444  13.676   0.354  0.00  0.00     0.037 C 
BRANCH  24  25
HETATM   25  C   UNK N   1      22.028  13.688   0.897  0.00  0.00     0.031 C 
BRANCH  25  26
HETATM   26  C   UNK N   1      21.578  15.101   1.083  0.00  0.00    -0.024 C 
HETATM   27  C   UNK N   1      20.481  15.422   1.778  0.00  0.00    -0.091 C 
HETATM   28  C   UNK N   1      20.108  16.856   1.918  0.00  0.00     0.042 C 
HETATM   29  C   UNK N   1      19.610  14.381   2.405  0.00  0.00     0.042 C 
ENDBRANCH  25  26
ENDBRANCH  24  25
ENDBRANCH  22  24
ENDBRANCH  20  21
ENDBRANCH  19  20
ENDBRANCH  17  19
ENDBRANCH   1  16
TORSDOF 11
ENDMDL
MODEL 4
REMARK VINA RESULT:      -5.6     13.516     16.591
REMARK  11 active torsions:
REMARK  status: ('A' for Active; 'I' for Inactive)
REMARK    1  A    between atoms: C_3  and  C_14 
REMARK    2  A    between atoms: C_4  and  O_13 
REMARK    3  A    between atoms: C_5  and  O_11 
REMARK    4  A    between atoms: C_6  and  O_9 
REMARK    5  A    between atoms: C_14  and  C_15 
REMARK    6  A    between atoms: C_16  and  C_18 
REMARK    7  A    between atoms: C_18  and  C_19 
REMARK    8  A    between atoms: C_19  and  C_20 
REMARK    9  A    between atoms: C_21  and  C_23 
REMARK   10  A    between atoms: C_23  and  C_24 
REMARK   11  A    between atoms: C_24  and  C_25 
ROOT
HETATM    1  C   UNK N   1      28.088  24.443  -4.339  0.00  0.00     0.035 C 
ENDROOT
BRANCH   1   2
HETATM    2  C   UNK N   1      29.264  23.476  -4.426  0.00  0.00     0.035 C 
HETATM    3  C   UNK N   1      30.003  23.508  -3.098  0.00  0.00     0.066 C 
HETATM    4  C   UNK N   1      29.130  22.975  -1.963  0.00  0.00     0.018 C 
HETATM    5  C   UNK N   1      31.298  22.755  -3.193  0.00  0.00     0.189 C 
HETATM    6  C   UNK N   1      32.145  22.896  -4.419  0.00  0.00     0.146 C 
HETATM    7  O   UNK N   1      31.678  22.077  -2.247  0.00  0.00    -0.290 OA
HETATM    8  C   UNK N   1      31.610  23.480  -5.537  0.00  0.00     0.111 C 
HETATM    9  C   UNK N   1      30.165  23.944  -5.577  0.00  0.00     0.182 C 
BRANCH   6  10
HETATM   10  O   UNK N   1      33.437  22.467  -4.437  0.00  0.00    -0.350 OA
HETATM   11  C   UNK N   1      33.854  21.208  -4.805  0.00  0.00     0.210 C 
ENDBRANCH   6  10
BRANCH   8  12
HETATM   12  O   UNK N   1      32.333  23.692  -6.680  0.00  0.00    -0.355 OA
HETATM   13  C   UNK N   1      32.951  24.859  -7.064  0.00  0.00     0.209 C 
ENDBRANCH   8  12
BRANCH   9  14
HETATM   14  O   UNK N   1      29.580  23.556  -6.785  0.00  0.00    -0.388 OA
HETATM   15  H   UNK N   1      29.881  23.671  -7.700  0.00  0.00     0.210 HD
ENDBRANCH   9  14
ENDBRANCH   1   2
BRANCH   1  16
HETATM   16  C   UNK N   1      28.497  25.849  -4.023  0.00  0.00    -0.024 C 
HETATM   17  C   UNK N   1      27.603  26.842  -3.913  0.00  0.00    -0.087 C 
HETATM   18  C   UNK N   1      28.079  28.207  -3.552  0.00  0.00     0.043 C 
BRANCH  17  19
HETATM   19  C   UNK N   1      26.137  26.631  -4.153  0.00  0.00     0.037 C 
BRANCH  19  20
HETATM   20  C   UNK N   1      25.647  27.462  -5.327  0.00  0.00     0.031 C 
BRANCH  20  21
HETATM   21  C   UNK N   1      25.746  26.648  -6.569  0.00  0.00    -0.024 C 
HETATM   22  C   UNK N   1      26.695  26.889  -7.476  0.00  0.00    -0.087 C 
HETATM   23  C   UNK N   1      27.698  27.987  -7.274  0.00  0.00     0.043 C 
BRANCH  22  24
HETATM   24  C   UNK N   1      26.773  26.027  -8.690  0.00  0.00     0.037 C 
BRANCH  24  25
HETATM   25  C   UNK N   1      25.740  24.920  -8.596  0.00  0.00     0.031 C 
BRANCH  25  26
HETATM   26  C   UNK N   1      26.415  23.595  -8.743  0.00  0.00    -0.024 C 
HETATM   27  C   UNK N   1      26.376  22.657  -7.791  0.00  0.00    -0.091 C 
HETATM   28  C   UNK N   1      27.072  21.362  -8.022  0.00  0.00     0.042 C 
HETATM   29  C   UNK N   1      25.665  22.876  -6.493  0.00  0.00     0.042 C 
ENDBRANCH  25  26
ENDBRANCH  24  25
ENDBRANCH  22  24
ENDBRANCH  20  21
ENDBRANCH  19  20
ENDBRANCH  17  19
ENDBRANCH   1  16
TORSDOF 11
ENDMDL
MODEL 5
REMARK VINA RESULT:      -5.6     13.257     16.176
REMARK  11 active torsions:
REMARK  status: ('A' for Active; 'I' for Inactive)
REMARK    1  A    between atoms: C_3  and  C_14 
REMARK    2  A    between atoms: C_4  and  O_13 
REMARK    3  A    between atoms: C_5  and  O_11 
REMARK    4  A    between atoms: C_6  and  O_9 
REMARK    5  A    between atoms: C_14  and  C_15 
REMARK    6  A    between atoms: C_16  and  C_18 
REMARK    7  A    between atoms: C_18  and  C_19 
REMARK    8  A    between atoms: C_19  and  C_20 
REMARK    9  A    between atoms: C_21  and  C_23 
REMARK   10  A    between atoms: C_23  and  C_24 
REMARK   11  A    between atoms: C_24  and  C_25 
ROOT
HETATM    1  C   UNK N   1      27.840  24.011  -5.351  0.00  0.00     0.035 C 
ENDROOT
BRANCH   1   2
HETATM    2  C   UNK N   1      28.928  23.109  -4.777  0.00  0.00     0.035 C 
HETATM    3  C   UNK N   1      29.363  23.683  -3.439  0.00  0.00     0.066 C 
HETATM    4  C   UNK N   1      28.226  23.639  -2.419  0.00  0.00     0.018 C 
HETATM    5  C   UNK N   1      30.584  22.977  -2.929  0.00  0.00     0.189 C 
HETATM    6  C   UNK N   1      31.685  22.626  -3.881  0.00  0.00     0.146 C 
HETATM    7  O   UNK N   1      30.697  22.742  -1.732  0.00  0.00    -0.290 OA
HETATM    8  C   UNK N   1      31.452  22.702  -5.230  0.00  0.00     0.111 C 
HETATM    9  C   UNK N   1      30.090  23.089  -5.779  0.00  0.00     0.182 C 
BRANCH   6  10
HETATM   10  O   UNK N   1      32.912  22.246  -3.432  0.00  0.00    -0.350 OA
HETATM   11  C   UNK N   1      33.289  20.956  -3.135  0.00  0.00     0.210 C 
ENDBRANCH   6  10
BRANCH   8  12
HETATM   12  O   UNK N   1      32.418  22.449  -6.164  0.00  0.00    -0.355 OA
HETATM   13  C   UNK N   1      33.265  23.362  -6.749  0.00  0.00     0.209 C 
ENDBRANCH   8  12
BRANCH   9  14
HETATM   14  O   UNK N   1      29.751  22.239  -6.835  0.00  0.00    -0.388 OA
HETATM   15  H   UNK N   1      30.310  21.777  -7.480  0.00  0.00     0.210 HD
ENDBRANCH   9  14
ENDBRANCH   1   2
BRANCH   1  16
HETATM   16  C   UNK N   1      26.733  23.254  -6.019  0.00  0.00    -0.024 C 
HETATM   17  C   UNK N   1      26.362  23.505  -7.283  0.00  0.00    -0.087 C 
HETATM   18  C   UNK N   1      25.283  22.682  -7.896  0.00  0.00     0.043 C 
BRANCH  17  19
HETATM   19  C   UNK N   1      26.988  24.598  -8.100  0.00  0.00     0.037 C 
BRANCH  19  20
HETATM   20  C   UNK N   1      26.104  25.833  -8.134  0.00  0.00     0.031 C 
BRANCH  20  21
HETATM   21  C   UNK N   1      26.763  26.918  -7.358  0.00  0.00    -0.024 C 
HETATM   22  C   UNK N   1      26.233  27.371  -6.221  0.00  0.00    -0.087 C 
HETATM   23  C   UNK N   1      24.955  26.799  -5.681  0.00  0.00     0.043 C 
BRANCH  22  24
HETATM   24  C   UNK N   1      26.946  28.438  -5.462  0.00  0.00     0.037 C 
BRANCH  24  25
HETATM   25  C   UNK N   1      27.258  27.945  -4.062  0.00  0.00     0.031 C 
BRANCH  25  26
HETATM   26  C   UNK N   1      28.569  27.227  -4.067  0.00  0.00    -0.024 C 
HETATM   27  C   UNK N   1      29.676  27.747  -3.526  0.00  0.00    -0.091 C 
HETATM   28  C   UNK N   1      30.940  26.961  -3.571  0.00  0.00     0.042 C 
HETATM   29  C   UNK N   1      29.686  29.100  -2.890  0.00  0.00     0.042 C 
ENDBRANCH  25  26
ENDBRANCH  24  25
ENDBRANCH  22  24
ENDBRANCH  20  21
ENDBRANCH  19  20
ENDBRANCH  17  19
ENDBRANCH   1  16
TORSDOF 11
ENDMDL
MODEL 6
REMARK VINA RESULT:      -5.6      2.852      8.399
REMARK  11 active torsions:
REMARK  status: ('A' for Active; 'I' for Inactive)
REMARK    1  A    between atoms: C_3  and  C_14 
REMARK    2  A    between atoms: C_4  and  O_13 
REMARK    3  A    between atoms: C_5  and  O_11 
REMARK    4  A    between atoms: C_6  and  O_9 
REMARK    5  A    between atoms: C_14  and  C_15 
REMARK    6  A    between atoms: C_16  and  C_18 
REMARK    7  A    between atoms: C_18  and  C_19 
REMARK    8  A    between atoms: C_19  and  C_20 
REMARK    9  A    between atoms: C_21  and  C_23 
REMARK   10  A    between atoms: C_23  and  C_24 
REMARK   11  A    between atoms: C_24  and  C_25 
ROOT
HETATM    1  C   UNK N   1      33.813  14.400  10.215  0.00  0.00     0.035 C 
ENDROOT
BRANCH   1   2
HETATM    2  C   UNK N   1      33.763  15.030   8.827  0.00  0.00     0.035 C 
HETATM    3  C   UNK N   1      33.784  16.540   8.991  0.00  0.00     0.066 C 
HETATM    4  C   UNK N   1      35.103  17.016   9.600  0.00  0.00     0.018 C 
HETATM    5  C   UNK N   1      33.508  17.221   7.683  0.00  0.00     0.189 C 
HETATM    6  C   UNK N   1      32.450  16.673   6.776  0.00  0.00     0.146 C 
HETATM    7  O   UNK N   1      34.109  18.247   7.391  0.00  0.00    -0.290 OA
HETATM    8  C   UNK N   1      31.946  15.422   7.016  0.00  0.00     0.111 C 
HETATM    9  C   UNK N   1      32.468  14.560   8.151  0.00  0.00     0.182 C 
BRANCH   6  10
HETATM   10  O   UNK N   1      31.974  17.401   5.728  0.00  0.00    -0.350 OA
HETATM   11  C   UNK N   1      32.553  17.478   4.482  0.00  0.00     0.210 C 
ENDBRANCH   6  10
BRANCH   8  12
HETATM   12  O   UNK N   1      30.943  14.871   6.266  0.00  0.00    -0.355 OA
HETATM   13  C   UNK N   1      31.079  14.150   5.103  0.00  0.00     0.209 C 
ENDBRANCH   8  12
BRANCH   9  14
HETATM   14  O   UNK N   1      32.652  13.250   7.701  0.00  0.00    -0.388 OA
HETATM   15  H   UNK N   1      32.797  12.903   6.807  0.00  0.00     0.210 HD
ENDBRANCH   9  14
ENDBRANCH   1   2
BRANCH   1  16
HETATM   16  C   UNK N   1      34.893  13.372  10.363  0.00  0.00    -0.024 C 
HETATM   17  C   UNK N   1      35.846  13.472  11.300  0.00  0.00    -0.087 C 
HETATM   18  C   UNK N   1      36.862  12.389  11.417  0.00  0.00     0.043 C 
BRANCH  17  19
HETATM   19  C   UNK N   1      35.935  14.646  12.232  0.00  0.00     0.037 C 
BRANCH  19  20
HETATM   20  C   UNK N   1      36.518  14.239  13.574  0.00  0.00     0.031 C 
BRANCH  20  21
HETATM   21  C   UNK N   1      35.454  13.583  14.383  0.00  0.00    -0.024 C 
HETATM   22  C   UNK N   1      35.703  12.469  15.073  0.00  0.00    -0.087 C 
HETATM   23  C   UNK N   1      37.065  11.838  15.062  0.00  0.00     0.043 C 
BRANCH  22  24
HETATM   24  C   UNK N   1      34.614  11.866  15.894  0.00  0.00     0.037 C 
BRANCH  24  25
HETATM   25  C   UNK N   1      34.297  10.476  15.377  0.00  0.00     0.031 C 
BRANCH  25  26
HETATM   26  C   UNK N   1      33.730  10.575  13.998  0.00  0.00    -0.024 C 
HETATM   27  C   UNK N   1      34.264   9.934  12.952  0.00  0.00    -0.091 C 
HETATM   28  C   UNK N   1      33.633  10.085  11.613  0.00  0.00     0.042 C 
HETATM   29  C   UNK N   1      35.486   9.083  13.087  0.00  0.00     0.042 C 
ENDBRANCH  25  26
ENDBRANCH  24  25
ENDBRANCH  22  24
ENDBRANCH  20  21
ENDBRANCH  19  20
ENDBRANCH  17  19
ENDBRANCH   1  16
TORSDOF 11
ENDMDL
MODEL 7
REMARK VINA RESULT:      -5.6     13.611     16.654
REMARK  11 active torsions:
REMARK  status: ('A' for Active; 'I' for Inactive)
REMARK    1  A    between atoms: C_3  and  C_14 
REMARK    2  A    between atoms: C_4  and  O_13 
REMARK    3  A    between atoms: C_5  and  O_11 
REMARK    4  A    between atoms: C_6  and  O_9 
REMARK    5  A    between atoms: C_14  and  C_15 
REMARK    6  A    between atoms: C_16  and  C_18 
REMARK    7  A    between atoms: C_18  and  C_19 
REMARK    8  A    between atoms: C_19  and  C_20 
REMARK    9  A    between atoms: C_21  and  C_23 
REMARK   10  A    between atoms: C_23  and  C_24 
REMARK   11  A    between atoms: C_24  and  C_25 
ROOT
HETATM    1  C   UNK N   1      26.844  24.007  -5.965  0.00  0.00     0.035 C 
ENDROOT
BRANCH   1   2
HETATM    2  C   UNK N   1      27.934  23.270  -5.193  0.00  0.00     0.035 C 
HETATM    3  C   UNK N   1      28.343  24.133  -4.010  0.00  0.00     0.066 C 
HETATM    4  C   UNK N   1      27.192  24.300  -3.019  0.00  0.00     0.018 C 
HETATM    5  C   UNK N   1      29.564  23.574  -3.343  0.00  0.00     0.189 C 
HETATM    6  C   UNK N   1      30.682  23.035  -4.181  0.00  0.00     0.146 C 
HETATM    7  O   UNK N   1      29.662  23.612  -2.122  0.00  0.00    -0.290 OA
HETATM    8  C   UNK N   1      30.468  22.808  -5.515  0.00  0.00     0.111 C 
HETATM    9  C   UNK N   1      29.110  23.045  -6.152  0.00  0.00     0.182 C 
BRANCH   6  10
HETATM   10  O   UNK N   1      31.907  22.782  -3.644  0.00  0.00    -0.350 OA
HETATM   11  C   UNK N   1      32.258  21.640  -2.960  0.00  0.00     0.210 C 
ENDBRANCH   6  10
BRANCH   8  12
HETATM   12  O   UNK N   1      31.450  22.367  -6.358  0.00  0.00    -0.355 OA
HETATM   13  C   UNK N   1      31.830  21.063  -6.578  0.00  0.00     0.209 C 
ENDBRANCH   8  12
BRANCH   9  14
HETATM   14  O   UNK N   1      28.796  21.977  -6.998  0.00  0.00    -0.388 OA
HETATM   15  H   UNK N   1      27.948  21.543  -7.179  0.00  0.00     0.210 HD
ENDBRANCH   9  14
ENDBRANCH   1   2
BRANCH   1  16
HETATM   16  C   UNK N   1      27.327  25.268  -6.616  0.00  0.00    -0.024 C 
HETATM   17  C   UNK N   1      26.634  26.413  -6.548  0.00  0.00    -0.087 C 
HETATM   18  C   UNK N   1      27.198  27.638  -7.181  0.00  0.00     0.043 C 
BRANCH  17  19
HETATM   19  C   UNK N   1      25.300  26.504  -5.866  0.00  0.00     0.037 C 
BRANCH  19  20
HETATM   20  C   UNK N   1      25.160  27.811  -5.105  0.00  0.00     0.031 C 
BRANCH  20  21
HETATM   21  C   UNK N   1      26.076  27.786  -3.932  0.00  0.00    -0.024 C 
HETATM   22  C   UNK N   1      26.835  28.841  -3.628  0.00  0.00    -0.087 C 
HETATM   23  C   UNK N   1      26.789  30.091  -4.456  0.00  0.00     0.043 C 
BRANCH  22  24
HETATM   24  C   UNK N   1      27.713  28.780  -2.425  0.00  0.00     0.037 C 
BRANCH  24  25
HETATM   25  C   UNK N   1      29.161  28.956  -2.842  0.00  0.00     0.031 C 
BRANCH  25  26
HETATM   26  C   UNK N   1      29.611  27.751  -3.601  0.00  0.00    -0.024 C 
HETATM   27  C   UNK N   1      30.119  27.825  -4.836  0.00  0.00    -0.091 C 
HETATM   28  C   UNK N   1      30.547  26.574  -5.518  0.00  0.00     0.042 C 
HETATM   29  C   UNK N   1      30.256  29.128  -5.557  0.00  0.00     0.042 C 
ENDBRANCH  25  26
ENDBRANCH  24  25
ENDBRANCH  22  24
ENDBRANCH  20  21
ENDBRANCH  19  20
ENDBRANCH  17  19
ENDBRANCH   1  16
TORSDOF 11
ENDMDL
MODEL 8
REMARK VINA RESULT:      -5.6      3.302      6.056
REMARK  11 active torsions:
REMARK  status: ('A' for Active; 'I' for Inactive)
REMARK    1  A    between atoms: C_3  and  C_14 
REMARK    2  A    between atoms: C_4  and  O_13 
REMARK    3  A    between atoms: C_5  and  O_11 
REMARK    4  A    between atoms: C_6  and  O_9 
REMARK    5  A    between atoms: C_14  and  C_15 
REMARK    6  A    between atoms: C_16  and  C_18 
REMARK    7  A    between atoms: C_18  and  C_19 
REMARK    8  A    between atoms: C_19  and  C_20 
REMARK    9  A    between atoms: C_21  and  C_23 
REMARK   10  A    between atoms: C_23  and  C_24 
REMARK   11  A    between atoms: C_24  and  C_25 
ROOT
HETATM    1  C   UNK N   1      31.572  17.568   7.868  0.00  0.00     0.035 C 
ENDROOT
BRANCH   1   2
HETATM    2  C   UNK N   1      32.096  16.581   6.830  0.00  0.00     0.035 C 
HETATM    3  C   UNK N   1      33.556  16.906   6.562  0.00  0.00     0.066 C 
HETATM    4  C   UNK N   1      34.415  16.673   7.804  0.00  0.00     0.018 C 
HETATM    5  C   UNK N   1      34.068  16.123   5.388  0.00  0.00     0.189 C 
HETATM    6  C   UNK N   1      33.201  15.955   4.180  0.00  0.00     0.146 C 
HETATM    7  O   UNK N   1      35.209  15.677   5.405  0.00  0.00    -0.290 OA
HETATM    8  C   UNK N   1      31.871  16.273   4.262  0.00  0.00     0.111 C 
HETATM    9  C   UNK N   1      31.247  16.747   5.562  0.00  0.00     0.182 C 
BRANCH   6  10
HETATM   10  O   UNK N   1      33.713  15.505   3.001  0.00  0.00    -0.350 OA
HETATM   11  C   UNK N   1      33.780  14.186   2.612  0.00  0.00     0.210 C 
ENDBRANCH   6  10
BRANCH   8  12
HETATM   12  O   UNK N   1      31.023  16.196   3.191  0.00  0.00    -0.355 OA
HETATM   13  C   UNK N   1      30.212  15.138   2.850  0.00  0.00     0.209 C 
ENDBRANCH   8  12
BRANCH   9  14
HETATM   14  O   UNK N   1      30.023  16.101   5.760  0.00  0.00    -0.388 OA
HETATM   15  H   UNK N   1      29.363  15.789   5.122  0.00  0.00     0.210 HD
ENDBRANCH   9  14
ENDBRANCH   1   2
BRANCH   1  16
HETATM   16  C   UNK N   1      30.784  16.915   8.963  0.00  0.00    -0.024 C 
HETATM   17  C   UNK N   1      29.696  17.489   9.495  0.00  0.00    -0.087 C 
HETATM   18  C   UNK N   1      28.936  16.760  10.549  0.00  0.00     0.043 C 
BRANCH  17  19
HETATM   19  C   UNK N   1      29.220  18.850   9.075  0.00  0.00     0.037 C 
BRANCH  19  20
HETATM   20  C   UNK N   1      27.910  18.762   8.311  0.00  0.00     0.031 C 
BRANCH  20  21
HETATM   21  C   UNK N   1      28.187  18.925   6.858  0.00  0.00    -0.024 C 
HETATM   22  C   UNK N   1      27.665  19.939   6.167  0.00  0.00    -0.087 C 
HETATM   23  C   UNK N   1      26.782  20.955   6.831  0.00  0.00     0.043 C 
BRANCH  22  24
HETATM   24  C   UNK N   1      27.996  20.078   4.720  0.00  0.00     0.037 C 
BRANCH  24  25
HETATM   25  C   UNK N   1      27.096  19.171   3.902  0.00  0.00     0.031 C 
BRANCH  25  26
HETATM   26  C   UNK N   1      25.997  19.979   3.292  0.00  0.00    -0.024 C 
HETATM   27  C   UNK N   1      24.706  19.756   3.559  0.00  0.00    -0.091 C 
HETATM   28  C   UNK N   1      23.675  20.611   2.911  0.00  0.00     0.042 C 
HETATM   29  C   UNK N   1      24.266  18.662   4.479  0.00  0.00     0.042 C 
ENDBRANCH  25  26
ENDBRANCH  24  25
ENDBRANCH  22  24
ENDBRANCH  20  21
ENDBRANCH  19  20
ENDBRANCH  17  19
ENDBRANCH   1  16
TORSDOF 11
ENDMDL
MODEL 9
REMARK VINA RESULT:      -5.6      1.389      2.297
REMARK  11 active torsions:
REMARK  status: ('A' for Active; 'I' for Inactive)
REMARK    1  A    between atoms: C_3  and  C_14 
REMARK    2  A    between atoms: C_4  and  O_13 
REMARK    3  A    between atoms: C_5  and  O_11 
REMARK    4  A    between atoms: C_6  and  O_9 
REMARK    5  A    between atoms: C_14  and  C_15 
REMARK    6  A    between atoms: C_16  and  C_18 
REMARK    7  A    between atoms: C_18  and  C_19 
REMARK    8  A    between atoms: C_19  and  C_20 
REMARK    9  A    between atoms: C_21  and  C_23 
REMARK   10  A    between atoms: C_23  and  C_24 
REMARK   11  A    between atoms: C_24  and  C_25 
ROOT
HETATM    1  C   UNK N   1      32.037  15.901   7.356  0.00  0.00     0.035 C 
ENDROOT
BRANCH   1   2
HETATM    2  C   UNK N   1      32.798  15.874   8.677  0.00  0.00     0.035 C 
HETATM    3  C   UNK N   1      34.029  16.753   8.533  0.00  0.00     0.066 C 
HETATM    4  C   UNK N   1      33.646  18.216   8.322  0.00  0.00     0.018 C 
HETATM    5  C   UNK N   1      34.939  16.589   9.715  0.00  0.00     0.189 C 
HETATM    6  C   UNK N   1      35.170  15.225  10.286  0.00  0.00     0.146 C 
HETATM    7  O   UNK N   1      35.529  17.563  10.168  0.00  0.00    -0.290 OA
HETATM    8  C   UNK N   1      34.349  14.195   9.907  0.00  0.00     0.111 C 
HETATM    9  C   UNK N   1      33.183  14.416   8.960  0.00  0.00     0.182 C 
BRANCH   6  10
HETATM   10  O   UNK N   1      36.185  14.988  11.161  0.00  0.00    -0.350 OA
HETATM   11  C   UNK N   1      36.063  14.938  12.531  0.00  0.00     0.210 C 
ENDBRANCH   6  10
BRANCH   8  12
HETATM   12  O   UNK N   1      34.524  12.909  10.342  0.00  0.00    -0.355 OA
HETATM   13  C   UNK N   1      35.104  11.872   9.649  0.00  0.00     0.209 C 
ENDBRANCH   8  12
BRANCH   9  14
HETATM   14  O   UNK N   1      32.055  13.743   9.437  0.00  0.00    -0.388 OA
HETATM   15  H   UNK N   1      31.522  13.887  10.234  0.00  0.00     0.210 HD
ENDBRANCH   9  14
ENDBRANCH   1   2
BRANCH   1  16
HETATM   16  C   UNK N   1      32.802  15.300   6.217  0.00  0.00    -0.024 C 
HETATM   17  C   UNK N   1      32.989  15.954   5.062  0.00  0.00    -0.087 C 
HETATM   18  C   UNK N   1      33.799  15.312   3.990  0.00  0.00     0.043 C 
BRANCH  17  19
HETATM   19  C   UNK N   1      32.399  17.310   4.804  0.00  0.00     0.037 C 
BRANCH  19  20
HETATM   20  C   UNK N   1      31.048  17.200   4.118  0.00  0.00     0.031 C 
BRANCH  20  21
HETATM   21  C   UNK N   1      29.981  17.535   5.098  0.00  0.00    -0.024 C 
HETATM   22  C   UNK N   1      29.127  16.606   5.532  0.00  0.00    -0.087 C 
HETATM   23  C   UNK N   1      29.216  15.188   5.049  0.00  0.00     0.043 C 
BRANCH  22  24
HETATM   24  C   UNK N   1      28.094  16.982   6.539  0.00  0.00     0.037 C 
BRANCH  24  25
HETATM   25  C   UNK N   1      26.711  16.773   5.952  0.00  0.00     0.031 C 
BRANCH  25  26
HETATM   26  C   UNK N   1      26.284  18.010   5.231  0.00  0.00    -0.024 C 
HETATM   27  C   UNK N   1      26.045  18.031   3.915  0.00  0.00    -0.091 C 
HETATM   28  C   UNK N   1      25.618  19.306   3.277  0.00  0.00     0.042 C 
HETATM   29  C   UNK N   1      26.208  16.813   3.063  0.00  0.00     0.042 C 
ENDBRANCH  25  26
ENDBRANCH  24  25
ENDBRANCH  22  24
ENDBRANCH  20  21
ENDBRANCH  19  20
ENDBRANCH  17  19
ENDBRANCH   1  16
TORSDOF 11
ENDMDL
