REMARK  8 active torsions:
REMARK  status: ('A' for Active; 'I' for Inactive)
REMARK    1  A    between atoms: C_20  and  C_17 
REMARK    2  A    between atoms: N_25  and  C_17 
REMARK    3  A    between atoms: C_20  and  C_18 
REMARK    4  A    between atoms: O_29  and  C_18 
REMARK    5  A    between atoms: O_27  and  C_20 
REMARK    6  A    between atoms: N_26  and  C_22 
REMARK    7  A    between atoms: O_29  and  C_23 
REMARK    8  A    between atoms: O_28  and  C_24 
ROOT
HETATM    1  C   UNK N   1       5.788  -3.658   0.678  0.00  0.00     0.306 C 
ENDROOT
BRANCH   1   2
HETATM    2  C   UNK N   1       4.664  -2.786   1.246  0.00  0.00     0.170 C 
BRANCH   2   3
HETATM    3  C   UNK N   1       4.750  -1.377   0.674  0.00  0.00     0.209 C 
BRANCH   3   4
HETATM    4  O   UNK N   1       3.531  -0.733   0.701  0.00  0.00    -0.348 OA
BRANCH   4   5
HETATM    5  C   UNK N   1       3.402   0.576   0.369  0.00  0.00     0.080 A 
HETATM    6  C   UNK N   1       4.539   1.391   0.211  0.00  0.00     0.037 A 
HETATM    7  C   UNK N   1       4.410   2.737  -0.131  0.00  0.00     0.004 A 
HETATM    8  C   UNK N   1       3.146   3.292  -0.329  0.00  0.00     0.012 A 
HETATM    9  C   UNK N   1       2.004   2.502  -0.184  0.00  0.00    -0.023 A 
HETATM   10  C   UNK N   1       0.742   3.062  -0.395  0.00  0.00     0.012 A 
HETATM   11  C   UNK N   1       2.125   1.135   0.171  0.00  0.00     0.007 A 
HETATM   12  C   UNK N   1      -0.405   2.276  -0.259  0.00  0.00     0.001 A 
HETATM   13  C   UNK N   1      -0.293   0.926   0.090  0.00  0.00     0.001 A 
HETATM   14  C   UNK N   1       0.966   0.356   0.305  0.00  0.00     0.015 A 
ENDBRANCH   4   5
ENDBRANCH   3   4
ENDBRANCH   2   3
BRANCH   2  15
HETATM   15  O   UNK N   1       3.423  -3.372   0.991  0.00  0.00    -0.392 OA
HETATM   16  H   UNK N   1       2.639  -2.829   0.814  0.00  0.00     0.210 HD
ENDBRANCH   2  15
ENDBRANCH   1   2
BRANCH   1  17
HETATM   17  N   UNK N   1       5.942  -3.540  -0.781  0.00  0.00     0.094 N 
HETATM   18  C   UNK N   1       4.726  -3.903  -1.530  0.00  0.00     0.292 C 
HETATM   19  C   UNK N   1       4.304  -5.349  -1.252  0.00  0.00     0.153 C 
HETATM   20  N   UNK N   1       5.462  -6.199  -1.051  0.00  0.00    -0.375 N 
HETATM   21  C   UNK N   1       6.718  -5.781  -1.642  0.00  0.00     0.153 C 
HETATM   22  C   UNK N   1       7.093  -4.358  -1.192  0.00  0.00     0.292 C 
BRANCH  20  23
HETATM   23  C   UNK N   1       5.295  -7.493  -0.450  0.00  0.00     0.064 A 
HETATM   24  C   UNK N   1       3.985  -7.984  -0.272  0.00  0.00     0.032 A 
HETATM   25  C   UNK N   1       3.750  -9.257   0.242  0.00  0.00     0.002 A 
HETATM   26  C   UNK N   1       4.819 -10.078   0.582  0.00  0.00     0.003 A 
HETATM   27  C   UNK N   1       6.126  -9.615   0.439  0.00  0.00     0.039 A 
HETATM   28  C   UNK N   1       6.386  -8.331  -0.055  0.00  0.00     0.094 A 
BRANCH  28  29
HETATM   29  O   UNK N   1       7.680  -7.940  -0.109  0.00  0.00    -0.354 OA
HETATM   30  C   UNK N   1       8.138  -6.856   0.605  0.00  0.00     0.210 C 
ENDBRANCH  28  29
ENDBRANCH  20  23
ENDBRANCH   1  17
TORSDOF 8
