MODEL 1
REMARK VINA RESULT:      -7.3      0.000      0.000
REMARK  4 active torsions:
REMARK  status: ('A' for Active; 'I' for Inactive)
REMARK    1  A    between atoms: C_2  and  O_29 
REMARK       I    between atoms: N_5  and  C_8 
REMARK       I    between atoms: C_8  and  N_10 
REMARK    2  A    between atoms: N_10  and  C_11 
REMARK    3  A    between atoms: C_15  and  O_27 
REMARK    4  A    between atoms: C_18  and  N_21 
ROOT
HETATM    1  C   UNK N   1      33.988  14.464   9.725  0.00  0.00     0.153 A 
HETATM    2  N   UNK N   1      34.708  14.634   8.578  0.00  0.00    -0.333 N 
ATOM      3  HN  UNK N   1      35.597  14.175   8.379  1.00  0.00     0.168 HD
HETATM    4  C   UNK N   1      34.065  15.514   7.722  0.00  0.00     0.087 A 
HETATM    5  C   UNK N   1      34.555  15.918   6.475  0.00  0.00     0.096 A 
HETATM    6  C   UNK N   1      33.805  16.862   5.735  0.00  0.00     0.041 A 
HETATM    7  C   UNK N   1      32.590  17.377   6.231  0.00  0.00     0.034 A 
HETATM    8  C   UNK N   1      32.078  16.961   7.476  0.00  0.00     0.050 A 
HETATM    9  C   UNK N   1      32.851  16.035   8.198  0.00  0.00     0.064 A 
HETATM   10  S   UNK N   1      32.624  15.376   9.685  0.00  0.00    -0.049 SA
ENDROOT
BRANCH   1  11
HETATM   11  N   UNK N   1      34.418  13.818  10.902  0.00  0.00    -0.289 N 
HETATM   12  C   UNK N   1      35.158  14.314  11.921  0.00  0.00     0.324 C 
HETATM   13  N   UNK N   1      35.306  13.552  13.042  0.00  0.00    -0.334 N 
HETATM   14  O   UNK N   1      35.677  15.419  11.839  0.00  0.00    -0.247 OA
HETATM   15  C   UNK N   1      36.113  13.980  14.165  0.00  0.00     0.130 C 
HETATM   16  C   UNK N   1      34.609  12.285  13.140  0.00  0.00     0.130 C 
HETATM   17  C   UNK N   1      37.096  12.860  14.543  0.00  0.00     0.057 C 
HETATM   18  C   UNK N   1      36.384  11.505  14.714  0.00  0.00     0.057 C 
HETATM   19  C   UNK N   1      35.452  11.532  15.918  0.00  0.00     0.046 C 
HETATM   20  C   UNK N   1      35.600  11.172  13.446  0.00  0.00     0.057 C 
HETATM   21  H   UNK N   1      34.143  12.877  10.995  0.00  0.00     0.172 HD
BRANCH  18  22
HETATM   22  O   UNK N   1      37.338  10.509  14.920  0.00  0.00    -0.390 OA
HETATM   23  H   UNK N   1      38.019  10.378  15.599  0.00  0.00     0.210 HD
ENDBRANCH  18  22
ENDBRANCH   1  11
BRANCH   5  24
HETATM   24  O   UNK N   1      35.724  15.416   6.010  0.00  0.00    -0.354 OA
HETATM   25  C   UNK N   1      35.790  14.323   5.174  0.00  0.00     0.210 C 
ENDBRANCH   5  24
BRANCH   8  26
HETATM   26  N   UNK N   1      30.822  17.469   7.960  0.00  0.00    -0.376 N 
HETATM   27  C   UNK N   1      30.798  18.543   8.939  0.00  0.00     0.149 C 
HETATM   28  C   UNK N   1      29.537  18.413   9.802  0.00  0.00     0.187 C 
HETATM   29  O   UNK N   1      28.403  18.373   8.971  0.00  0.00    -0.388 OA
HETATM   30  C   UNK N   1      28.436  17.120   8.337  0.00  0.00     0.187 C 
HETATM   31  C   UNK N   1      29.569  17.113   7.314  0.00  0.00     0.149 C 
ENDBRANCH   8  26
TORSDOF 4
ENDMDL
MODEL 2
REMARK VINA RESULT:      -7.3      2.553      8.703
REMARK  4 active torsions:
REMARK  status: ('A' for Active; 'I' for Inactive)
REMARK    1  A    between atoms: C_2  and  O_29 
REMARK       I    between atoms: N_5  and  C_8 
REMARK       I    between atoms: C_8  and  N_10 
REMARK    2  A    between atoms: N_10  and  C_11 
REMARK    3  A    between atoms: C_15  and  O_27 
REMARK    4  A    between atoms: C_18  and  N_21 
ROOT
HETATM    1  C   UNK N   1      35.900  14.114  11.181  0.00  0.00     0.153 A 
HETATM    2  N   UNK N   1      36.612  12.958  11.050  0.00  0.00    -0.333 N 
ATOM      3  HN  UNK N   1      36.857  12.525  10.158  1.00  0.00     0.168 HD
HETATM    4  C   UNK N   1      36.959  12.452  12.294  0.00  0.00     0.087 A 
HETATM    5  C   UNK N   1      37.671  11.266  12.504  0.00  0.00     0.096 A 
HETATM    6  C   UNK N   1      37.908  10.856  13.837  0.00  0.00     0.041 A 
HETATM    7  C   UNK N   1      37.451  11.623  14.928  0.00  0.00     0.034 A 
HETATM    8  C   UNK N   1      36.751  12.830  14.726  0.00  0.00     0.050 A 
HETATM    9  C   UNK N   1      36.515  13.206  13.392  0.00  0.00     0.064 A 
HETATM   10  S   UNK N   1      35.695  14.484  12.766  0.00  0.00    -0.049 SA
ENDROOT
BRANCH   1  11
HETATM   11  N   UNK N   1      35.203  14.794  10.161  0.00  0.00    -0.289 N 
HETATM   12  C   UNK N   1      35.190  16.118   9.878  0.00  0.00     0.324 C 
HETATM   13  N   UNK N   1      34.576  16.527   8.732  0.00  0.00    -0.334 N 
HETATM   14  O   UNK N   1      35.719  16.924  10.631  0.00  0.00    -0.247 OA
HETATM   15  C   UNK N   1      34.474  17.924   8.367  0.00  0.00     0.130 C 
HETATM   16  C   UNK N   1      34.034  15.538   7.821  0.00  0.00     0.130 C 
HETATM   17  C   UNK N   1      33.012  18.258   8.027  0.00  0.00     0.057 C 
HETATM   18  C   UNK N   1      32.416  17.262   7.016  0.00  0.00     0.057 C 
HETATM   19  C   UNK N   1      33.098  17.395   5.661  0.00  0.00     0.046 C 
HETATM   20  C   UNK N   1      32.568  15.837   7.546  0.00  0.00     0.057 C 
HETATM   21  H   UNK N   1      34.650  14.229   9.574  0.00  0.00     0.172 HD
BRANCH  18  22
HETATM   22  O   UNK N   1      31.058  17.532   6.853  0.00  0.00    -0.390 OA
HETATM   23  H   UNK N   1      30.369  17.843   7.461  0.00  0.00     0.210 HD
ENDBRANCH  18  22
ENDBRANCH   1  11
BRANCH   5  24
HETATM   24  O   UNK N   1      38.104  10.537  11.447  0.00  0.00    -0.354 OA
HETATM   25  C   UNK N   1      38.018   9.162  11.400  0.00  0.00     0.210 C 
ENDBRANCH   5  24
BRANCH   8  26
HETATM   26  N   UNK N   1      36.317  13.622  15.845  0.00  0.00    -0.376 N 
HETATM   27  C   UNK N   1      36.901  14.931  16.083  0.00  0.00     0.149 C 
HETATM   28  C   UNK N   1      36.872  15.233  17.586  0.00  0.00     0.187 C 
HETATM   29  O   UNK N   1      35.556  15.101  18.065  0.00  0.00    -0.388 OA
HETATM   30  C   UNK N   1      35.280  13.723  18.052  0.00  0.00     0.187 C 
HETATM   31  C   UNK N   1      35.131  13.262  16.605  0.00  0.00     0.149 C 
ENDBRANCH   8  26
TORSDOF 4
ENDMDL
MODEL 3
REMARK VINA RESULT:      -7.1      2.756      8.507
REMARK  4 active torsions:
REMARK  status: ('A' for Active; 'I' for Inactive)
REMARK    1  A    between atoms: C_2  and  O_29 
REMARK       I    between atoms: N_5  and  C_8 
REMARK       I    between atoms: C_8  and  N_10 
REMARK    2  A    between atoms: N_10  and  C_11 
REMARK    3  A    between atoms: C_15  and  O_27 
REMARK    4  A    between atoms: C_18  and  N_21 
ROOT
HETATM    1  C   UNK N   1      34.962  14.815   8.324  0.00  0.00     0.153 A 
HETATM    2  N   UNK N   1      36.261  14.531   8.019  0.00  0.00    -0.333 N 
ATOM      3  HN  UNK N   1      36.706  14.737   7.124  1.00  0.00     0.168 HD
HETATM    4  C   UNK N   1      36.894  13.923   9.093  0.00  0.00     0.087 A 
HETATM    5  C   UNK N   1      38.222  13.484   9.095  0.00  0.00     0.096 A 
HETATM    6  C   UNK N   1      38.712  12.838  10.253  0.00  0.00     0.041 A 
HETATM    7  C   UNK N   1      37.891  12.647  11.383  0.00  0.00     0.034 A 
HETATM    8  C   UNK N   1      36.558  13.103  11.400  0.00  0.00     0.050 A 
HETATM    9  C   UNK N   1      36.092  13.728  10.230  0.00  0.00     0.064 A 
HETATM   10  S   UNK N   1      34.609  14.321   9.848  0.00  0.00    -0.049 SA
ENDROOT
BRANCH   1  11
HETATM   11  N   UNK N   1      33.958  15.235   7.425  0.00  0.00    -0.289 N 
HETATM   12  C   UNK N   1      34.093  15.735   6.175  0.00  0.00     0.324 C 
HETATM   13  N   UNK N   1      32.968  15.911   5.426  0.00  0.00    -0.334 N 
HETATM   14  O   UNK N   1      35.196  16.018   5.729  0.00  0.00    -0.247 OA
HETATM   15  C   UNK N   1      33.008  16.479   4.095  0.00  0.00     0.130 C 
HETATM   16  C   UNK N   1      31.686  15.487   5.953  0.00  0.00     0.130 C 
HETATM   17  C   UNK N   1      31.987  17.624   3.998  0.00  0.00     0.057 C 
HETATM   18  C   UNK N   1      30.594  17.196   4.496  0.00  0.00     0.057 C 
HETATM   19  C   UNK N   1      29.988  16.148   3.572  0.00  0.00     0.046 C 
HETATM   20  C   UNK N   1      30.703  16.647   5.917  0.00  0.00     0.057 C 
HETATM   21  H   UNK N   1      33.034  15.153   7.753  0.00  0.00     0.172 HD
BRANCH  18  22
HETATM   22  O   UNK N   1      29.752  18.307   4.512  0.00  0.00    -0.390 OA
HETATM   23  H   UNK N   1      28.805  18.415   4.693  0.00  0.00     0.210 HD
ENDBRANCH  18  22
ENDBRANCH   1  11
BRANCH   5  24
HETATM   24  O   UNK N   1      39.001  13.673   8.002  0.00  0.00    -0.354 OA
HETATM   25  C   UNK N   1      40.017  12.813   7.648  0.00  0.00     0.210 C 
ENDBRANCH   5  24
BRANCH   8  26
HETATM   26  N   UNK N   1      35.738  12.932  12.569  0.00  0.00    -0.376 N 
HETATM   27  C   UNK N   1      35.725  13.949  13.606  0.00  0.00     0.149 C 
HETATM   28  C   UNK N   1      35.433  13.290  14.959  0.00  0.00     0.187 C 
HETATM   29  O   UNK N   1      34.241  12.549  14.872  0.00  0.00    -0.388 OA
HETATM   30  C   UNK N   1      34.542  11.431  14.076  0.00  0.00     0.187 C 
HETATM   31  C   UNK N   1      34.728  11.887  12.632  0.00  0.00     0.149 C 
ENDBRANCH   8  26
TORSDOF 4
ENDMDL
MODEL 4
REMARK VINA RESULT:      -6.8      2.108      4.205
REMARK  4 active torsions:
REMARK  status: ('A' for Active; 'I' for Inactive)
REMARK    1  A    between atoms: C_2  and  O_29 
REMARK       I    between atoms: N_5  and  C_8 
REMARK       I    between atoms: C_8  and  N_10 
REMARK    2  A    between atoms: N_10  and  C_11 
REMARK    3  A    between atoms: C_15  and  O_27 
REMARK    4  A    between atoms: C_18  and  N_21 
ROOT
HETATM    1  C   UNK N   1      33.224  14.726   9.406  0.00  0.00     0.153 A 
HETATM    2  N   UNK N   1      32.203  15.584   9.693  0.00  0.00    -0.333 N 
ATOM      3  HN  UNK N   1      31.908  15.842  10.635  1.00  0.00     0.168 HD
HETATM    4  C   UNK N   1      31.620  16.058   8.527  0.00  0.00     0.087 A 
HETATM    5  C   UNK N   1      30.532  16.937   8.477  0.00  0.00     0.096 A 
HETATM    6  C   UNK N   1      30.018  17.293   7.209  0.00  0.00     0.041 A 
HETATM    7  C   UNK N   1      30.589  16.788   6.023  0.00  0.00     0.034 A 
HETATM    8  C   UNK N   1      31.698  15.919   6.062  0.00  0.00     0.050 A 
HETATM    9  C   UNK N   1      32.179  15.569   7.335  0.00  0.00     0.064 A 
HETATM   10  S   UNK N   1      33.386  14.550   7.783  0.00  0.00    -0.049 SA
ENDROOT
BRANCH   1  11
HETATM   11  N   UNK N   1      33.904  13.892  10.318  0.00  0.00    -0.289 N 
HETATM   12  C   UNK N   1      34.619  14.237  11.414  0.00  0.00     0.324 C 
HETATM   13  N   UNK N   1      35.044  13.244  12.246  0.00  0.00    -0.334 N 
HETATM   14  O   UNK N   1      34.872  15.409  11.654  0.00  0.00    -0.247 OA
HETATM   15  C   UNK N   1      35.850  13.513  13.419  0.00  0.00     0.130 C 
HETATM   16  C   UNK N   1      34.654  11.874  11.979  0.00  0.00     0.130 C 
HETATM   17  C   UNK N   1      37.087  12.599  13.408  0.00  0.00     0.057 C 
HETATM   18  C   UNK N   1      36.710  11.124  13.183  0.00  0.00     0.057 C 
HETATM   19  C   UNK N   1      35.923  10.581  14.369  0.00  0.00     0.046 C 
HETATM   20  C   UNK N   1      35.891  10.991  11.901  0.00  0.00     0.057 C 
HETATM   21  H   UNK N   1      33.852  12.927  10.131  0.00  0.00     0.172 HD
BRANCH  18  22
HETATM   22  O   UNK N   1      37.874  10.369  13.047  0.00  0.00    -0.390 OA
HETATM   23  H   UNK N   1      38.113   9.468  13.318  0.00  0.00     0.210 HD
ENDBRANCH  18  22
ENDBRANCH   1  11
BRANCH   5  24
HETATM   24  O   UNK N   1      29.991  17.414   9.624  0.00  0.00    -0.354 OA
HETATM   25  C   UNK N   1      29.695  18.746   9.815  0.00  0.00     0.210 C 
ENDBRANCH   5  24
BRANCH   8  26
HETATM   26  N   UNK N   1      32.294  15.435   4.845  0.00  0.00    -0.376 N 
HETATM   27  C   UNK N   1      33.420  16.137   4.254  0.00  0.00     0.149 C 
HETATM   28  C   UNK N   1      33.401  15.937   2.735  0.00  0.00     0.187 C 
HETATM   29  O   UNK N   1      33.370  14.561   2.444  0.00  0.00    -0.388 OA
HETATM   30  C   UNK N   1      32.084  14.123   2.799  0.00  0.00     0.187 C 
HETATM   31  C   UNK N   1      31.964  14.120   4.320  0.00  0.00     0.149 C 
ENDBRANCH   8  26
TORSDOF 4
ENDMDL
MODEL 5
REMARK VINA RESULT:      -6.8      5.282      9.286
REMARK  4 active torsions:
REMARK  status: ('A' for Active; 'I' for Inactive)
REMARK    1  A    between atoms: C_2  and  O_29 
REMARK       I    between atoms: N_5  and  C_8 
REMARK       I    between atoms: C_8  and  N_10 
REMARK    2  A    between atoms: N_10  and  C_11 
REMARK    3  A    between atoms: C_15  and  O_27 
REMARK    4  A    between atoms: C_18  and  N_21 
ROOT
HETATM    1  C   UNK N   1      27.412  17.142   5.466  0.00  0.00     0.153 A 
HETATM    2  N   UNK N   1      26.794  18.240   4.944  0.00  0.00    -0.333 N 
ATOM      3  HN  UNK N   1      27.272  19.096   4.662  1.00  0.00     0.168 HD
HETATM    4  C   UNK N   1      25.426  18.033   4.848  0.00  0.00     0.087 A 
HETATM    5  C   UNK N   1      24.506  18.975   4.375  0.00  0.00     0.096 A 
HETATM    6  C   UNK N   1      23.134  18.632   4.382  0.00  0.00     0.041 A 
HETATM    7  C   UNK N   1      22.700  17.372   4.843  0.00  0.00     0.034 A 
HETATM    8  C   UNK N   1      23.621  16.409   5.301  0.00  0.00     0.050 A 
HETATM    9  C   UNK N   1      24.976  16.781   5.299  0.00  0.00     0.064 A 
HETATM   10  S   UNK N   1      26.312  15.974   5.809  0.00  0.00    -0.049 SA
ENDROOT
BRANCH   1  11
HETATM   11  N   UNK N   1      28.750  17.057   5.904  0.00  0.00    -0.289 N 
HETATM   12  C   UNK N   1      29.295  17.503   7.060  0.00  0.00     0.324 C 
HETATM   13  N   UNK N   1      30.582  17.154   7.343  0.00  0.00    -0.334 N 
HETATM   14  O   UNK N   1      28.648  18.198   7.831  0.00  0.00    -0.247 OA
HETATM   15  C   UNK N   1      31.263  17.618   8.534  0.00  0.00     0.130 C 
HETATM   16  C   UNK N   1      31.292  16.260   6.450  0.00  0.00     0.130 C 
HETATM   17  C   UNK N   1      32.621  18.224   8.141  0.00  0.00     0.057 C 
HETATM   18  C   UNK N   1      33.432  17.279   7.236  0.00  0.00     0.057 C 
HETATM   19  C   UNK N   1      33.849  16.028   7.998  0.00  0.00     0.046 C 
HETATM   20  C   UNK N   1      32.601  16.900   6.012  0.00  0.00     0.057 C 
HETATM   21  H   UNK N   1      29.373  16.613   5.284  0.00  0.00     0.172 HD
BRANCH  18  22
HETATM   22  O   UNK N   1      34.584  17.935   6.805  0.00  0.00    -0.390 OA
HETATM   23  H   UNK N   1      35.194  18.553   7.239  0.00  0.00     0.210 HD
ENDBRANCH  18  22
ENDBRANCH   1  11
BRANCH   5  24
HETATM   24  O   UNK N   1      24.935  20.183   3.936  0.00  0.00    -0.354 OA
HETATM   25  C   UNK N   1      25.074  20.489   2.600  0.00  0.00     0.210 C 
ENDBRANCH   5  24
BRANCH   8  26
HETATM   26  N   UNK N   1      23.171  15.115   5.740  0.00  0.00    -0.376 N 
HETATM   27  C   UNK N   1      22.496  14.972   7.018  0.00  0.00     0.149 C 
HETATM   28  C   UNK N   1      22.770  13.573   7.582  0.00  0.00     0.187 C 
HETATM   29  O   UNK N   1      22.403  12.604   6.632  0.00  0.00    -0.388 OA
HETATM   30  C   UNK N   1      23.363  12.686   5.610  0.00  0.00     0.187 C 
HETATM   31  C   UNK N   1      23.148  13.980   4.831  0.00  0.00     0.149 C 
ENDBRANCH   8  26
TORSDOF 4
ENDMDL
MODEL 6
REMARK VINA RESULT:      -6.7     15.728     18.886
REMARK  4 active torsions:
REMARK  status: ('A' for Active; 'I' for Inactive)
REMARK    1  A    between atoms: C_2  and  O_29 
REMARK       I    between atoms: N_5  and  C_8 
REMARK       I    between atoms: C_8  and  N_10 
REMARK    2  A    between atoms: N_10  and  C_11 
REMARK    3  A    between atoms: C_15  and  O_27 
REMARK    4  A    between atoms: C_18  and  N_21 
ROOT
HETATM    1  C   UNK N   1      29.013  24.318  -4.697  0.00  0.00     0.153 A 
HETATM    2  N   UNK N   1      27.872  24.088  -5.408  0.00  0.00    -0.333 N 
ATOM      3  HN  UNK N   1      27.620  23.192  -5.826  1.00  0.00     0.168 HD
HETATM    4  C   UNK N   1      27.102  25.239  -5.485  0.00  0.00     0.087 A 
HETATM    5  C   UNK N   1      25.884  25.342  -6.165  0.00  0.00     0.096 A 
HETATM    6  C   UNK N   1      25.237  26.599  -6.193  0.00  0.00     0.041 A 
HETATM    7  C   UNK N   1      25.795  27.720  -5.545  0.00  0.00     0.034 A 
HETATM    8  C   UNK N   1      27.011  27.621  -4.839  0.00  0.00     0.050 A 
HETATM    9  C   UNK N   1      27.641  26.364  -4.841  0.00  0.00     0.064 A 
HETATM   10  S   UNK N   1      29.073  25.881  -4.199  0.00  0.00    -0.049 SA
ENDROOT
BRANCH   1  11
HETATM   11  N   UNK N   1      30.126  23.459  -4.589  0.00  0.00    -0.289 N 
HETATM   12  C   UNK N   1      30.765  22.769  -5.562  0.00  0.00     0.324 C 
HETATM   13  N   UNK N   1      31.930  22.135  -5.246  0.00  0.00    -0.334 N 
HETATM   14  O   UNK N   1      30.311  22.721  -6.697  0.00  0.00    -0.247 OA
HETATM   15  C   UNK N   1      32.661  21.339  -6.210  0.00  0.00     0.130 C 
HETATM   16  C   UNK N   1      32.484  22.283  -3.915  0.00  0.00     0.130 C 
HETATM   17  C   UNK N   1      32.968  19.960  -5.604  0.00  0.00     0.057 C 
HETATM   18  C   UNK N   1      33.611  20.074  -4.210  0.00  0.00     0.057 C 
HETATM   19  C   UNK N   1      34.998  20.697  -4.306  0.00  0.00     0.046 C 
HETATM   20  C   UNK N   1      32.718  20.912  -3.298  0.00  0.00     0.057 C 
HETATM   21  H   UNK N   1      30.487  23.344  -3.680  0.00  0.00     0.172 HD
BRANCH  18  22
HETATM   22  O   UNK N   1      33.739  18.801  -3.658  0.00  0.00    -0.390 OA
HETATM   23  H   UNK N   1      33.356  18.379  -2.873  0.00  0.00     0.210 HD
ENDBRANCH  18  22
ENDBRANCH   1  11
BRANCH   5  24
HETATM   24  O   UNK N   1      25.358  24.257  -6.785  0.00  0.00    -0.354 OA
HETATM   25  C   UNK N   1      25.603  23.958  -8.108  0.00  0.00     0.210 C 
ENDBRANCH   5  24
BRANCH   8  26
HETATM   26  N   UNK N   1      27.557  28.763  -4.155  0.00  0.00    -0.376 N 
HETATM   27  C   UNK N   1      28.120  29.867  -4.913  0.00  0.00     0.149 C 
HETATM   28  C   UNK N   1      29.223  30.539  -4.086  0.00  0.00     0.187 C 
HETATM   29  O   UNK N   1      28.706  30.912  -2.832  0.00  0.00    -0.388 OA
HETATM   30  C   UNK N   1      28.516  29.715  -2.123  0.00  0.00     0.187 C 
HETATM   31  C   UNK N   1      27.337  28.961  -2.731  0.00  0.00     0.149 C 
ENDBRANCH   8  26
TORSDOF 4
ENDMDL
MODEL 7
REMARK VINA RESULT:      -6.6      7.764     11.657
REMARK  4 active torsions:
REMARK  status: ('A' for Active; 'I' for Inactive)
REMARK    1  A    between atoms: C_2  and  O_29 
REMARK       I    between atoms: N_5  and  C_8 
REMARK       I    between atoms: C_8  and  N_10 
REMARK    2  A    between atoms: N_10  and  C_11 
REMARK    3  A    between atoms: C_15  and  O_27 
REMARK    4  A    between atoms: C_18  and  N_21 
ROOT
HETATM    1  C   UNK N   1      25.130  16.339   5.398  0.00  0.00     0.153 A 
HETATM    2  N   UNK N   1      24.538  15.595   6.376  0.00  0.00    -0.333 N 
ATOM      3  HN  UNK N   1      25.038  14.991   7.029  1.00  0.00     0.168 HD
HETATM    4  C   UNK N   1      23.162  15.772   6.360  0.00  0.00     0.087 A 
HETATM    5  C   UNK N   1      22.264  15.130   7.220  0.00  0.00     0.096 A 
HETATM    6  C   UNK N   1      20.882  15.378   7.049  0.00  0.00     0.041 A 
HETATM    7  C   UNK N   1      20.417  16.255   6.047  0.00  0.00     0.034 A 
HETATM    8  C   UNK N   1      21.315  16.922   5.190  0.00  0.00     0.050 A 
HETATM    9  C   UNK N   1      22.681  16.645   5.371  0.00  0.00     0.064 A 
HETATM   10  S   UNK N   1      24.000  17.166   4.542  0.00  0.00    -0.049 SA
ENDROOT
BRANCH   1  11
HETATM   11  N   UNK N   1      26.473  16.257   4.974  0.00  0.00    -0.289 N 
HETATM   12  C   UNK N   1      27.603  16.489   5.682  0.00  0.00     0.324 C 
HETATM   13  N   UNK N   1      28.800  16.177   5.108  0.00  0.00    -0.334 N 
HETATM   14  O   UNK N   1      27.550  16.961   6.809  0.00  0.00    -0.247 OA
HETATM   15  C   UNK N   1      30.062  16.428   5.771  0.00  0.00     0.130 C 
HETATM   16  C   UNK N   1      28.822  15.540   3.806  0.00  0.00     0.130 C 
HETATM   17  C   UNK N   1      30.994  17.195   4.818  0.00  0.00     0.057 C 
HETATM   18  C   UNK N   1      31.091  16.518   3.439  0.00  0.00     0.057 C 
HETATM   19  C   UNK N   1      31.786  15.167   3.549  0.00  0.00     0.046 C 
HETATM   20  C   UNK N   1      29.691  16.345   2.852  0.00  0.00     0.057 C 
HETATM   21  H   UNK N   1      26.606  15.996   4.034  0.00  0.00     0.172 HD
BRANCH  18  22
HETATM   22  O   UNK N   1      31.835  17.326   2.583  0.00  0.00    -0.390 OA
HETATM   23  H   UNK N   1      32.708  17.744   2.661  0.00  0.00     0.210 HD
ENDBRANCH  18  22
ENDBRANCH   1  11
BRANCH   5  24
HETATM   24  O   UNK N   1      22.723  14.289   8.177  0.00  0.00    -0.354 OA
HETATM   25  C   UNK N   1      21.937  13.830   9.211  0.00  0.00     0.210 C 
ENDBRANCH   5  24
BRANCH   8  26
HETATM   26  N   UNK N   1      20.833  17.839   4.192  0.00  0.00    -0.376 N 
HETATM   27  C   UNK N   1      19.945  17.371   3.141  0.00  0.00     0.149 C 
HETATM   28  C   UNK N   1      20.156  18.224   1.884  0.00  0.00     0.187 C 
HETATM   29  O   UNK N   1      19.992  19.583   2.207  0.00  0.00    -0.388 OA
HETATM   30  C   UNK N   1      21.116  19.933   2.973  0.00  0.00     0.187 C 
HETATM   31  C   UNK N   1      21.005  19.274   4.345  0.00  0.00     0.149 C 
ENDBRANCH   8  26
TORSDOF 4
ENDMDL
MODEL 8
REMARK VINA RESULT:      -6.5      2.067      2.681
REMARK  4 active torsions:
REMARK  status: ('A' for Active; 'I' for Inactive)
REMARK    1  A    between atoms: C_2  and  O_29 
REMARK       I    between atoms: N_5  and  C_8 
REMARK       I    between atoms: C_8  and  N_10 
REMARK    2  A    between atoms: N_10  and  C_11 
REMARK    3  A    between atoms: C_15  and  O_27 
REMARK    4  A    between atoms: C_18  and  N_21 
ROOT
HETATM    1  C   UNK N   1      35.238  13.290  10.370  0.00  0.00     0.153 A 
HETATM    2  N   UNK N   1      36.229  13.059   9.461  0.00  0.00    -0.333 N 
ATOM      3  HN  UNK N   1      37.033  12.452   9.622  1.00  0.00     0.168 HD
HETATM    4  C   UNK N   1      35.992  13.760   8.289  0.00  0.00     0.087 A 
HETATM    5  C   UNK N   1      36.833  13.756   7.171  0.00  0.00     0.096 A 
HETATM    6  C   UNK N   1      36.479  14.562   6.064  0.00  0.00     0.041 A 
HETATM    7  C   UNK N   1      35.305  15.343   6.078  0.00  0.00     0.034 A 
HETATM    8  C   UNK N   1      34.441  15.338   7.191  0.00  0.00     0.050 A 
HETATM    9  C   UNK N   1      34.825  14.541   8.283  0.00  0.00     0.064 A 
HETATM   10  S   UNK N   1      34.127  14.330   9.755  0.00  0.00    -0.049 SA
ENDROOT
BRANCH   1  11
HETATM   11  N   UNK N   1      35.242  12.925  11.732  0.00  0.00    -0.289 N 
HETATM   12  C   UNK N   1      36.297  12.670  12.540  0.00  0.00     0.324 C 
HETATM   13  N   UNK N   1      36.065  12.503  13.873  0.00  0.00    -0.334 N 
HETATM   14  O   UNK N   1      37.431  12.595  12.086  0.00  0.00    -0.247 OA
HETATM   15  C   UNK N   1      37.124  12.186  14.807  0.00  0.00     0.130 C 
HETATM   16  C   UNK N   1      34.723  12.683  14.391  0.00  0.00     0.130 C 
HETATM   17  C   UNK N   1      36.711  10.969  15.652  0.00  0.00     0.057 C 
HETATM   18  C   UNK N   1      35.311  11.144  16.268  0.00  0.00     0.057 C 
HETATM   19  C   UNK N   1      35.313  12.264  17.301  0.00  0.00     0.046 C 
HETATM   20  C   UNK N   1      34.298  11.444  15.165  0.00  0.00     0.057 C 
HETATM   21  H   UNK N   1      34.356  12.844  12.153  0.00  0.00     0.172 HD
BRANCH  18  22
HETATM   22  O   UNK N   1      34.939   9.961  16.903  0.00  0.00    -0.390 OA
HETATM   23  H   UNK N   1      34.232   9.317  16.738  0.00  0.00     0.210 HD
ENDBRANCH  18  22
ENDBRANCH   1  11
BRANCH   5  24
HETATM   24  O   UNK N   1      37.959  13.002   7.171  0.00  0.00    -0.354 OA
HETATM   25  C   UNK N   1      39.214  13.529   7.381  0.00  0.00     0.210 C 
ENDBRANCH   5  24
BRANCH   8  26
HETATM   26  N   UNK N   1      33.230  16.114   7.182  0.00  0.00    -0.376 N 
HETATM   27  C   UNK N   1      33.203  17.431   7.797  0.00  0.00     0.149 C 
HETATM   28  C   UNK N   1      31.788  17.721   8.312  0.00  0.00     0.187 C 
HETATM   29  O   UNK N   1      30.866  17.562   7.262  0.00  0.00    -0.388 OA
HETATM   30  C   UNK N   1      30.796  16.181   7.017  0.00  0.00     0.187 C 
HETATM   31  C   UNK N   1      32.096  15.729   6.358  0.00  0.00     0.149 C 
ENDBRANCH   8  26
TORSDOF 4
ENDMDL
MODEL 9
REMARK VINA RESULT:      -6.5      2.719      9.417
REMARK  4 active torsions:
REMARK  status: ('A' for Active; 'I' for Inactive)
REMARK    1  A    between atoms: C_2  and  O_29 
REMARK       I    between atoms: N_5  and  C_8 
REMARK       I    between atoms: C_8  and  N_10 
REMARK    2  A    between atoms: N_10  and  C_11 
REMARK    3  A    between atoms: C_15  and  O_27 
REMARK    4  A    between atoms: C_18  and  N_21 
ROOT
HETATM    1  C   UNK N   1      35.002  13.342  11.313  0.00  0.00     0.153 A 
HETATM    2  N   UNK N   1      35.289  13.722  12.592  0.00  0.00    -0.333 N 
ATOM      3  HN  UNK N   1      35.021  14.616  13.006  1.00  0.00     0.168 HD
HETATM    4  C   UNK N   1      35.992  12.725  13.253  0.00  0.00     0.087 A 
HETATM    5  C   UNK N   1      36.456  12.814  14.570  0.00  0.00     0.096 A 
HETATM    6  C   UNK N   1      37.201  11.731  15.090  0.00  0.00     0.041 A 
HETATM    7  C   UNK N   1      37.463  10.585  14.311  0.00  0.00     0.034 A 
HETATM    8  C   UNK N   1      36.982  10.478  12.991  0.00  0.00     0.050 A 
HETATM    9  C   UNK N   1      36.259  11.575  12.493  0.00  0.00     0.064 A 
HETATM   10  S   UNK N   1      35.607  11.847  11.010  0.00  0.00    -0.049 SA
ENDROOT
BRANCH   1  11
HETATM   11  N   UNK N   1      34.493  14.162  10.285  0.00  0.00    -0.289 N 
HETATM   12  C   UNK N   1      34.578  15.506  10.149  0.00  0.00     0.324 C 
HETATM   13  N   UNK N   1      34.158  16.064   8.979  0.00  0.00    -0.334 N 
HETATM   14  O   UNK N   1      35.026  16.199  11.052  0.00  0.00    -0.247 OA
HETATM   15  C   UNK N   1      34.172  17.495   8.758  0.00  0.00     0.130 C 
HETATM   16  C   UNK N   1      33.713  15.207   7.898  0.00  0.00     0.130 C 
HETATM   17  C   UNK N   1      32.792  17.947   8.253  0.00  0.00     0.057 C 
HETATM   18  C   UNK N   1      32.307  17.095   7.066  0.00  0.00     0.057 C 
HETATM   19  C   UNK N   1      33.185  17.325   5.843  0.00  0.00     0.046 C 
HETATM   20  C   UNK N   1      32.317  15.618   7.454  0.00  0.00     0.057 C 
HETATM   21  H   UNK N   1      34.008  13.693   9.568  0.00  0.00     0.172 HD
BRANCH  18  22
HETATM   22  O   UNK N   1      31.001  17.460   6.743  0.00  0.00    -0.390 OA
HETATM   23  H   UNK N   1      30.368  18.075   7.147  0.00  0.00     0.210 HD
ENDBRANCH  18  22
ENDBRANCH   1  11
BRANCH   5  24
HETATM   24  O   UNK N   1      36.198  13.920  15.308  0.00  0.00    -0.354 OA
HETATM   25  C   UNK N   1      37.167  14.840  15.644  0.00  0.00     0.210 C 
ENDBRANCH   5  24
BRANCH   8  26
HETATM   26  N   UNK N   1      37.228   9.292  12.214  0.00  0.00    -0.376 N 
HETATM   27  C   UNK N   1      36.237   8.230  12.171  0.00  0.00     0.149 C 
HETATM   28  C   UNK N   1      36.943   6.887  11.955  0.00  0.00     0.187 C 
HETATM   29  O   UNK N   1      37.751   6.961  10.806  0.00  0.00    -0.388 OA
HETATM   30  C   UNK N   1      38.831   7.791  11.149  0.00  0.00     0.187 C 
HETATM   31  C   UNK N   1      38.331   9.228  11.269  0.00  0.00     0.149 C 
ENDBRANCH   8  26
TORSDOF 4
ENDMDL
