REMARK  25 active torsions:
REMARK  status: ('A' for Active; 'I' for Inactive)
REMARK    1  A    between atoms: C_3  and  N_36 
REMARK    2  A    between atoms: C_6  and  C_7 
REMARK    3  A    between atoms: C_7  and  C_8 
REMARK    4  A    between atoms: N_10  and  C_32 
REMARK    5  A    between atoms: N_13  and  C_28 
REMARK    6  A    between atoms: N_16  and  C_24 
REMARK    7  A    between atoms: N_19  and  C_20 
REMARK    8  A    between atoms: C_20  and  C_21 
REMARK    9  A    between atoms: C_21  and  O_23 
REMARK   10  A    between atoms: C_24  and  C_25 
REMARK   11  A    between atoms: C_25  and  O_27 
REMARK   12  A    between atoms: C_28  and  C_29 
REMARK   13  A    between atoms: C_29  and  O_31 
REMARK   14  A    between atoms: C_32  and  C_33 
REMARK   15  A    between atoms: C_33  and  O_35 
REMARK   16  A    between atoms: N_36  and  C_37 
REMARK   17  A    between atoms: C_37  and  N_39 
REMARK   18  A    between atoms: N_39  and  C_40 
REMARK   19  A    between atoms: C_40  and  C_41 
REMARK   20  A    between atoms: C_41  and  C_42 
REMARK   21  A    between atoms: C_42  and  C_43 
REMARK   22  A    between atoms: C_43  and  C_44 
REMARK   23  A    between atoms: C_44  and  C_45 
REMARK   24  A    between atoms: C_44  and  N_48 
REMARK   25  A    between atoms: C_45  and  O_47 
ROOT
HETATM    1  C   UNK N   1       1.873   1.978  -0.273  0.00  0.00     0.256 C 
HETATM    2  C   UNK N   1       2.776   2.439   0.891  0.00  0.00     0.309 C 
HETATM    3  N   UNK N   1       3.929   3.188   0.391  0.00  0.00     0.102 N 
HETATM    4  C   UNK N   1       3.737   4.558   0.831  0.00  0.00     0.303 C 
HETATM    5  C   UNK N   1       3.787   5.487  -0.366  0.00  0.00     0.303 C 
HETATM    6  N   UNK N   1       2.734   6.474  -0.231  0.00  0.00     0.101 N 
HETATM    7  C   UNK N   1       1.539   5.932  -0.859  0.00  0.00     0.303 C 
HETATM    8  C   UNK N   1       0.521   5.605   0.215  0.00  0.00     0.303 C 
HETATM    9  N   UNK N   1      -0.703   5.097  -0.391  0.00  0.00     0.101 N 
HETATM   10  C   UNK N   1      -0.601   3.662  -0.667  0.00  0.00     0.303 C 
HETATM   11  C   UNK N   1      -0.207   2.824   0.552  0.00  0.00     0.303 C 
HETATM   12  N   UNK N   1       0.494   1.636   0.086  0.00  0.00     0.106 N 
ENDROOT
BRANCH   1  13
HETATM   13  C   UNK N   1       2.471   0.951  -1.237  0.00  0.00     0.076 C 
BRANCH  13  14
HETATM   14  C   UNK N   1       3.132  -0.244  -0.623  0.00  0.00    -0.056 A 
HETATM   15  C   UNK N   1       2.878  -1.532  -1.115  0.00  0.00     0.009 A 
HETATM   16  C   UNK N   1       3.706  -2.599  -0.730  0.00  0.00     0.030 A 
HETATM   17  C   UNK N   1       4.770  -2.365   0.156  0.00  0.00     0.034 A 
HETATM   18  C   UNK N   1       4.977  -1.092   0.674  0.00  0.00     0.030 A 
HETATM   19  C   UNK N   1       4.166  -0.047   0.286  0.00  0.00     0.009 A 
BRANCH  17  20
HETATM   20  N   UNK N   1       5.828  -3.291   0.274  0.00  0.00    -0.333 N 
HETATM   21  H   UNK N   1       5.732  -4.084   0.849  0.00  0.00     0.168 HD
BRANCH  20  22
HETATM   22  C   UNK N   1       7.045  -3.066  -0.451  0.00  0.00     0.172 C 
HETATM   23  S   UNK N   1       7.034  -2.370  -1.717  0.00  0.00    -0.041 SA
BRANCH  22  24
HETATM   24  N   UNK N   1       8.289  -3.272   0.181  0.00  0.00    -0.367 N 
HETATM   25  H   UNK N   1       8.899  -3.970  -0.152  0.00  0.00     0.161 HD
BRANCH  24  26
HETATM   26  C   UNK N   1       8.670  -2.467   1.312  0.00  0.00     0.122 C 
BRANCH  26  27
HETATM   27  C   UNK N   1       9.935  -1.696   0.964  0.00  0.00     0.020 C 
BRANCH  27  28
HETATM   28  C   UNK N   1       9.623  -0.335   0.352  0.00  0.00     0.004 C 
BRANCH  28  29
HETATM   29  C   UNK N   1      10.784   0.205  -0.487  0.00  0.00     0.035 C 
BRANCH  29  30
HETATM   30  C   UNK N   1      12.089   0.309   0.297  0.00  0.00     0.173 C 
BRANCH  30  31
HETATM   31  C   UNK N   1      13.034  -0.794  -0.110  0.00  0.00     0.163 C 
HETATM   32  O   UNK N   1      14.130  -0.536  -0.579  0.00  0.00    -0.648 OA
BRANCH  31  33
HETATM   33  O   UNK N   1      12.672  -2.082   0.052  0.00  0.00    -0.775 OA
HETATM   34  H   UNK N   1      11.771  -2.311   0.165  0.00  0.00     0.167 HD
ENDBRANCH  31  33
ENDBRANCH  30  31
BRANCH  30  35
HETATM   35  N   UNK N   1      12.691   1.614   0.061  0.00  0.00    -0.418 N 
HETATM   36  H   UNK N   1      13.693   1.706  -0.104  0.00  0.00     0.150 HD
HETATM   37  H   UNK N   1      12.102   2.447   0.061  0.00  0.00     0.150 HD
ENDBRANCH  30  35
ENDBRANCH  29  30
ENDBRANCH  28  29
ENDBRANCH  27  28
ENDBRANCH  26  27
ENDBRANCH  24  26
ENDBRANCH  22  24
ENDBRANCH  20  22
ENDBRANCH  17  20
ENDBRANCH  13  14
ENDBRANCH   1  13
BRANCH  12  38
HETATM   38  C   UNK N   1       0.410   0.571   1.076  0.00  0.00     0.382 C 
BRANCH  38  39
HETATM   39  C   UNK N   1      -0.697  -0.358   0.689  0.00  0.00     0.169 C 
HETATM   40  O   UNK N   1      -0.449  -1.520   0.415  0.00  0.00    -0.649 OA
BRANCH  39  41
HETATM   41  O   UNK N   1      -1.964   0.092   0.617  0.00  0.00    -0.775 OA
HETATM   42  H   UNK N   1      -2.133   1.012   0.567  0.00  0.00     0.167 HD
ENDBRANCH  39  41
ENDBRANCH  38  39
ENDBRANCH  12  38
BRANCH   3  43
HETATM   43  C   UNK N   1       5.129   2.674   1.051  0.00  0.00     0.381 C 
BRANCH  43  44
HETATM   44  C   UNK N   1       6.384   3.199   0.413  0.00  0.00     0.169 C 
HETATM   45  O   UNK N   1       7.120   2.441  -0.197  0.00  0.00    -0.649 OA
BRANCH  44  46
HETATM   46  O   UNK N   1       6.721   4.496   0.546  0.00  0.00    -0.775 OA
HETATM   47  H   UNK N   1       7.620   4.744   0.638  0.00  0.00     0.167 HD
ENDBRANCH  44  46
ENDBRANCH  43  44
ENDBRANCH   3  43
BRANCH   9  48
HETATM   48  C   UNK N   1      -1.813   5.351   0.513  0.00  0.00     0.381 C 
BRANCH  48  49
HETATM   49  C   UNK N   1      -2.606   6.509   0.007  0.00  0.00     0.169 C 
HETATM   50  O   UNK N   1      -3.782   6.362  -0.278  0.00  0.00    -0.649 OA
BRANCH  49  51
HETATM   51  O   UNK N   1      -2.023   7.714  -0.145  0.00  0.00    -0.775 OA
HETATM   52  H   UNK N   1      -1.094   7.781  -0.251  0.00  0.00     0.167 HD
ENDBRANCH  49  51
ENDBRANCH  48  49
ENDBRANCH   9  48
BRANCH   6  53
HETATM   53  C   UNK N   1       3.128   7.657  -0.975  0.00  0.00     0.381 C 
BRANCH  53  54
HETATM   54  C   UNK N   1       2.577   8.871  -0.300  0.00  0.00     0.169 C 
HETATM   55  O   UNK N   1       3.335   9.730   0.117  0.00  0.00    -0.649 OA
BRANCH  54  56
HETATM   56  O   UNK N   1       1.248   9.012  -0.139  0.00  0.00    -0.775 OA
HETATM   57  H   UNK N   1       0.870   9.863  -0.027  0.00  0.00     0.167 HD
ENDBRANCH  54  56
ENDBRANCH  53  54
ENDBRANCH   6  53
TORSDOF 25
