MODEL 1
REMARK VINA RESULT:      -6.5      0.000      0.000
REMARK  2 active torsions:
REMARK  status: ('A' for Active; 'I' for Inactive)
REMARK    1  A    between atoms: C_2  and  C_19 
REMARK    2  A    between atoms: C_19  and  O_20 
ROOT
HETATM    1  C   UNK N   1      32.190  17.178   5.656  0.00  0.00     0.020 C 
HETATM    2  C   UNK N   1      31.358  16.009   6.176  0.00  0.00     0.015 C 
HETATM    3  C   UNK N   1      32.268  15.026   6.932  0.00  0.00     0.015 C 
HETATM    4  C   UNK N   1      32.780  15.606   8.241  0.00  0.00     0.031 C 
HETATM    5  C   UNK N   1      31.580  15.991   9.086  0.00  0.00     0.273 C 
HETATM    6  N   UNK N   1      30.814  17.028   8.405  0.00  0.00     0.100 N 
HETATM    7  C   UNK N   1      30.240  16.498   7.140  0.00  0.00     0.290 C 
HETATM    8  C   UNK N   1      29.305  17.543   6.568  0.00  0.00     0.095 A 
HETATM    9  C   UNK N   1      28.766  18.544   7.351  0.00  0.00    -0.011 A 
HETATM   10  C   UNK N   1      27.991  19.303   6.517  0.00  0.00     0.007 A 
HETATM   11  C   UNK N   1      27.217  20.434   6.755  0.00  0.00     0.015 A 
HETATM   12  C   UNK N   1      26.522  20.987   5.664  0.00  0.00     0.001 A 
HETATM   13  C   UNK N   1      26.620  20.399   4.380  0.00  0.00     0.003 A 
HETATM   14  C   UNK N   1      27.411  19.250   4.176  0.00  0.00     0.038 A 
HETATM   15  C   UNK N   1      28.087  18.725   5.276  0.00  0.00     0.086 A 
HETATM   16  O   UNK N   1      28.875  17.669   5.321  0.00  0.00    -0.311 OA
HETATM   17  C   UNK N   1      29.024  18.694   8.813  0.00  0.00     0.072 C 
HETATM   18  C   UNK N   1      29.753  17.444   9.329  0.00  0.00     0.278 C 
ENDROOT
BRANCH   2  19
HETATM   19  C   UNK N   1      30.745  15.248   4.996  0.00  0.00     0.178 C 
BRANCH  19  20
HETATM   20  O   UNK N   1      30.195  14.028   5.413  0.00  0.00    -0.395 OA
HETATM   21  C   UNK N   1      28.981  13.922   4.738  0.00  0.00     0.201 C 
ENDBRANCH  19  20
ENDBRANCH   2  19
TORSDOF 2
ENDMDL
MODEL 2
REMARK VINA RESULT:      -6.3      7.879     11.408
REMARK  2 active torsions:
REMARK  status: ('A' for Active; 'I' for Inactive)
REMARK    1  A    between atoms: C_2  and  C_19 
REMARK    2  A    between atoms: C_19  and  O_20 
ROOT
HETATM    1  C   UNK N   1      36.968  13.330  11.851  0.00  0.00     0.020 C 
HETATM    2  C   UNK N   1      35.493  13.255  11.467  0.00  0.00     0.015 C 
HETATM    3  C   UNK N   1      35.368  12.996   9.956  0.00  0.00     0.015 C 
HETATM    4  C   UNK N   1      35.827  11.597   9.573  0.00  0.00     0.031 C 
HETATM    5  C   UNK N   1      35.001  10.598  10.363  0.00  0.00     0.273 C 
HETATM    6  N   UNK N   1      35.251  10.776  11.788  0.00  0.00     0.100 N 
HETATM    7  C   UNK N   1      34.769  12.111  12.233  0.00  0.00     0.290 C 
HETATM    8  C   UNK N   1      34.874  12.177  13.742  0.00  0.00     0.095 A 
HETATM    9  C   UNK N   1      34.943  11.036  14.516  0.00  0.00    -0.011 A 
HETATM   10  C   UNK N   1      35.042  11.462  15.813  0.00  0.00     0.007 A 
HETATM   11  C   UNK N   1      35.142  10.759  17.009  0.00  0.00     0.015 A 
HETATM   12  C   UNK N   1      35.224  11.507  18.198  0.00  0.00     0.001 A 
HETATM   13  C   UNK N   1      35.204  12.921  18.157  0.00  0.00     0.003 A 
HETATM   14  C   UNK N   1      35.097  13.602  16.927  0.00  0.00     0.038 A 
HETATM   15  C   UNK N   1      35.017  12.834  15.767  0.00  0.00     0.086 A 
HETATM   16  O   UNK N   1      34.913  13.249  14.520  0.00  0.00    -0.311 OA
HETATM   17  C   UNK N   1      34.906   9.648  13.969  0.00  0.00     0.072 C 
HETATM   18  C   UNK N   1      34.531   9.702  12.480  0.00  0.00     0.278 C 
ENDROOT
BRANCH   2  19
HETATM   19  C   UNK N   1      34.816  14.598  11.757  0.00  0.00     0.178 C 
BRANCH  19  20
HETATM   20  O   UNK N   1      34.646  15.342  10.581  0.00  0.00    -0.395 OA
HETATM   21  C   UNK N   1      35.331  16.535  10.798  0.00  0.00     0.201 C 
ENDBRANCH  19  20
ENDBRANCH   2  19
TORSDOF 2
ENDMDL
MODEL 3
REMARK VINA RESULT:      -6.2     11.857     14.675
REMARK  2 active torsions:
REMARK  status: ('A' for Active; 'I' for Inactive)
REMARK    1  A    between atoms: C_2  and  C_19 
REMARK    2  A    between atoms: C_19  and  O_20 
ROOT
HETATM    1  C   UNK N   1      25.680  24.425  -4.851  0.00  0.00     0.020 C 
HETATM    2  C   UNK N   1      26.322  25.085  -6.067  0.00  0.00     0.015 C 
HETATM    3  C   UNK N   1      25.493  26.311  -6.485  0.00  0.00     0.015 C 
HETATM    4  C   UNK N   1      25.588  27.442  -5.473  0.00  0.00     0.031 C 
HETATM    5  C   UNK N   1      27.052  27.809  -5.313  0.00  0.00     0.273 C 
HETATM    6  N   UNK N   1      27.786  26.668  -4.779  0.00  0.00     0.100 N 
HETATM    7  C   UNK N   1      27.776  25.546  -5.756  0.00  0.00     0.290 C 
HETATM    8  C   UNK N   1      28.702  24.463  -5.246  0.00  0.00     0.095 A 
HETATM    9  C   UNK N   1      29.691  24.728  -4.321  0.00  0.00    -0.011 A 
HETATM   10  C   UNK N   1      30.317  23.535  -4.081  0.00  0.00     0.007 A 
HETATM   11  C   UNK N   1      31.378  23.203  -3.245  0.00  0.00     0.015 A 
HETATM   12  C   UNK N   1      31.798  21.860  -3.230  0.00  0.00     0.001 A 
HETATM   13  C   UNK N   1      31.153  20.899  -4.044  0.00  0.00     0.003 A 
HETATM   14  C   UNK N   1      30.082  21.271  -4.883  0.00  0.00     0.038 A 
HETATM   15  C   UNK N   1      29.690  22.608  -4.876  0.00  0.00     0.086 A 
HETATM   16  O   UNK N   1      28.726  23.178  -5.571  0.00  0.00    -0.311 OA
HETATM   17  C   UNK N   1      29.962  26.079  -3.748  0.00  0.00     0.072 C 
HETATM   18  C   UNK N   1      29.156  27.129  -4.526  0.00  0.00     0.278 C 
ENDROOT
BRANCH   2  19
HETATM   19  C   UNK N   1      26.319  24.107  -7.246  0.00  0.00     0.178 C 
BRANCH  19  20
HETATM   20  O   UNK N   1      25.284  23.169  -7.121  0.00  0.00    -0.395 OA
HETATM   21  C   UNK N   1      25.770  22.006  -7.712  0.00  0.00     0.201 C 
ENDBRANCH  19  20
ENDBRANCH   2  19
TORSDOF 2
ENDMDL
MODEL 4
REMARK VINA RESULT:      -6.2      2.905      5.027
REMARK  2 active torsions:
REMARK  status: ('A' for Active; 'I' for Inactive)
REMARK    1  A    between atoms: C_2  and  C_19 
REMARK    2  A    between atoms: C_19  and  O_20 
ROOT
HETATM    1  C   UNK N   1      33.543  14.343   8.972  0.00  0.00     0.020 C 
HETATM    2  C   UNK N   1      34.458  15.485   8.543  0.00  0.00     0.015 C 
HETATM    3  C   UNK N   1      35.815  14.916   8.094  0.00  0.00     0.015 C 
HETATM    4  C   UNK N   1      35.710  14.140   6.791  0.00  0.00     0.031 C 
HETATM    5  C   UNK N   1      35.138  15.068   5.735  0.00  0.00     0.273 C 
HETATM    6  N   UNK N   1      33.793  15.478   6.122  0.00  0.00     0.100 N 
HETATM    7  C   UNK N   1      33.840  16.292   7.365  0.00  0.00     0.290 C 
HETATM    8  C   UNK N   1      32.455  16.850   7.621  0.00  0.00     0.095 A 
HETATM    9  C   UNK N   1      31.515  16.951   6.616  0.00  0.00    -0.011 A 
HETATM   10  C   UNK N   1      30.393  17.477   7.197  0.00  0.00     0.007 A 
HETATM   11  C   UNK N   1      29.146  17.794   6.670  0.00  0.00     0.015 A 
HETATM   12  C   UNK N   1      28.188  18.335   7.548  0.00  0.00     0.001 A 
HETATM   13  C   UNK N   1      28.503  18.542   8.912  0.00  0.00     0.003 A 
HETATM   14  C   UNK N   1      29.779  18.212   9.412  0.00  0.00     0.038 A 
HETATM   15  C   UNK N   1      30.706  17.678   8.518  0.00  0.00     0.086 A 
HETATM   16  O   UNK N   1      31.946  17.302   8.758  0.00  0.00    -0.311 OA
HETATM   17  C   UNK N   1      31.756  16.549   5.200  0.00  0.00     0.072 C 
HETATM   18  C   UNK N   1      33.252  16.259   5.004  0.00  0.00     0.278 C 
ENDROOT
BRANCH   2  19
HETATM   19  C   UNK N   1      34.723  16.409   9.736  0.00  0.00     0.178 C 
BRANCH  19  20
HETATM   20  O   UNK N   1      35.999  16.187  10.273  0.00  0.00    -0.395 OA
HETATM   21  C   UNK N   1      35.781  15.814  11.597  0.00  0.00     0.201 C 
ENDBRANCH  19  20
ENDBRANCH   2  19
TORSDOF 2
ENDMDL
MODEL 5
REMARK VINA RESULT:      -6.2     11.714     15.259
REMARK  2 active torsions:
REMARK  status: ('A' for Active; 'I' for Inactive)
REMARK    1  A    between atoms: C_2  and  C_19 
REMARK    2  A    between atoms: C_19  and  O_20 
ROOT
HETATM    1  C   UNK N   1      27.996  26.726  -6.296  0.00  0.00     0.020 C 
HETATM    2  C   UNK N   1      26.684  26.015  -5.978  0.00  0.00     0.015 C 
HETATM    3  C   UNK N   1      25.577  26.538  -6.909  0.00  0.00     0.015 C 
HETATM    4  C   UNK N   1      25.785  26.104  -8.351  0.00  0.00     0.031 C 
HETATM    5  C   UNK N   1      25.846  24.588  -8.383  0.00  0.00     0.273 C 
HETATM    6  N   UNK N   1      26.992  24.128  -7.607  0.00  0.00     0.100 N 
HETATM    7  C   UNK N   1      26.815  24.476  -6.172  0.00  0.00     0.290 C 
HETATM    8  C   UNK N   1      27.927  23.818  -5.383  0.00  0.00     0.095 A 
HETATM    9  C   UNK N   1      28.631  22.740  -5.879  0.00  0.00    -0.011 A 
HETATM   10  C   UNK N   1      29.553  22.415  -4.922  0.00  0.00     0.007 A 
HETATM   11  C   UNK N   1      30.525  21.421  -4.879  0.00  0.00     0.015 A 
HETATM   12  C   UNK N   1      31.329  21.347  -3.726  0.00  0.00     0.001 A 
HETATM   13  C   UNK N   1      31.138  22.259  -2.661  0.00  0.00     0.003 A 
HETATM   14  C   UNK N   1      30.141  23.253  -2.736  0.00  0.00     0.038 A 
HETATM   15  C   UNK N   1      29.361  23.300  -3.891  0.00  0.00     0.086 A 
HETATM   16  O   UNK N   1      28.381  24.133  -4.179  0.00  0.00    -0.311 OA
HETATM   17  C   UNK N   1      28.371  22.108  -7.206  0.00  0.00     0.072 C 
HETATM   18  C   UNK N   1      27.067  22.675  -7.789  0.00  0.00     0.278 C 
ENDROOT
BRANCH   2  19
HETATM   19  C   UNK N   1      26.260  26.333  -4.541  0.00  0.00     0.178 C 
BRANCH  19  20
HETATM   20  O   UNK N   1      25.339  27.388  -4.508  0.00  0.00    -0.395 OA
HETATM   21  C   UNK N   1      25.868  28.311  -3.610  0.00  0.00     0.201 C 
ENDBRANCH  19  20
ENDBRANCH   2  19
TORSDOF 2
ENDMDL
MODEL 6
REMARK VINA RESULT:      -6.1     10.173     11.489
REMARK  2 active torsions:
REMARK  status: ('A' for Active; 'I' for Inactive)
REMARK    1  A    between atoms: C_2  and  C_19 
REMARK    2  A    between atoms: C_19  and  O_20 
ROOT
HETATM    1  C   UNK N   1      37.672  10.962  12.173  0.00  0.00     0.020 C 
HETATM    2  C   UNK N   1      36.433  11.538  11.495  0.00  0.00     0.015 C 
HETATM    3  C   UNK N   1      35.945  10.570  10.404  0.00  0.00     0.015 C 
HETATM    4  C   UNK N   1      35.371   9.288  10.988  0.00  0.00     0.031 C 
HETATM    5  C   UNK N   1      34.237   9.663  11.924  0.00  0.00     0.273 C 
HETATM    6  N   UNK N   1      34.756  10.464  13.026  0.00  0.00     0.100 N 
HETATM    7  C   UNK N   1      35.281  11.760  12.518  0.00  0.00     0.290 C 
HETATM    8  C   UNK N   1      35.632  12.630  13.707  0.00  0.00     0.095 A 
HETATM    9  C   UNK N   1      35.096  12.402  14.958  0.00  0.00    -0.011 A 
HETATM   10  C   UNK N   1      35.634  13.354  15.781  0.00  0.00     0.007 A 
HETATM   11  C   UNK N   1      35.456  13.606  17.137  0.00  0.00     0.015 A 
HETATM   12  C   UNK N   1      36.164  14.685  17.696  0.00  0.00     0.001 A 
HETATM   13  C   UNK N   1      37.020  15.473  16.891  0.00  0.00     0.003 A 
HETATM   14  C   UNK N   1      37.174  15.192  15.518  0.00  0.00     0.038 A 
HETATM   15  C   UNK N   1      36.459  14.117  14.994  0.00  0.00     0.086 A 
HETATM   16  O   UNK N   1      36.447  13.674  13.752  0.00  0.00    -0.311 OA
HETATM   17  C   UNK N   1      34.123  11.314  15.267  0.00  0.00     0.072 C 
HETATM   18  C   UNK N   1      33.641  10.678  13.954  0.00  0.00     0.278 C 
ENDROOT
BRANCH   2  19
HETATM   19  C   UNK N   1      36.789  12.859  10.806  0.00  0.00     0.178 C 
BRANCH  19  20
HETATM   20  O   UNK N   1      38.177  12.991  10.654  0.00  0.00    -0.395 OA
HETATM   21  C   UNK N   1      38.351  14.044   9.760  0.00  0.00     0.201 C 
ENDBRANCH  19  20
ENDBRANCH   2  19
TORSDOF 2
ENDMDL
MODEL 7
REMARK VINA RESULT:      -6.0      9.022     11.945
REMARK  2 active torsions:
REMARK  status: ('A' for Active; 'I' for Inactive)
REMARK    1  A    between atoms: C_2  and  C_19 
REMARK    2  A    between atoms: C_19  and  O_20 
ROOT
HETATM    1  C   UNK N   1      33.747  11.214  14.812  0.00  0.00     0.020 C 
HETATM    2  C   UNK N   1      34.853  11.596  15.792  0.00  0.00     0.015 C 
HETATM    3  C   UNK N   1      34.907  10.567  16.934  0.00  0.00     0.015 C 
HETATM    4  C   UNK N   1      35.409   9.211  16.463  0.00  0.00     0.031 C 
HETATM    5  C   UNK N   1      36.782   9.406  15.847  0.00  0.00     0.273 C 
HETATM    6  N   UNK N   1      36.675  10.274  14.680  0.00  0.00     0.100 N 
HETATM    7  C   UNK N   1      36.241  11.636  15.089  0.00  0.00     0.290 C 
HETATM    8  C   UNK N   1      36.327  12.545  13.882  0.00  0.00     0.095 A 
HETATM    9  C   UNK N   1      37.115  12.235  12.792  0.00  0.00    -0.011 A 
HETATM   10  C   UNK N   1      36.945  13.255  11.897  0.00  0.00     0.007 A 
HETATM   11  C   UNK N   1      37.487  13.473  10.635  0.00  0.00     0.015 A 
HETATM   12  C   UNK N   1      37.107  14.647   9.958  0.00  0.00     0.001 A 
HETATM   13  C   UNK N   1      36.206  15.559  10.557  0.00  0.00     0.003 A 
HETATM   14  C   UNK N   1      35.678  15.309  11.840  0.00  0.00     0.038 A 
HETATM   15  C   UNK N   1      36.074  14.138  12.485  0.00  0.00     0.086 A 
HETATM   16  O   UNK N   1      35.714  13.702  13.676  0.00  0.00    -0.311 OA
HETATM   17  C   UNK N   1      37.961  11.010  12.692  0.00  0.00     0.072 C 
HETATM   18  C   UNK N   1      38.004  10.312  14.060  0.00  0.00     0.278 C 
ENDROOT
BRANCH   2  19
HETATM   19  C   UNK N   1      34.538  12.957  16.419  0.00  0.00     0.178 C 
BRANCH  19  20
HETATM   20  O   UNK N   1      35.666  13.492  17.057  0.00  0.00    -0.395 OA
HETATM   21  C   UNK N   1      35.191  14.039  18.247  0.00  0.00     0.201 C 
ENDBRANCH  19  20
ENDBRANCH   2  19
TORSDOF 2
ENDMDL
MODEL 8
REMARK VINA RESULT:      -6.0     11.899     14.064
REMARK  2 active torsions:
REMARK  status: ('A' for Active; 'I' for Inactive)
REMARK    1  A    between atoms: C_2  and  C_19 
REMARK    2  A    between atoms: C_19  and  O_20 
ROOT
HETATM    1  C   UNK N   1      29.679  23.256  -3.010  0.00  0.00     0.020 C 
HETATM    2  C   UNK N   1      30.479  23.499  -4.287  0.00  0.00     0.015 C 
HETATM    3  C   UNK N   1      31.461  22.336  -4.509  0.00  0.00     0.015 C 
HETATM    4  C   UNK N   1      30.748  21.042  -4.870  0.00  0.00     0.031 C 
HETATM    5  C   UNK N   1      29.918  21.294  -6.115  0.00  0.00     0.273 C 
HETATM    6  N   UNK N   1      28.902  22.301  -5.831  0.00  0.00     0.100 N 
HETATM    7  C   UNK N   1      29.543  23.607  -5.526  0.00  0.00     0.290 C 
HETATM    8  C   UNK N   1      28.458  24.658  -5.426  0.00  0.00     0.095 A 
HETATM    9  C   UNK N   1      27.213  24.474  -5.993  0.00  0.00    -0.011 A 
HETATM   10  C   UNK N   1      26.492  25.599  -5.701  0.00  0.00     0.007 A 
HETATM   11  C   UNK N   1      25.187  25.965  -6.014  0.00  0.00     0.015 A 
HETATM   12  C   UNK N   1      24.736  27.218  -5.561  0.00  0.00     0.001 A 
HETATM   13  C   UNK N   1      25.594  28.061  -4.816  0.00  0.00     0.003 A 
HETATM   14  C   UNK N   1      26.913  27.661  -4.519  0.00  0.00     0.038 A 
HETATM   15  C   UNK N   1      27.331  26.414  -4.982  0.00  0.00     0.086 A 
HETATM   16  O   UNK N   1      28.507  25.839  -4.827  0.00  0.00    -0.311 OA
HETATM   17  C   UNK N   1      26.815  23.260  -6.763  0.00  0.00     0.072 C 
HETATM   18  C   UNK N   1      28.059  22.398  -7.027  0.00  0.00     0.278 C 
ENDROOT
BRANCH   2  19
HETATM   19  C   UNK N   1      31.311  24.777  -4.139  0.00  0.00     0.178 C 
BRANCH  19  20
HETATM   20  O   UNK N   1      30.923  25.503  -3.004  0.00  0.00    -0.395 OA
HETATM   21  C   UNK N   1      31.184  26.835  -3.313  0.00  0.00     0.201 C 
ENDBRANCH  19  20
ENDBRANCH   2  19
TORSDOF 2
ENDMDL
MODEL 9
REMARK VINA RESULT:      -5.7      4.237      6.155
REMARK  2 active torsions:
REMARK  status: ('A' for Active; 'I' for Inactive)
REMARK    1  A    between atoms: C_2  and  C_19 
REMARK    2  A    between atoms: C_19  and  O_20 
ROOT
HETATM    1  C   UNK N   1      25.691  15.955   3.441  0.00  0.00     0.020 C 
HETATM    2  C   UNK N   1      25.965  16.631   4.781  0.00  0.00     0.015 C 
HETATM    3  C   UNK N   1      27.431  16.399   5.184  0.00  0.00     0.015 C 
HETATM    4  C   UNK N   1      28.400  17.156   4.289  0.00  0.00     0.031 C 
HETATM    5  C   UNK N   1      28.048  18.631   4.355  0.00  0.00     0.273 C 
HETATM    6  N   UNK N   1      26.702  18.836   3.833  0.00  0.00     0.100 N 
HETATM    7  C   UNK N   1      25.703  18.163   4.705  0.00  0.00     0.290 C 
HETATM    8  C   UNK N   1      24.319  18.559   4.236  0.00  0.00     0.095 A 
HETATM    9  C   UNK N   1      24.105  19.690   3.475  0.00  0.00    -0.011 A 
HETATM   10  C   UNK N   1      22.760  19.731   3.225  0.00  0.00     0.007 A 
HETATM   11  C   UNK N   1      21.983  20.638   2.513  0.00  0.00     0.015 A 
HETATM   12  C   UNK N   1      20.598  20.396   2.445  0.00  0.00     0.001 A 
HETATM   13  C   UNK N   1      20.038  19.264   3.084  0.00  0.00     0.003 A 
HETATM   14  C   UNK N   1      20.855  18.367   3.801  0.00  0.00     0.038 A 
HETATM   15  C   UNK N   1      22.222  18.634   3.851  0.00  0.00     0.086 A 
HETATM   16  O   UNK N   1      23.167  17.942   4.456  0.00  0.00    -0.311 OA
HETATM   17  C   UNK N   1      25.182  20.633   3.055  0.00  0.00     0.072 C 
HETATM   18  C   UNK N   1      26.478  20.286   3.802  0.00  0.00     0.278 C 
ENDROOT
BRANCH   2  19
HETATM   19  C   UNK N   1      25.088  15.997   5.866  0.00  0.00     0.178 C 
BRANCH  19  20
HETATM   20  O   UNK N   1      25.871  15.363   6.841  0.00  0.00    -0.395 OA
HETATM   21  C   UNK N   1      25.091  14.308   7.309  0.00  0.00     0.201 C 
ENDBRANCH  19  20
ENDBRANCH   2  19
TORSDOF 2
ENDMDL
