MODEL 1
REMARK VINA RESULT:      -7.5      0.000      0.000
REMARK  2 active torsions:
REMARK  status: ('A' for Active; 'I' for Inactive)
REMARK    1  A    between atoms: C_4  and  C_2 
REMARK    2  A    between atoms: C_19  and  O_20 
ROOT
HETATM    1  C   UNK N   1      35.119  12.376  10.421  0.00  0.00     0.122 A 
HETATM    2  C   UNK N   1      35.340  13.686  11.129  0.00  0.00     0.192 A 
HETATM    3  O   UNK N   1      36.320  13.114  10.306  0.00  0.00    -0.363 OA
HETATM    4  C   UNK N   1      35.778  13.624  12.605  0.00  0.00     0.193 A 
HETATM    5  C   UNK N   1      35.567  12.360  13.383  0.00  0.00     0.134 A 
HETATM    6  O   UNK N   1      34.587  13.366  13.317  0.00  0.00    -0.362 OA
HETATM    7  C   UNK N   1      36.029  12.178  14.843  0.00  0.00     0.001 C 
HETATM    8  C   UNK N   1      36.123  13.540  15.608  0.00  0.00     0.018 C 
HETATM    9  C   UNK N   1      35.418  13.632  16.987  0.00  0.00     0.046 C 
HETATM   10  C   UNK N   1      35.291  12.287  17.639  0.00  0.00     0.022 A 
HETATM   11  C   UNK N   1      35.111  11.185  16.963  0.00  0.00    -0.038 A 
HETATM   12  C   UNK N   1      34.986  11.232  15.478  0.00  0.00     0.031 C 
HETATM   13  C   UNK N   1      34.943   9.843  14.834  0.00  0.00     0.045 C 
HETATM   14  C   UNK N   1      34.812   9.837  13.302  0.00  0.00     0.164 A 
HETATM   15  C   UNK N   1      35.152  11.109  12.597  0.00  0.00     0.150 A 
HETATM   16  C   UNK N   1      35.457  11.047  11.103  0.00  0.00     0.196 C 
HETATM   17  O   UNK N   1      33.818  10.751  12.891  0.00  0.00    -0.363 OA
HETATM   18  C   UNK N   1      35.051   9.989  17.895  0.00  0.00     0.214 A 
HETATM   19  O   UNK N   1      35.195  10.585  19.145  0.00  0.00    -0.313 OA
HETATM   20  C   UNK N   1      35.337  11.917  19.020  0.00  0.00     0.289 A 
HETATM   21  O   UNK N   1      35.461  12.680  19.961  0.00  0.00    -0.260 OA
HETATM   22  C   UNK N   1      37.417  11.546  14.867  0.00  0.00     0.019 C 
ENDROOT
BRANCH   1  23
HETATM   23  C   UNK N   1      34.367  12.359   9.072  0.00  0.00     0.017 C 
HETATM   24  C   UNK N   1      35.310  12.495   7.890  0.00  0.00     0.012 C 
HETATM   25  C   UNK N   1      33.251  13.388   8.959  0.00  0.00     0.012 C 
ENDBRANCH   1  23
BRANCH  16  26
HETATM   26  O   UNK N   1      34.797   9.973  10.493  0.00  0.00    -0.389 OA
HETATM   27  H   UNK N   1      35.269   9.150  10.286  0.00  0.00     0.210 HD
ENDBRANCH  16  26
TORSDOF 2
ENDMDL
MODEL 2
REMARK VINA RESULT:      -7.4      3.637      6.141
REMARK  2 active torsions:
REMARK  status: ('A' for Active; 'I' for Inactive)
REMARK    1  A    between atoms: C_4  and  C_2 
REMARK    2  A    between atoms: C_19  and  O_20 
ROOT
HETATM    1  C   UNK N   1      33.013  16.998   6.399  0.00  0.00     0.122 A 
HETATM    2  C   UNK N   1      33.647  17.933   7.394  0.00  0.00     0.192 A 
HETATM    3  O   UNK N   1      34.188  17.732   6.116  0.00  0.00    -0.363 OA
HETATM    4  C   UNK N   1      34.560  17.307   8.466  0.00  0.00     0.193 A 
HETATM    5  C   UNK N   1      34.459  15.838   8.751  0.00  0.00     0.134 A 
HETATM    6  O   UNK N   1      33.669  16.784   9.427  0.00  0.00    -0.362 OA
HETATM    7  C   UNK N   1      35.372  15.107   9.757  0.00  0.00     0.001 C 
HETATM    8  C   UNK N   1      35.915  16.067  10.867  0.00  0.00     0.018 C 
HETATM    9  C   UNK N   1      35.757  15.611  12.343  0.00  0.00     0.046 C 
HETATM   10  C   UNK N   1      35.678  14.118  12.460  0.00  0.00     0.022 A 
HETATM   11  C   UNK N   1      35.122  13.363  11.551  0.00  0.00    -0.038 A 
HETATM   12  C   UNK N   1      34.494  13.982  10.348  0.00  0.00     0.031 C 
HETATM   13  C   UNK N   1      34.036  12.951   9.313  0.00  0.00     0.045 C 
HETATM   14  C   UNK N   1      33.379  13.538   8.053  0.00  0.00     0.164 A 
HETATM   15  C   UNK N   1      33.625  14.987   7.784  0.00  0.00     0.150 A 
HETATM   16  C   UNK N   1      33.378  15.512   6.373  0.00  0.00     0.196 C 
HETATM   17  O   UNK N   1      32.442  14.533   8.407  0.00  0.00    -0.363 OA
HETATM   18  C   UNK N   1      35.225  11.900  11.936  0.00  0.00     0.214 A 
HETATM   19  O   UNK N   1      35.878  11.965  13.165  0.00  0.00    -0.313 OA
HETATM   20  C   UNK N   1      36.152  13.242  13.486  0.00  0.00     0.289 A 
HETATM   21  O   UNK N   1      36.702  13.581  14.519  0.00  0.00    -0.260 OA
HETATM   22  C   UNK N   1      36.578  14.526   9.028  0.00  0.00     0.019 C 
ENDROOT
BRANCH   1  23
HETATM   23  C   UNK N   1      31.842  17.500   5.524  0.00  0.00     0.017 C 
HETATM   24  C   UNK N   1      30.515  16.891   5.941  0.00  0.00     0.012 C 
HETATM   25  C   UNK N   1      32.047  17.309   4.028  0.00  0.00     0.012 C 
ENDBRANCH   1  23
BRANCH  16  26
HETATM   26  O   UNK N   1      32.404  14.753   5.711  0.00  0.00    -0.389 OA
HETATM   27  H   UNK N   1      32.343  13.794   5.845  0.00  0.00     0.210 HD
ENDBRANCH  16  26
TORSDOF 2
ENDMDL
MODEL 3
REMARK VINA RESULT:      -7.2      2.747      7.820
REMARK  2 active torsions:
REMARK  status: ('A' for Active; 'I' for Inactive)
REMARK    1  A    between atoms: C_4  and  C_2 
REMARK    2  A    between atoms: C_19  and  O_20 
ROOT
HETATM    1  C   UNK N   1      35.647  11.345  12.914  0.00  0.00     0.122 A 
HETATM    2  C   UNK N   1      35.263  10.699  11.610  0.00  0.00     0.192 A 
HETATM    3  O   UNK N   1      36.527  10.513  12.184  0.00  0.00    -0.363 OA
HETATM    4  C   UNK N   1      35.375  11.561  10.337  0.00  0.00     0.193 A 
HETATM    5  C   UNK N   1      35.439  13.054  10.463  0.00  0.00     0.134 A 
HETATM    6  O   UNK N   1      34.217  12.368  10.353  0.00  0.00    -0.362 OA
HETATM    7  C   UNK N   1      35.616  13.998   9.256  0.00  0.00     0.001 C 
HETATM    8  C   UNK N   1      35.086  13.364   7.927  0.00  0.00     0.018 C 
HETATM    9  C   UNK N   1      34.117  14.219   7.068  0.00  0.00     0.046 C 
HETATM   10  C   UNK N   1      34.311  15.687   7.302  0.00  0.00     0.022 A 
HETATM   11  C   UNK N   1      34.657  16.182   8.460  0.00  0.00    -0.038 A 
HETATM   12  C   UNK N   1      34.840  15.279   9.633  0.00  0.00     0.031 C 
HETATM   13  C   UNK N   1      35.400  15.997  10.863  0.00  0.00     0.045 C 
HETATM   14  C   UNK N   1      35.605  15.110  12.102  0.00  0.00     0.164 A 
HETATM   15  C   UNK N   1      35.641  13.635  11.869  0.00  0.00     0.150 A 
HETATM   16  C   UNK N   1      36.257  12.749  12.947  0.00  0.00     0.196 C 
HETATM   17  O   UNK N   1      34.473  14.293  12.312  0.00  0.00    -0.363 OA
HETATM   18  C   UNK N   1      34.805  17.689   8.376  0.00  0.00     0.214 A 
HETATM   19  O   UNK N   1      34.474  17.942   7.047  0.00  0.00    -0.313 OA
HETATM   20  C   UNK N   1      34.187  16.795   6.406  0.00  0.00     0.289 A 
HETATM   21  O   UNK N   1      33.847  16.734   5.237  0.00  0.00    -0.260 OA
HETATM   22  C   UNK N   1      37.097  14.302   9.056  0.00  0.00     0.019 C 
ENDROOT
BRANCH   1  23
HETATM   23  C   UNK N   1      35.246  10.668  14.244  0.00  0.00     0.017 C 
HETATM   24  C   UNK N   1      35.695   9.218  14.305  0.00  0.00     0.012 C 
HETATM   25  C   UNK N   1      33.763  10.760  14.576  0.00  0.00     0.012 C 
ENDBRANCH   1  23
BRANCH  16  26
HETATM   26  O   UNK N   1      36.139  13.332  14.214  0.00  0.00    -0.389 OA
HETATM   27  H   UNK N   1      36.907  13.728  14.656  0.00  0.00     0.210 HD
ENDBRANCH  16  26
TORSDOF 2
ENDMDL
MODEL 4
REMARK VINA RESULT:      -7.1      1.864      3.446
REMARK  2 active torsions:
REMARK  status: ('A' for Active; 'I' for Inactive)
REMARK    1  A    between atoms: C_4  and  C_2 
REMARK    2  A    between atoms: C_19  and  O_20 
ROOT
HETATM    1  C   UNK N   1      36.730  12.960  11.502  0.00  0.00     0.122 A 
HETATM    2  C   UNK N   1      36.755  11.457  11.411  0.00  0.00     0.192 A 
HETATM    3  O   UNK N   1      35.795  12.225  10.738  0.00  0.00    -0.363 OA
HETATM    4  C   UNK N   1      36.099  10.672  12.563  0.00  0.00     0.193 A 
HETATM    5  C   UNK N   1      35.855  11.356  13.876  0.00  0.00     0.134 A 
HETATM    6  O   UNK N   1      37.061  10.690  13.596  0.00  0.00    -0.362 OA
HETATM    7  C   UNK N   1      35.148  10.676  15.066  0.00  0.00     0.001 C 
HETATM    8  C   UNK N   1      35.298   9.119  15.032  0.00  0.00     0.018 C 
HETATM    9  C   UNK N   1      35.787   8.422  16.329  0.00  0.00     0.046 C 
HETATM   10  C   UNK N   1      35.462   9.228  17.551  0.00  0.00     0.022 A 
HETATM   11  C   UNK N   1      35.448  10.534  17.558  0.00  0.00    -0.038 A 
HETATM   12  C   UNK N   1      35.802  11.290  16.323  0.00  0.00     0.031 C 
HETATM   13  C   UNK N   1      35.578  12.799  16.458  0.00  0.00     0.045 C 
HETATM   14  C   UNK N   1      35.931  13.626  15.211  0.00  0.00     0.164 A 
HETATM   15  C   UNK N   1      36.044  12.878  13.923  0.00  0.00     0.150 A 
HETATM   16  C   UNK N   1      35.960  13.668  12.620  0.00  0.00     0.196 C 
HETATM   17  O   UNK N   1      37.179  13.220  14.690  0.00  0.00    -0.363 OA
HETATM   18  C   UNK N   1      35.054  11.057  18.926  0.00  0.00     0.214 A 
HETATM   19  O   UNK N   1      34.885   9.881  19.652  0.00  0.00    -0.313 OA
HETATM   20  C   UNK N   1      35.114   8.808  18.874  0.00  0.00     0.289 A 
HETATM   21  O   UNK N   1      35.053   7.656  19.266  0.00  0.00    -0.260 OA
HETATM   22  C   UNK N   1      33.656  10.990  15.024  0.00  0.00     0.019 C 
ENDROOT
BRANCH   1  23
HETATM   23  C   UNK N   1      37.646  13.791  10.576  0.00  0.00     0.017 C 
HETATM   24  C   UNK N   1      36.924  14.250   9.321  0.00  0.00     0.012 C 
HETATM   25  C   UNK N   1      38.950  13.103  10.196  0.00  0.00     0.012 C 
ENDBRANCH   1  23
BRANCH  16  26
HETATM   26  O   UNK N   1      36.402  14.986  12.795  0.00  0.00    -0.389 OA
HETATM   27  H   UNK N   1      36.054  15.537  13.514  0.00  0.00     0.210 HD
ENDBRANCH  16  26
TORSDOF 2
ENDMDL
MODEL 5
REMARK VINA RESULT:      -7.1     12.488     15.387
REMARK  2 active torsions:
REMARK  status: ('A' for Active; 'I' for Inactive)
REMARK    1  A    between atoms: C_4  and  C_2 
REMARK    2  A    between atoms: C_19  and  O_20 
ROOT
HETATM    1  C   UNK N   1      21.269  16.753   4.065  0.00  0.00     0.122 A 
HETATM    2  C   UNK N   1      22.751  16.490   4.104  0.00  0.00     0.192 A 
HETATM    3  O   UNK N   1      21.927  15.943   3.111  0.00  0.00    -0.363 OA
HETATM    4  C   UNK N   1      23.245  15.384   5.057  0.00  0.00     0.193 A 
HETATM    5  C   UNK N   1      22.355  14.924   6.174  0.00  0.00     0.134 A 
HETATM    6  O   UNK N   1      23.254  15.993   6.331  0.00  0.00    -0.362 OA
HETATM    7  C   UNK N   1      22.732  13.781   7.139  0.00  0.00     0.001 C 
HETATM    8  C   UNK N   1      24.281  13.608   7.274  0.00  0.00     0.018 C 
HETATM    9  C   UNK N   1      24.868  13.551   8.710  0.00  0.00     0.046 C 
HETATM   10  C   UNK N   1      23.859  13.064   9.706  0.00  0.00     0.022 A 
HETATM   11  C   UNK N   1      22.582  13.321   9.606  0.00  0.00    -0.038 A 
HETATM   12  C   UNK N   1      22.075  14.161   8.484  0.00  0.00     0.031 C 
HETATM   13  C   UNK N   1      20.547  14.227   8.425  0.00  0.00     0.045 C 
HETATM   14  C   UNK N   1      19.972  15.085   7.286  0.00  0.00     0.164 A 
HETATM   15  C   UNK N   1      20.897  15.403   6.157  0.00  0.00     0.150 A 
HETATM   16  C   UNK N   1      20.291  15.861   4.834  0.00  0.00     0.196 C 
HETATM   17  O   UNK N   1      20.658  16.317   7.207  0.00  0.00    -0.363 OA
HETATM   18  C   UNK N   1      21.816  12.670  10.742  0.00  0.00     0.214 A 
HETATM   19  O   UNK N   1      22.833  12.060  11.471  0.00  0.00    -0.313 OA
HETATM   20  C   UNK N   1      24.026  12.274  10.887  0.00  0.00     0.289 A 
HETATM   21  O   UNK N   1      25.085  11.866  11.330  0.00  0.00    -0.260 OA
HETATM   22  C   UNK N   1      22.171  12.462   6.617  0.00  0.00     0.019 C 
ENDROOT
BRANCH   1  23
HETATM   23  C   UNK N   1      20.745  18.047   3.403  0.00  0.00     0.017 C 
HETATM   24  C   UNK N   1      20.303  17.815   1.969  0.00  0.00     0.012 C 
HETATM   25  C   UNK N   1      21.714  19.220   3.458  0.00  0.00     0.012 C 
ENDBRANCH   1  23
BRANCH  16  26
HETATM   26  O   UNK N   1      19.059  16.497   5.032  0.00  0.00    -0.389 OA
HETATM   27  H   UNK N   1      18.311  16.024   5.429  0.00  0.00     0.210 HD
ENDBRANCH  16  26
TORSDOF 2
ENDMDL
MODEL 6
REMARK VINA RESULT:      -7.0     19.589     22.882
REMARK  2 active torsions:
REMARK  status: ('A' for Active; 'I' for Inactive)
REMARK    1  A    between atoms: C_4  and  C_2 
REMARK    2  A    between atoms: C_19  and  O_20 
ROOT
HETATM    1  C   UNK N   1      27.086  25.382  -4.707  0.00  0.00     0.122 A 
HETATM    2  C   UNK N   1      27.941  25.612  -5.923  0.00  0.00     0.192 A 
HETATM    3  O   UNK N   1      26.709  24.949  -5.999  0.00  0.00    -0.363 OA
HETATM    4  C   UNK N   1      29.097  24.623  -6.169  0.00  0.00     0.193 A 
HETATM    5  C   UNK N   1      29.588  23.769  -5.038  0.00  0.00     0.134 A 
HETATM    6  O   UNK N   1      30.118  25.046  -5.291  0.00  0.00    -0.362 OA
HETATM    7  C   UNK N   1      30.693  22.705  -5.199  0.00  0.00     0.001 C 
HETATM    8  C   UNK N   1      31.658  23.031  -6.386  0.00  0.00     0.018 C 
HETATM    9  C   UNK N   1      33.183  22.998  -6.094  0.00  0.00     0.046 C 
HETATM   10  C   UNK N   1      33.510  22.095  -4.943  0.00  0.00     0.022 A 
HETATM   11  C   UNK N   1      32.715  21.932  -3.920  0.00  0.00    -0.038 A 
HETATM   12  C   UNK N   1      31.432  22.689  -3.843  0.00  0.00     0.031 C 
HETATM   13  C   UNK N   1      30.551  22.259  -2.667  0.00  0.00     0.045 C 
HETATM   14  C   UNK N   1      29.216  23.012  -2.542  0.00  0.00     0.164 A 
HETATM   15  C   UNK N   1      28.746  23.746  -3.755  0.00  0.00     0.150 A 
HETATM   16  C   UNK N   1      27.273  24.135  -3.838  0.00  0.00     0.196 C 
HETATM   17  O   UNK N   1      29.420  24.400  -2.701  0.00  0.00    -0.363 OA
HETATM   18  C   UNK N   1      33.304  20.937  -2.938  0.00  0.00     0.214 A 
HETATM   19  O   UNK N   1      34.515  20.610  -3.543  0.00  0.00    -0.313 OA
HETATM   20  C   UNK N   1      34.653  21.268  -4.708  0.00  0.00     0.289 A 
HETATM   21  O   UNK N   1      35.631  21.177  -5.430  0.00  0.00    -0.260 OA
HETATM   22  C   UNK N   1      30.060  21.347  -5.487  0.00  0.00     0.019 C 
ENDROOT
BRANCH   1  23
HETATM   23  C   UNK N   1      26.141  26.503  -4.219  0.00  0.00     0.017 C 
HETATM   24  C   UNK N   1      25.186  26.960  -5.307  0.00  0.00     0.012 C 
HETATM   25  C   UNK N   1      26.852  27.709  -3.620  0.00  0.00     0.012 C 
ENDBRANCH   1  23
BRANCH  16  26
HETATM   26  O   UNK N   1      26.720  24.307  -2.563  0.00  0.00    -0.389 OA
HETATM   27  H   UNK N   1      26.606  23.554  -1.962  0.00  0.00     0.210 HD
ENDBRANCH  16  26
TORSDOF 2
ENDMDL
MODEL 7
REMARK VINA RESULT:      -6.8      7.561     11.240
REMARK  2 active torsions:
REMARK  status: ('A' for Active; 'I' for Inactive)
REMARK    1  A    between atoms: C_4  and  C_2 
REMARK    2  A    between atoms: C_19  and  O_20 
ROOT
HETATM    1  C   UNK N   1      27.673  18.580   5.834  0.00  0.00     0.122 A 
HETATM    2  C   UNK N   1      28.406  18.424   4.529  0.00  0.00     0.192 A 
HETATM    3  O   UNK N   1      27.230  17.713   4.808  0.00  0.00    -0.363 OA
HETATM    4  C   UNK N   1      29.616  17.469   4.511  0.00  0.00     0.193 A 
HETATM    5  C   UNK N   1      30.264  17.078   5.806  0.00  0.00     0.134 A 
HETATM    6  O   UNK N   1      30.665  18.217   5.086  0.00  0.00    -0.362 OA
HETATM    7  C   UNK N   1      31.437  16.080   5.897  0.00  0.00     0.001 C 
HETATM    8  C   UNK N   1      32.274  16.029   4.577  0.00  0.00     0.018 C 
HETATM    9  C   UNK N   1      33.814  16.175   4.704  0.00  0.00     0.046 C 
HETATM   10  C   UNK N   1      34.306  15.737   6.051  0.00  0.00     0.022 A 
HETATM   11  C   UNK N   1      33.611  15.893   7.146  0.00  0.00    -0.038 A 
HETATM   12  C   UNK N   1      32.281  16.565   7.096  0.00  0.00     0.031 C 
HETATM   13  C   UNK N   1      31.535  16.519   8.432  0.00  0.00     0.045 C 
HETATM   14  C   UNK N   1      30.158  17.202   8.435  0.00  0.00     0.164 A 
HETATM   15  C   UNK N   1      29.533  17.452   7.102  0.00  0.00     0.150 A 
HETATM   16  C   UNK N   1      28.031  17.715   7.046  0.00  0.00     0.196 C 
HETATM   17  O   UNK N   1      30.233  18.460   7.800  0.00  0.00    -0.363 OA
HETATM   18  C   UNK N   1      34.357  15.325   8.338  0.00  0.00     0.214 A 
HETATM   19  O   UNK N   1      35.538  14.872   7.756  0.00  0.00    -0.313 OA
HETATM   20  C   UNK N   1      35.529  15.099   6.430  0.00  0.00     0.289 A 
HETATM   21  O   UNK N   1      36.449  14.816   5.684  0.00  0.00    -0.260 OA
HETATM   22  C   UNK N   1      30.897  14.676   6.148  0.00  0.00     0.019 C 
ENDROOT
BRANCH   1  23
HETATM   23  C   UNK N   1      26.681  19.751   6.013  0.00  0.00     0.017 C 
HETATM   24  C   UNK N   1      25.594  19.747   4.953  0.00  0.00     0.012 C 
HETATM   25  C   UNK N   1      27.334  21.125   6.072  0.00  0.00     0.012 C 
ENDBRANCH   1  23
BRANCH  16  26
HETATM   26  O   UNK N   1      27.569  18.285   8.240  0.00  0.00    -0.389 OA
HETATM   27  H   UNK N   1      26.928  17.820   8.799  0.00  0.00     0.210 HD
ENDBRANCH  16  26
TORSDOF 2
ENDMDL
MODEL 8
REMARK VINA RESULT:      -6.8      3.153      8.321
REMARK  2 active torsions:
REMARK  status: ('A' for Active; 'I' for Inactive)
REMARK    1  A    between atoms: C_4  and  C_2 
REMARK    2  A    between atoms: C_19  and  O_20 
ROOT
HETATM    1  C   UNK N   1      35.812  13.070  12.552  0.00  0.00     0.122 A 
HETATM    2  C   UNK N   1      35.845  14.573  12.628  0.00  0.00     0.192 A 
HETATM    3  O   UNK N   1      34.950  13.812  13.392  0.00  0.00    -0.363 OA
HETATM    4  C   UNK N   1      35.088  15.350  11.533  0.00  0.00     0.193 A 
HETATM    5  C   UNK N   1      34.725  14.656  10.255  0.00  0.00     0.134 A 
HETATM    6  O   UNK N   1      35.952  15.322  10.418  0.00  0.00    -0.362 OA
HETATM    7  C   UNK N   1      33.913  15.326   9.128  0.00  0.00     0.001 C 
HETATM    8  C   UNK N   1      34.066  16.884   9.136  0.00  0.00     0.018 C 
HETATM    9  C   UNK N   1      34.436  17.569   7.793  0.00  0.00     0.046 C 
HETATM   10  C   UNK N   1      34.000  16.754   6.613  0.00  0.00     0.022 A 
HETATM   11  C   UNK N   1      33.985  15.448   6.618  0.00  0.00    -0.038 A 
HETATM   12  C   UNK N   1      34.450  14.702   7.822  0.00  0.00     0.031 C 
HETATM   13  C   UNK N   1      34.214  13.192   7.720  0.00  0.00     0.045 C 
HETATM   14  C   UNK N   1      34.678  12.375   8.937  0.00  0.00     0.164 A 
HETATM   15  C   UNK N   1      34.908  13.133  10.203  0.00  0.00     0.150 A 
HETATM   16  C   UNK N   1      34.943  12.354  11.515  0.00  0.00     0.196 C 
HETATM   17  O   UNK N   1      35.968  12.784   9.338  0.00  0.00    -0.363 OA
HETATM   18  C   UNK N   1      33.468  14.914   5.295  0.00  0.00     0.214 A 
HETATM   19  O   UNK N   1      33.234  16.085   4.578  0.00  0.00    -0.313 OA
HETATM   20  C   UNK N   1      33.533  17.163   5.324  0.00  0.00     0.289 A 
HETATM   21  O   UNK N   1      33.438  18.312   4.930  0.00  0.00    -0.260 OA
HETATM   22  C   UNK N   1      32.431  15.015   9.308  0.00  0.00     0.019 C 
ENDROOT
BRANCH   1  23
HETATM   23  C   UNK N   1      36.808  12.245  13.398  0.00  0.00     0.017 C 
HETATM   24  C   UNK N   1      37.788  11.472  12.534  0.00  0.00     0.012 C 
HETATM   25  C   UNK N   1      36.154  11.304  14.400  0.00  0.00     0.012 C 
ENDBRANCH   1  23
BRANCH  16  26
HETATM   26  O   UNK N   1      35.366  11.034  11.311  0.00  0.00    -0.389 OA
HETATM   27  H   UNK N   1      36.238  10.843  10.930  0.00  0.00     0.210 HD
ENDBRANCH  16  26
TORSDOF 2
ENDMDL
MODEL 9
REMARK VINA RESULT:      -6.3     14.163     15.837
REMARK  2 active torsions:
REMARK  status: ('A' for Active; 'I' for Inactive)
REMARK    1  A    between atoms: C_4  and  C_2 
REMARK    2  A    between atoms: C_19  and  O_20 
ROOT
HETATM    1  C   UNK N   1      24.760  18.166   3.879  0.00  0.00     0.122 A 
HETATM    2  C   UNK N   1      25.441  16.917   4.369  0.00  0.00     0.192 A 
HETATM    3  O   UNK N   1      25.021  17.059   3.040  0.00  0.00    -0.363 OA
HETATM    4  C   UNK N   1      24.566  15.878   5.098  0.00  0.00     0.193 A 
HETATM    5  C   UNK N   1      23.238  16.296   5.655  0.00  0.00     0.134 A 
HETATM    6  O   UNK N   1      24.422  16.391   6.405  0.00  0.00    -0.362 OA
HETATM    7  C   UNK N   1      22.263  15.317   6.342  0.00  0.00     0.001 C 
HETATM    8  C   UNK N   1      23.003  14.088   6.968  0.00  0.00     0.018 C 
HETATM    9  C   UNK N   1      22.679  13.739   8.445  0.00  0.00     0.046 C 
HETATM   10  C   UNK N   1      21.315  14.216   8.845  0.00  0.00     0.022 A 
HETATM   11  C   UNK N   1      20.777  15.308   8.371  0.00  0.00    -0.038 A 
HETATM   12  C   UNK N   1      21.540  16.161   7.415  0.00  0.00     0.031 C 
HETATM   13  C   UNK N   1      20.706  17.308   6.836  0.00  0.00     0.045 C 
HETATM   14  C   UNK N   1      21.448  18.220   5.845  0.00  0.00     0.164 A 
HETATM   15  C   UNK N   1      22.707  17.678   5.251  0.00  0.00     0.150 A 
HETATM   16  C   UNK N   1      23.240  18.324   3.976  0.00  0.00     0.196 C 
HETATM   17  O   UNK N   1      22.720  18.562   6.352  0.00  0.00    -0.363 OA
HETATM   18  C   UNK N   1      19.385  15.508   8.938  0.00  0.00     0.214 A 
HETATM   19  O   UNK N   1      19.253  14.412   9.786  0.00  0.00    -0.313 OA
HETATM   20  C   UNK N   1      20.360  13.648   9.746  0.00  0.00     0.289 A 
HETATM   21  O   UNK N   1      20.516  12.638  10.408  0.00  0.00    -0.260 OA
HETATM   22  C   UNK N   1      21.270  14.778   5.318  0.00  0.00     0.019 C 
ENDROOT
BRANCH   1  23
HETATM   23  C   UNK N   1      25.616  19.379   3.450  0.00  0.00     0.017 C 
HETATM   24  C   UNK N   1      25.969  20.273   4.626  0.00  0.00     0.012 C 
HETATM   25  C   UNK N   1      25.007  20.217   2.334  0.00  0.00     0.012 C 
ENDBRANCH   1  23
BRANCH  16  26
HETATM   26  O   UNK N   1      22.855  19.668   3.887  0.00  0.00    -0.389 OA
HETATM   27  H   UNK N   1      21.925  19.928   3.984  0.00  0.00     0.210 HD
ENDBRANCH  16  26
TORSDOF 2
ENDMDL
