MODEL 1
REMARK VINA RESULT:      -7.8      0.000      0.000
REMARK  5 active torsions:
REMARK  status: ('A' for Active; 'I' for Inactive)
REMARK    1  A    between atoms: C_6  and  C_7 
REMARK    2  A    between atoms: C_7  and  C_8 
REMARK    3  A    between atoms: C_9  and  O_26 
REMARK    4  A    between atoms: C_10  and  C_23 
REMARK    5  A    between atoms: C_23  and  O_25 
ROOT
HETATM    1  C   UNK N   1      24.983  19.380   3.833  0.00  0.00     0.048 A 
HETATM    2  C   UNK N   1      24.055  20.150   3.116  0.00  0.00     0.106 A 
HETATM    3  C   UNK N   1      22.679  19.803   3.129  0.00  0.00     0.085 A 
HETATM    4  C   UNK N   1      22.281  18.658   3.881  0.00  0.00     0.011 A 
HETATM    5  C   UNK N   1      20.948  18.226   3.931  0.00  0.00     0.015 A 
HETATM    6  C   UNK N   1      20.588  17.095   4.664  0.00  0.00     0.009 A 
HETATM    7  C   UNK N   1      21.550  16.371   5.368  0.00  0.00    -0.050 A 
HETATM    8  C   UNK N   1      22.900  16.781   5.329  0.00  0.00    -0.024 A 
HETATM    9  C   UNK N   1      23.260  17.924   4.591  0.00  0.00     0.051 A 
HETATM   10  N   UNK N   1      24.557  18.308   4.545  0.00  0.00    -0.356 N 
ATOM     11  HN  UNK N   1      25.243  17.766   5.070  1.00  0.00     0.166 HD
HETATM   12  C   UNK N   1      23.970  16.006   6.061  0.00  0.00     0.041 C 
HETATM   13  C   UNK N   1      23.529  14.596   6.437  0.00  0.00     0.005 C 
HETATM   14  C   UNK N   1      22.173  14.645   7.115  0.00  0.00     0.005 C 
HETATM   15  C   UNK N   1      21.111  15.160   6.147  0.00  0.00     0.039 C 
ENDROOT
BRANCH   1  16
HETATM   16  C   UNK N   1      26.457  19.712   3.766  0.00  0.00     0.098 C 
BRANCH  16  17
HETATM   17  C   UNK N   1      27.315  19.196   4.893  0.00  0.00    -0.052 A 
HETATM   18  C   UNK N   1      27.266  19.769   6.174  0.00  0.00     0.009 A 
HETATM   19  C   UNK N   1      28.057  19.262   7.208  0.00  0.00     0.024 A 
HETATM   20  C   UNK N   1      28.879  18.158   6.979  0.00  0.00     0.034 A 
HETATM   21  C   UNK N   1      28.912  17.562   5.714  0.00  0.00     0.024 A 
HETATM   22 Cl   UNK N   1      29.862  17.520   8.279  0.00  0.00    -0.084 Cl
HETATM   23  C   UNK N   1      28.134  18.082   4.673  0.00  0.00     0.009 A 
ENDBRANCH  16  17
ENDBRANCH   1  16
BRANCH   2  24
HETATM   24  O   UNK N   1      24.492  21.212   2.411  0.00  0.00    -0.358 OA
HETATM   25  H   UNK N   1      25.249  21.134   1.866  0.00  0.00     0.217 HD
ENDBRANCH   2  24
BRANCH   3  26
HETATM   26  C   UNK N   1      21.687  20.626   2.350  0.00  0.00     0.179 C 
HETATM   27  O   UNK N   1      21.631  20.556   1.133  0.00  0.00    -0.646 OA
BRANCH  26  28
HETATM   28  O   UNK N   1      20.838  21.459   2.984  0.00  0.00    -0.773 OA
HETATM   29  H   UNK N   1      21.157  22.033   3.653  0.00  0.00     0.167 HD
ENDBRANCH  26  28
ENDBRANCH   3  26
TORSDOF 5
ENDMDL
MODEL 2
REMARK VINA RESULT:      -7.7      4.112      8.085
REMARK  5 active torsions:
REMARK  status: ('A' for Active; 'I' for Inactive)
REMARK    1  A    between atoms: C_6  and  C_7 
REMARK    2  A    between atoms: C_7  and  C_8 
REMARK    3  A    between atoms: C_9  and  O_26 
REMARK    4  A    between atoms: C_10  and  C_23 
REMARK    5  A    between atoms: C_23  and  O_25 
ROOT
HETATM    1  C   UNK N   1      28.343  18.941   5.187  0.00  0.00     0.048 A 
HETATM    2  C   UNK N   1      28.073  18.993   6.563  0.00  0.00     0.106 A 
HETATM    3  C   UNK N   1      28.893  18.283   7.477  0.00  0.00     0.085 A 
HETATM    4  C   UNK N   1      29.981  17.523   6.955  0.00  0.00     0.011 A 
HETATM    5  C   UNK N   1      30.828  16.770   7.781  0.00  0.00     0.015 A 
HETATM    6  C   UNK N   1      31.878  16.026   7.244  0.00  0.00     0.009 A 
HETATM    7  C   UNK N   1      32.109  16.018   5.868  0.00  0.00    -0.050 A 
HETATM    8  C   UNK N   1      31.267  16.762   5.014  0.00  0.00    -0.024 A 
HETATM    9  C   UNK N   1      30.210  17.514   5.560  0.00  0.00     0.051 A 
HETATM   10  N   UNK N   1      29.398  18.217   4.737  0.00  0.00    -0.356 N 
ATOM     11  HN  UNK N   1      29.586  18.200   3.735  1.00  0.00     0.166 HD
HETATM   12  C   UNK N   1      31.476  16.756   3.518  0.00  0.00     0.041 C 
HETATM   13  C   UNK N   1      32.341  15.594   3.044  0.00  0.00     0.005 C 
HETATM   14  C   UNK N   1      33.602  15.516   3.883  0.00  0.00     0.005 C 
HETATM   15  C   UNK N   1      33.257  15.201   5.337  0.00  0.00     0.039 C 
ENDROOT
BRANCH   1  16
HETATM   16  C   UNK N   1      27.431  19.646   4.208  0.00  0.00     0.098 C 
BRANCH  16  17
HETATM   17  C   UNK N   1      26.059  19.050   4.017  0.00  0.00    -0.052 A 
HETATM   18  C   UNK N   1      25.856  17.660   4.029  0.00  0.00     0.009 A 
HETATM   19  C   UNK N   1      24.574  17.130   3.868  0.00  0.00     0.024 A 
HETATM   20  C   UNK N   1      23.479  17.985   3.726  0.00  0.00     0.034 A 
HETATM   21  C   UNK N   1      23.669  19.371   3.743  0.00  0.00     0.024 A 
HETATM   22 Cl   UNK N   1      21.873  17.317   3.535  0.00  0.00    -0.084 Cl
HETATM   23  C   UNK N   1      24.956  19.901   3.885  0.00  0.00     0.009 A 
ENDBRANCH  16  17
ENDBRANCH   1  16
BRANCH   2  24
HETATM   24  O   UNK N   1      27.021  19.716   6.996  0.00  0.00    -0.358 OA
HETATM   25  H   UNK N   1      26.261  19.808   6.456  0.00  0.00     0.217 HD
ENDBRANCH   2  24
BRANCH   3  26
HETATM   26  C   UNK N   1      28.594  18.332   8.953  0.00  0.00     0.179 C 
HETATM   27  O   UNK N   1      29.416  18.759   9.747  0.00  0.00    -0.646 OA
BRANCH  26  28
HETATM   28  O   UNK N   1      27.408  17.901   9.427  0.00  0.00    -0.773 OA
HETATM   29  H   UNK N   1      26.612  18.299   9.131  0.00  0.00     0.167 HD
ENDBRANCH  26  28
ENDBRANCH   3  26
TORSDOF 5
ENDMDL
MODEL 3
REMARK VINA RESULT:      -7.6     12.318     14.157
REMARK  5 active torsions:
REMARK  status: ('A' for Active; 'I' for Inactive)
REMARK    1  A    between atoms: C_6  and  C_7 
REMARK    2  A    between atoms: C_7  and  C_8 
REMARK    3  A    between atoms: C_9  and  O_26 
REMARK    4  A    between atoms: C_10  and  C_23 
REMARK    5  A    between atoms: C_23  and  O_25 
ROOT
HETATM    1  C   UNK N   1      26.236  24.773  -7.486  0.00  0.00     0.048 A 
HETATM    2  C   UNK N   1      25.954  23.846  -8.501  0.00  0.00     0.106 A 
HETATM    3  C   UNK N   1      26.662  22.618  -8.562  0.00  0.00     0.085 A 
HETATM    4  C   UNK N   1      27.657  22.366  -7.573  0.00  0.00     0.011 A 
HETATM    5  C   UNK N   1      28.423  21.191  -7.569  0.00  0.00     0.015 A 
HETATM    6  C   UNK N   1      29.400  20.974  -6.597  0.00  0.00     0.009 A 
HETATM    7  C   UNK N   1      29.632  21.924  -5.602  0.00  0.00    -0.050 A 
HETATM    8  C   UNK N   1      28.879  23.118  -5.586  0.00  0.00    -0.024 A 
HETATM    9  C   UNK N   1      27.893  23.332  -6.568  0.00  0.00     0.051 A 
HETATM   10  N   UNK N   1      27.181  24.483  -6.558  0.00  0.00    -0.356 N 
ATOM     11  HN  UNK N   1      27.365  25.163  -5.820  1.00  0.00     0.166 HD
HETATM   12  C   UNK N   1      29.121  24.177  -4.537  0.00  0.00     0.041 C 
HETATM   13  C   UNK N   1      30.465  24.021  -3.835  0.00  0.00     0.005 C 
HETATM   14  C   UNK N   1      30.640  22.586  -3.374  0.00  0.00     0.005 C 
HETATM   15  C   UNK N   1      30.694  21.643  -4.573  0.00  0.00     0.039 C 
ENDROOT
BRANCH   1  16
HETATM   16  C   UNK N   1      25.527  26.108  -7.459  0.00  0.00     0.098 C 
BRANCH  16  17
HETATM   17  C   UNK N   1      25.935  27.066  -6.368  0.00  0.00    -0.052 A 
HETATM   18  C   UNK N   1      27.052  27.904  -6.509  0.00  0.00     0.009 A 
HETATM   19  C   UNK N   1      27.401  28.797  -5.494  0.00  0.00     0.024 A 
HETATM   20  C   UNK N   1      26.617  28.883  -4.342  0.00  0.00     0.034 A 
HETATM   21  C   UNK N   1      25.485  28.072  -4.206  0.00  0.00     0.024 A 
HETATM   22 Cl   UNK N   1      27.052  30.009  -3.075  0.00  0.00    -0.084 Cl
HETATM   23  C   UNK N   1      25.147  27.164  -5.216  0.00  0.00     0.009 A 
ENDBRANCH  16  17
ENDBRANCH   1  16
BRANCH   2  24
HETATM   24  O   UNK N   1      25.013  24.147  -9.418  0.00  0.00    -0.358 OA
HETATM   25  H   UNK N   1      24.661  23.475  -9.967  0.00  0.00     0.217 HD
ENDBRANCH   2  24
BRANCH   3  26
HETATM   26  C   UNK N   1      26.365  21.631  -9.660  0.00  0.00     0.179 C 
HETATM   27  O   UNK N   1      27.204  21.357 -10.503  0.00  0.00    -0.646 OA
BRANCH  26  28
HETATM   28  O   UNK N   1      25.161  21.029  -9.735  0.00  0.00    -0.773 OA
HETATM   29  H   UNK N   1      25.061  20.240 -10.232  0.00  0.00     0.167 HD
ENDBRANCH  26  28
ENDBRANCH   3  26
TORSDOF 5
ENDMDL
MODEL 4
REMARK VINA RESULT:      -7.6      4.682      6.781
REMARK  5 active torsions:
REMARK  status: ('A' for Active; 'I' for Inactive)
REMARK    1  A    between atoms: C_6  and  C_7 
REMARK    2  A    between atoms: C_7  and  C_8 
REMARK    3  A    between atoms: C_9  and  O_26 
REMARK    4  A    between atoms: C_10  and  C_23 
REMARK    5  A    between atoms: C_23  and  O_25 
ROOT
HETATM    1  C   UNK N   1      22.099  16.857   5.990  0.00  0.00     0.048 A 
HETATM    2  C   UNK N   1      21.151  17.548   6.760  0.00  0.00     0.106 A 
HETATM    3  C   UNK N   1      20.623  16.959   7.938  0.00  0.00     0.085 A 
HETATM    4  C   UNK N   1      21.079  15.659   8.303  0.00  0.00     0.011 A 
HETATM    5  C   UNK N   1      20.595  14.989   9.436  0.00  0.00     0.015 A 
HETATM    6  C   UNK N   1      21.049  13.712   9.764  0.00  0.00     0.009 A 
HETATM    7  C   UNK N   1      22.002  13.074   8.969  0.00  0.00    -0.050 A 
HETATM    8  C   UNK N   1      22.502  13.723   7.820  0.00  0.00    -0.024 A 
HETATM    9  C   UNK N   1      22.043  15.013   7.494  0.00  0.00     0.051 A 
HETATM   10  N   UNK N   1      22.515  15.627   6.384  0.00  0.00    -0.356 N 
ATOM     11  HN  UNK N   1      23.214  15.144   5.820  1.00  0.00     0.166 HD
HETATM   12  C   UNK N   1      23.517  13.050   6.927  0.00  0.00     0.041 C 
HETATM   13  C   UNK N   1      23.590  11.543   7.140  0.00  0.00     0.005 C 
HETATM   14  C   UNK N   1      23.715  11.239   8.621  0.00  0.00     0.005 C 
HETATM   15  C   UNK N   1      22.464  11.697   9.367  0.00  0.00     0.039 C 
ENDROOT
BRANCH   1  16
HETATM   16  C   UNK N   1      22.614  17.457   4.702  0.00  0.00     0.098 C 
BRANCH  16  17
HETATM   17  C   UNK N   1      21.794  17.197   3.463  0.00  0.00    -0.052 A 
HETATM   18  C   UNK N   1      21.781  15.936   2.845  0.00  0.00     0.009 A 
HETATM   19  C   UNK N   1      20.999  15.712   1.709  0.00  0.00     0.024 A 
HETATM   20  C   UNK N   1      20.200  16.737   1.200  0.00  0.00     0.034 A 
HETATM   21  C   UNK N   1      20.184  17.987   1.827  0.00  0.00     0.024 A 
HETATM   22 Cl   UNK N   1      19.215  16.450  -0.218  0.00  0.00    -0.084 Cl
HETATM   23  C   UNK N   1      20.982  18.217   2.954  0.00  0.00     0.009 A 
ENDBRANCH  16  17
ENDBRANCH   1  16
BRANCH   2  24
HETATM   24  O   UNK N   1      20.746  18.768   6.356  0.00  0.00    -0.358 OA
HETATM   25  H   UNK N   1      20.900  19.517   6.898  0.00  0.00     0.217 HD
ENDBRANCH   2  24
BRANCH   3  26
HETATM   26  C   UNK N   1      19.597  17.699   8.755  0.00  0.00     0.179 C 
HETATM   27  O   UNK N   1      19.899  18.697   9.390  0.00  0.00    -0.646 OA
BRANCH  26  28
HETATM   28  O   UNK N   1      18.319  17.271   8.803  0.00  0.00    -0.773 OA
HETATM   29  H   UNK N   1      17.647  17.838   9.127  0.00  0.00     0.167 HD
ENDBRANCH  26  28
ENDBRANCH   3  26
TORSDOF 5
ENDMDL
MODEL 5
REMARK VINA RESULT:      -7.3      2.364      5.607
REMARK  5 active torsions:
REMARK  status: ('A' for Active; 'I' for Inactive)
REMARK    1  A    between atoms: C_6  and  C_7 
REMARK    2  A    between atoms: C_7  and  C_8 
REMARK    3  A    between atoms: C_9  and  O_26 
REMARK    4  A    between atoms: C_10  and  C_23 
REMARK    5  A    between atoms: C_23  and  O_25 
ROOT
HETATM    1  C   UNK N   1      22.065  17.006   3.944  0.00  0.00     0.048 A 
HETATM    2  C   UNK N   1      21.420  18.130   3.409  0.00  0.00     0.106 A 
HETATM    3  C   UNK N   1      22.151  19.319   3.156  0.00  0.00     0.085 A 
HETATM    4  C   UNK N   1      23.543  19.331   3.465  0.00  0.00     0.011 A 
HETATM    5  C   UNK N   1      24.340  20.469   3.272  0.00  0.00     0.015 A 
HETATM    6  C   UNK N   1      25.697  20.458   3.594  0.00  0.00     0.009 A 
HETATM    7  C   UNK N   1      26.292  19.308   4.114  0.00  0.00    -0.050 A 
HETATM    8  C   UNK N   1      25.512  18.151   4.324  0.00  0.00    -0.024 A 
HETATM    9  C   UNK N   1      24.143  18.165   3.995  0.00  0.00     0.051 A 
HETATM   10  N   UNK N   1      23.394  17.058   4.209  0.00  0.00    -0.356 N 
ATOM     11  HN  UNK N   1      23.850  16.228   4.587  1.00  0.00     0.166 HD
HETATM   12  C   UNK N   1      26.120  16.897   4.907  0.00  0.00     0.041 C 
HETATM   13  C   UNK N   1      27.451  17.152   5.604  0.00  0.00     0.005 C 
HETATM   14  C   UNK N   1      28.358  17.963   4.699  0.00  0.00     0.005 C 
HETATM   15  C   UNK N   1      27.761  19.344   4.443  0.00  0.00     0.039 C 
ENDROOT
BRANCH   1  16
HETATM   16  C   UNK N   1      21.272  15.761   4.273  0.00  0.00     0.098 C 
BRANCH  16  17
HETATM   17  C   UNK N   1      21.302  15.303   5.710  0.00  0.00    -0.052 A 
HETATM   18  C   UNK N   1      21.002  16.180   6.765  0.00  0.00     0.009 A 
HETATM   19  C   UNK N   1      21.017  15.730   8.087  0.00  0.00     0.024 A 
HETATM   20  C   UNK N   1      21.303  14.392   8.364  0.00  0.00     0.034 A 
HETATM   21  C   UNK N   1      21.574  13.505   7.317  0.00  0.00     0.024 A 
HETATM   22 Cl   UNK N   1      21.312  13.829  10.021  0.00  0.00    -0.084 Cl
HETATM   23  C   UNK N   1      21.577  13.960   5.993  0.00  0.00     0.009 A 
ENDBRANCH  16  17
ENDBRANCH   1  16
BRANCH   2  24
HETATM   24  O   UNK N   1      20.098  18.065   3.151  0.00  0.00    -0.358 OA
HETATM   25  H   UNK N   1      19.568  17.424   3.581  0.00  0.00     0.217 HD
ENDBRANCH   2  24
BRANCH   3  26
HETATM   26  C   UNK N   1      21.453  20.529   2.592  0.00  0.00     0.179 C 
HETATM   27  O   UNK N   1      21.627  20.872   1.434  0.00  0.00    -0.646 OA
BRANCH  26  28
HETATM   28  O   UNK N   1      20.619  21.260   3.359  0.00  0.00    -0.773 OA
HETATM   29  H   UNK N   1      20.958  21.958   3.885  0.00  0.00     0.167 HD
ENDBRANCH  26  28
ENDBRANCH   3  26
TORSDOF 5
ENDMDL
MODEL 6
REMARK VINA RESULT:      -7.3      4.644      8.587
REMARK  5 active torsions:
REMARK  status: ('A' for Active; 'I' for Inactive)
REMARK    1  A    between atoms: C_6  and  C_7 
REMARK    2  A    between atoms: C_7  and  C_8 
REMARK    3  A    between atoms: C_9  and  O_26 
REMARK    4  A    between atoms: C_10  and  C_23 
REMARK    5  A    between atoms: C_23  and  O_25 
ROOT
HETATM    1  C   UNK N   1      28.931  18.011   5.387  0.00  0.00     0.048 A 
HETATM    2  C   UNK N   1      28.444  18.284   6.674  0.00  0.00     0.106 A 
HETATM    3  C   UNK N   1      29.216  17.944   7.815  0.00  0.00     0.085 A 
HETATM    4  C   UNK N   1      30.481  17.321   7.609  0.00  0.00     0.011 A 
HETATM    5  C   UNK N   1      31.301  16.927   8.678  0.00  0.00     0.015 A 
HETATM    6  C   UNK N   1      32.530  16.308   8.449  0.00  0.00     0.009 A 
HETATM    7  C   UNK N   1      32.972  16.070   7.147  0.00  0.00    -0.050 A 
HETATM    8  C   UNK N   1      32.164  16.451   6.054  0.00  0.00    -0.024 A 
HETATM    9  C   UNK N   1      30.926  17.078   6.289  0.00  0.00     0.051 A 
HETATM   10  N   UNK N   1      30.148  17.430   5.239  0.00  0.00    -0.356 N 
ATOM     11  HN  UNK N   1      30.491  17.250   4.296  1.00  0.00     0.166 HD
HETATM   12  C   UNK N   1      32.603  16.187   4.634  0.00  0.00     0.041 C 
HETATM   13  C   UNK N   1      33.710  15.144   4.538  0.00  0.00     0.005 C 
HETATM   14  C   UNK N   1      34.820  15.481   5.516  0.00  0.00     0.005 C 
HETATM   15  C   UNK N   1      34.307  15.402   6.952  0.00  0.00     0.039 C 
ENDROOT
BRANCH   1  16
HETATM   16  C   UNK N   1      28.081  18.315   4.174  0.00  0.00     0.098 C 
BRANCH  16  17
HETATM   17  C   UNK N   1      27.303  17.162   3.591  0.00  0.00    -0.052 A 
HETATM   18  C   UNK N   1      25.900  17.128   3.635  0.00  0.00     0.009 A 
HETATM   19  C   UNK N   1      25.199  16.059   3.071  0.00  0.00     0.024 A 
HETATM   20  C   UNK N   1      25.893  15.031   2.431  0.00  0.00     0.034 A 
HETATM   21  C   UNK N   1      27.290  15.072   2.357  0.00  0.00     0.024 A 
HETATM   22 Cl   UNK N   1      25.012  13.698   1.719  0.00  0.00    -0.084 Cl
HETATM   23  C   UNK N   1      27.993  16.134   2.938  0.00  0.00     0.009 A 
ENDBRANCH  16  17
ENDBRANCH   1  16
BRANCH   2  24
HETATM   24  O   UNK N   1      27.233  18.861   6.806  0.00  0.00    -0.358 OA
HETATM   25  H   UNK N   1      27.063  19.436   7.526  0.00  0.00     0.217 HD
ENDBRANCH   2  24
BRANCH   3  26
HETATM   26  C   UNK N   1      28.685  18.228   9.196  0.00  0.00     0.179 C 
HETATM   27  O   UNK N   1      29.371  18.798  10.028  0.00  0.00    -0.646 OA
BRANCH  26  28
HETATM   28  O   UNK N   1      27.437  17.854   9.541  0.00  0.00    -0.773 OA
HETATM   29  H   UNK N   1      27.269  17.519  10.400  0.00  0.00     0.167 HD
ENDBRANCH  26  28
ENDBRANCH   3  26
TORSDOF 5
ENDMDL
MODEL 7
REMARK VINA RESULT:      -7.3      6.024      9.877
REMARK  5 active torsions:
REMARK  status: ('A' for Active; 'I' for Inactive)
REMARK    1  A    between atoms: C_6  and  C_7 
REMARK    2  A    between atoms: C_7  and  C_8 
REMARK    3  A    between atoms: C_9  and  O_26 
REMARK    4  A    between atoms: C_10  and  C_23 
REMARK    5  A    between atoms: C_23  and  O_25 
ROOT
HETATM    1  C   UNK N   1      30.621  17.060   7.075  0.00  0.00     0.048 A 
HETATM    2  C   UNK N   1      31.607  17.580   7.928  0.00  0.00     0.106 A 
HETATM    3  C   UNK N   1      32.974  17.266   7.712  0.00  0.00     0.085 A 
HETATM    4  C   UNK N   1      33.303  16.412   6.619  0.00  0.00     0.011 A 
HETATM    5  C   UNK N   1      34.624  16.028   6.345  0.00  0.00     0.015 A 
HETATM    6  C   UNK N   1      34.918  15.181   5.276  0.00  0.00     0.009 A 
HETATM    7  C   UNK N   1      33.900  14.702   4.452  0.00  0.00    -0.050 A 
HETATM    8  C   UNK N   1      32.562  15.068   4.709  0.00  0.00    -0.024 A 
HETATM    9  C   UNK N   1      32.269  15.924   5.787  0.00  0.00     0.051 A 
HETATM   10  N   UNK N   1      30.984  16.264   6.039  0.00  0.00    -0.356 N 
ATOM     11  HN  UNK N   1      30.255  15.904   5.422  1.00  0.00     0.166 HD
HETATM   12  C   UNK N   1      31.434  14.548   3.850  0.00  0.00     0.041 C 
HETATM   13  C   UNK N   1      31.829  13.326   3.028  0.00  0.00     0.005 C 
HETATM   14  C   UNK N   1      33.136  13.593   2.305  0.00  0.00     0.005 C 
HETATM   15  C   UNK N   1      34.269  13.794   3.309  0.00  0.00     0.039 C 
ENDROOT
BRANCH   1  16
HETATM   16  C   UNK N   1      29.161  17.343   7.343  0.00  0.00     0.098 C 
BRANCH  16  17
HETATM   17  C   UNK N   1      28.434  18.170   6.311  0.00  0.00    -0.052 A 
HETATM   18  C   UNK N   1      28.038  19.490   6.577  0.00  0.00     0.009 A 
HETATM   19  C   UNK N   1      27.383  20.244   5.600  0.00  0.00     0.024 A 
HETATM   20  C   UNK N   1      27.147  19.694   4.339  0.00  0.00     0.034 A 
HETATM   21  C   UNK N   1      27.564  18.389   4.056  0.00  0.00     0.024 A 
HETATM   22 Cl   UNK N   1      26.334  20.644   3.114  0.00  0.00    -0.084 Cl
HETATM   23  C   UNK N   1      28.204  17.628   5.041  0.00  0.00     0.009 A 
ENDBRANCH  16  17
ENDBRANCH   1  16
BRANCH   2  24
HETATM   24  O   UNK N   1      31.233  18.369   8.954  0.00  0.00    -0.358 OA
HETATM   25  H   UNK N   1      31.865  18.913   9.382  0.00  0.00     0.217 HD
ENDBRANCH   2  24
BRANCH   3  26
HETATM   26  C   UNK N   1      34.028  17.816   8.636  0.00  0.00     0.179 C 
HETATM   27  O   UNK N   1      34.716  18.769   8.309  0.00  0.00    -0.646 OA
BRANCH  26  28
HETATM   28  O   UNK N   1      34.236  17.262   9.848  0.00  0.00    -0.773 OA
HETATM   29  H   UNK N   1      34.820  16.535   9.937  0.00  0.00     0.167 HD
ENDBRANCH  26  28
ENDBRANCH   3  26
TORSDOF 5
ENDMDL
MODEL 8
REMARK VINA RESULT:      -7.2     11.188     13.696
REMARK  5 active torsions:
REMARK  status: ('A' for Active; 'I' for Inactive)
REMARK    1  A    between atoms: C_6  and  C_7 
REMARK    2  A    between atoms: C_7  and  C_8 
REMARK    3  A    between atoms: C_9  and  O_26 
REMARK    4  A    between atoms: C_10  and  C_23 
REMARK    5  A    between atoms: C_23  and  O_25 
ROOT
HETATM    1  C   UNK N   1      30.381  21.973  -3.717  0.00  0.00     0.048 A 
HETATM    2  C   UNK N   1      31.584  21.319  -3.409  0.00  0.00     0.106 A 
HETATM    3  C   UNK N   1      32.207  20.484  -4.371  0.00  0.00     0.085 A 
HETATM    4  C   UNK N   1      31.575  20.330  -5.639  0.00  0.00     0.011 A 
HETATM    5  C   UNK N   1      32.105  19.505  -6.642  0.00  0.00     0.015 A 
HETATM    6  C   UNK N   1      31.460  19.362  -7.870  0.00  0.00     0.009 A 
HETATM    7  C   UNK N   1      30.270  20.044  -8.128  0.00  0.00    -0.050 A 
HETATM    8  C   UNK N   1      29.712  20.876  -7.135  0.00  0.00    -0.024 A 
HETATM    9  C   UNK N   1      30.367  21.019  -5.897  0.00  0.00     0.051 A 
HETATM   10  N   UNK N   1      29.823  21.808  -4.942  0.00  0.00    -0.356 N 
ATOM     11  HN  UNK N   1      28.954  22.300  -5.153  1.00  0.00     0.166 HD
HETATM   12  C   UNK N   1      28.413  21.609  -7.374  0.00  0.00     0.041 C 
HETATM   13  C   UNK N   1      27.614  21.038  -8.539  0.00  0.00     0.005 C 
HETATM   14  C   UNK N   1      28.513  20.881  -9.751  0.00  0.00     0.005 C 
HETATM   15  C   UNK N   1      29.613  19.860  -9.470  0.00  0.00     0.039 C 
ENDROOT
BRANCH   1  16
HETATM   16  C   UNK N   1      29.684  22.812  -2.670  0.00  0.00     0.098 C 
BRANCH  16  17
HETATM   17  C   UNK N   1      28.845  23.958  -3.174  0.00  0.00    -0.052 A 
HETATM   18  C   UNK N   1      27.444  23.937  -3.083  0.00  0.00     0.009 A 
HETATM   19  C   UNK N   1      26.688  25.019  -3.539  0.00  0.00     0.024 A 
HETATM   20  C   UNK N   1      27.326  26.144  -4.063  0.00  0.00     0.034 A 
HETATM   21  C   UNK N   1      28.723  26.186  -4.130  0.00  0.00     0.024 A 
HETATM   22 Cl   UNK N   1      26.376  27.502  -4.626  0.00  0.00    -0.084 Cl
HETATM   23  C   UNK N   1      29.480  25.094  -3.690  0.00  0.00     0.009 A 
ENDBRANCH  16  17
ENDBRANCH   1  16
BRANCH   2  24
HETATM   24  O   UNK N   1      32.127  21.491  -2.187  0.00  0.00    -0.358 OA
HETATM   25  H   UNK N   1      32.150  22.343  -1.800  0.00  0.00     0.217 HD
ENDBRANCH   2  24
BRANCH   3  26
HETATM   26  C   UNK N   1      33.493  19.775  -4.033  0.00  0.00     0.179 C 
HETATM   27  O   UNK N   1      34.562  20.362  -4.065  0.00  0.00    -0.646 OA
BRANCH  26  28
HETATM   28  O   UNK N   1      33.488  18.471  -3.690  0.00  0.00    -0.773 OA
HETATM   29  H   UNK N   1      33.098  18.201  -2.881  0.00  0.00     0.167 HD
ENDBRANCH  26  28
ENDBRANCH   3  26
TORSDOF 5
ENDMDL
MODEL 9
REMARK VINA RESULT:      -7.2      3.133      4.943
REMARK  5 active torsions:
REMARK  status: ('A' for Active; 'I' for Inactive)
REMARK    1  A    between atoms: C_6  and  C_7 
REMARK    2  A    between atoms: C_7  and  C_8 
REMARK    3  A    between atoms: C_9  and  O_26 
REMARK    4  A    between atoms: C_10  and  C_23 
REMARK    5  A    between atoms: C_23  and  O_25 
ROOT
HETATM    1  C   UNK N   1      22.222  16.613   5.733  0.00  0.00     0.048 A 
HETATM    2  C   UNK N   1      21.274  17.383   6.423  0.00  0.00     0.106 A 
HETATM    3  C   UNK N   1      20.725  16.912   7.644  0.00  0.00     0.085 A 
HETATM    4  C   UNK N   1      21.162  15.646   8.133  0.00  0.00     0.011 A 
HETATM    5  C   UNK N   1      20.657  15.089   9.317  0.00  0.00     0.015 A 
HETATM    6  C   UNK N   1      21.092  13.843   9.767  0.00  0.00     0.009 A 
HETATM    7  C   UNK N   1      22.046  13.124   9.047  0.00  0.00    -0.050 A 
HETATM    8  C   UNK N   1      22.567  13.658   7.849  0.00  0.00    -0.024 A 
HETATM    9  C   UNK N   1      22.127  14.917   7.399  0.00  0.00     0.051 A 
HETATM   10  N   UNK N   1      22.619  15.421   6.244  0.00  0.00    -0.356 N 
ATOM     11  HN  UNK N   1      23.318  14.880   5.735  1.00  0.00     0.166 HD
HETATM   12  C   UNK N   1      23.584  12.895   7.034  0.00  0.00     0.041 C 
HETATM   13  C   UNK N   1      23.636  11.413   7.387  0.00  0.00     0.005 C 
HETATM   14  C   UNK N   1      23.740  11.246   8.891  0.00  0.00     0.005 C 
HETATM   15  C   UNK N   1      22.487  11.785   9.576  0.00  0.00     0.039 C 
ENDROOT
BRANCH   1  16
HETATM   16  C   UNK N   1      22.758  17.086   4.400  0.00  0.00     0.098 C 
BRANCH  16  17
HETATM   17  C   UNK N   1      24.060  17.847   4.430  0.00  0.00    -0.052 A 
HETATM   18  C   UNK N   1      24.133  19.189   4.024  0.00  0.00     0.009 A 
HETATM   19  C   UNK N   1      25.346  19.880   4.077  0.00  0.00     0.024 A 
HETATM   20  C   UNK N   1      26.489  19.245   4.566  0.00  0.00     0.034 A 
HETATM   21  C   UNK N   1      26.418  17.917   5.000  0.00  0.00     0.024 A 
HETATM   22 Cl   UNK N   1      28.005  20.117   4.640  0.00  0.00    -0.084 Cl
HETATM   23  C   UNK N   1      25.207  17.219   4.929  0.00  0.00     0.009 A 
ENDBRANCH  16  17
ENDBRANCH   1  16
BRANCH   2  24
HETATM   24  O   UNK N   1      20.888  18.565   5.903  0.00  0.00    -0.358 OA
HETATM   25  H   UNK N   1      20.288  19.111   6.373  0.00  0.00     0.217 HD
ENDBRANCH   2  24
BRANCH   3  26
HETATM   26  C   UNK N   1      19.699  17.735   8.376  0.00  0.00     0.179 C 
HETATM   27  O   UNK N   1      18.593  17.284   8.626  0.00  0.00    -0.646 OA
BRANCH  26  28
HETATM   28  O   UNK N   1      19.982  18.992   8.771  0.00  0.00    -0.773 OA
HETATM   29  H   UNK N   1      19.348  19.487   9.253  0.00  0.00     0.167 HD
ENDBRANCH  26  28
ENDBRANCH   3  26
TORSDOF 5
ENDMDL
