MODEL 1
REMARK VINA RESULT:      -8.0      0.000      0.000
REMARK  8 active torsions:
REMARK  status: ('A' for Active; 'I' for Inactive)
REMARK    1  A    between atoms: C_2  and  C_3 
REMARK    2  A    between atoms: C_2  and  N_30 
REMARK    3  A    between atoms: C_3  and  C_4 
REMARK    4  A    between atoms: C_3  and  O_12 
REMARK    5  A    between atoms: C_8  and  O_10 
REMARK    6  A    between atoms: O_12  and  C_13 
REMARK    7  A    between atoms: N_22  and  C_23 
REMARK       I    between atoms: N_30  and  C_31 
REMARK    8  A    between atoms: C_31  and  C_33 
ROOT
HETATM    1  C   UNK N   1      27.121  16.912   5.049  0.00  0.00     0.184 C 
ENDROOT
BRANCH   1   2
HETATM    2  C   UNK N   1      26.458  18.116   4.357  0.00  0.00     0.114 C 
HETATM    3  C   UNK N   1      25.079  17.767   3.826  0.00  0.00     0.035 C 
BRANCH   2   4
HETATM    4  N   UNK N   1      26.308  19.195   5.312  0.00  0.00    -0.346 N 
HETATM    5  C   UNK N   1      27.165  20.245   5.399  0.00  0.00     0.325 C 
HETATM    6  O   UNK N   1      28.090  20.360   4.607  0.00  0.00    -0.263 OA
HETATM    7  H   UNK N   1      25.543  19.167   5.931  0.00  0.00     0.163 HD
BRANCH   5   8
HETATM    8  C   UNK N   1      27.000  21.253   6.496  0.00  0.00     0.472 C 
HETATM    9  F   UNK N   1      28.126  22.055   6.552  0.00  0.00    -0.162 F 
HETATM   10  F   UNK N   1      26.840  20.623   7.719  0.00  0.00    -0.162 F 
HETATM   11  F   UNK N   1      25.893  22.042   6.247  0.00  0.00    -0.162 F 
ENDBRANCH   5   8
ENDBRANCH   2   4
ENDBRANCH   1   2
BRANCH   1  12
HETATM   12  C   UNK N   1      28.615  16.920   5.257  0.00  0.00    -0.024 A 
HETATM   13  C   UNK N   1      29.448  16.971   4.132  0.00  0.00     0.010 A 
HETATM   14  C   UNK N   1      30.827  17.129   4.282  0.00  0.00     0.003 A 
HETATM   15  C   UNK N   1      31.386  17.224   5.557  0.00  0.00     0.037 A 
HETATM   16  C   UNK N   1      30.570  17.159   6.691  0.00  0.00     0.068 A 
HETATM   17  C   UNK N   1      29.178  17.029   6.535  0.00  0.00     0.046 A 
BRANCH  16  18
HETATM   18  O   UNK N   1      31.145  17.219   7.915  0.00  0.00    -0.356 OA
HETATM   19  C   UNK N   1      32.451  17.605   8.115  0.00  0.00     0.210 C 
ENDBRANCH  16  18
ENDBRANCH   1  12
BRANCH   1  20
HETATM   20  O   UNK N   1      26.666  15.691   4.590  0.00  0.00    -0.339 OA
BRANCH  20  21
HETATM   21  C   UNK N   1      25.979  14.903   5.439  0.00  0.00     0.070 A 
HETATM   22  C   UNK N   1      25.764  15.317   6.778  0.00  0.00     0.039 A 
HETATM   23  C   UNK N   1      25.156  14.447   7.702  0.00  0.00     0.035 A 
HETATM   24  C   UNK N   1      24.797  13.174   7.253  0.00  0.00     0.068 A 
HETATM   25  C   UNK N   1      24.999  12.787   5.962  0.00  0.00     0.012 A 
HETATM   26  N   UNK N   1      24.232  12.152   7.924  0.00  0.00    -0.256 N 
HETATM   27  C   UNK N   1      25.576  13.622   5.021  0.00  0.00     0.052 A 
HETATM   28  C   UNK N   1      24.546  11.491   5.864  0.00  0.00     0.121 A 
HETATM   29  N   UNK N   1      24.082  11.131   7.086  0.00  0.00    -0.304 N 
ATOM     30  HN  UNK N   1      23.683  10.223   7.325  1.00  0.00     0.186 HD
BRANCH  26  31
HETATM   31  C   UNK N   1      23.807  12.107   9.300  0.00  0.00     0.057 A 
HETATM   32  C   UNK N   1      22.445  12.055   9.637  0.00  0.00     0.034 A 
HETATM   33  C   UNK N   1      22.053  11.948  10.974  0.00  0.00     0.044 A 
HETATM   34  C   UNK N   1      23.018  11.891  11.983  0.00  0.00     0.116 A 
HETATM   35  C   UNK N   1      24.375  11.956  11.657  0.00  0.00     0.044 A 
HETATM   36  F   UNK N   1      22.640  11.765  13.277  0.00  0.00    -0.206 F 
HETATM   37  C   UNK N   1      24.767  12.062  10.321  0.00  0.00     0.034 A 
ENDBRANCH  26  31
ENDBRANCH  20  21
ENDBRANCH   1  20
TORSDOF 8
ENDMDL
MODEL 2
REMARK VINA RESULT:      -7.9      3.721      8.138
REMARK  8 active torsions:
REMARK  status: ('A' for Active; 'I' for Inactive)
REMARK    1  A    between atoms: C_2  and  C_3 
REMARK    2  A    between atoms: C_2  and  N_30 
REMARK    3  A    between atoms: C_3  and  C_4 
REMARK    4  A    between atoms: C_3  and  O_12 
REMARK    5  A    between atoms: C_8  and  O_10 
REMARK    6  A    between atoms: O_12  and  C_13 
REMARK    7  A    between atoms: N_22  and  C_23 
REMARK       I    between atoms: N_30  and  C_31 
REMARK    8  A    between atoms: C_31  and  C_33 
ROOT
HETATM    1  C   UNK N   1      26.247  17.604   4.365  0.00  0.00     0.184 C 
ENDROOT
BRANCH   1   2
HETATM    2  C   UNK N   1      25.975  16.130   4.014  0.00  0.00     0.114 C 
HETATM    3  C   UNK N   1      27.001  15.592   3.031  0.00  0.00     0.035 C 
BRANCH   2   4
HETATM    4  N   UNK N   1      26.047  15.329   5.218  0.00  0.00    -0.346 N 
HETATM    5  C   UNK N   1      24.958  14.964   5.943  0.00  0.00     0.325 C 
HETATM    6  O   UNK N   1      23.833  15.251   5.561  0.00  0.00    -0.263 OA
HETATM    7  H   UNK N   1      26.933  15.031   5.527  0.00  0.00     0.163 HD
BRANCH   5   8
HETATM    8  C   UNK N   1      25.138  14.235   7.241  0.00  0.00     0.472 C 
HETATM    9  F   UNK N   1      25.692  12.993   6.993  0.00  0.00    -0.162 F 
HETATM   10  F   UNK N   1      23.920  14.061   7.876  0.00  0.00    -0.162 F 
HETATM   11  F   UNK N   1      25.981  14.952   8.069  0.00  0.00    -0.162 F 
ENDBRANCH   5   8
ENDBRANCH   2   4
ENDBRANCH   1   2
BRANCH   1  12
HETATM   12  C   UNK N   1      25.246  18.651   3.945  0.00  0.00    -0.024 A 
HETATM   13  C   UNK N   1      25.698  19.753   3.208  0.00  0.00     0.010 A 
HETATM   14  C   UNK N   1      24.788  20.667   2.673  0.00  0.00     0.003 A 
HETATM   15  C   UNK N   1      23.419  20.495   2.883  0.00  0.00     0.037 A 
HETATM   16  C   UNK N   1      22.951  19.408   3.630  0.00  0.00     0.068 A 
HETATM   17  C   UNK N   1      23.871  18.474   4.142  0.00  0.00     0.046 A 
BRANCH  16  18
HETATM   18  O   UNK N   1      21.620  19.287   3.846  0.00  0.00    -0.356 OA
HETATM   19  C   UNK N   1      20.690  20.151   3.313  0.00  0.00     0.210 C 
ENDBRANCH  16  18
ENDBRANCH   1  12
BRANCH   1  20
HETATM   20  O   UNK N   1      27.547  18.000   4.124  0.00  0.00    -0.339 OA
BRANCH  20  21
HETATM   21  C   UNK N   1      28.444  17.900   5.123  0.00  0.00     0.070 A 
HETATM   22  C   UNK N   1      29.733  17.369   4.872  0.00  0.00     0.039 A 
HETATM   23  C   UNK N   1      30.631  17.148   5.933  0.00  0.00     0.035 A 
HETATM   24  C   UNK N   1      30.194  17.453   7.224  0.00  0.00     0.068 A 
HETATM   25  C   UNK N   1      28.955  17.971   7.457  0.00  0.00     0.012 A 
HETATM   26  N   UNK N   1      30.830  17.316   8.403  0.00  0.00    -0.256 N 
HETATM   27  C   UNK N   1      28.054  18.221   6.437  0.00  0.00     0.052 A 
HETATM   28  C   UNK N   1      28.849  18.142   8.819  0.00  0.00     0.121 A 
HETATM   29  N   UNK N   1      30.017  17.730   9.370  0.00  0.00    -0.304 N 
ATOM     30  HN  UNK N   1      30.236  17.735  10.367  1.00  0.00     0.186 HD
BRANCH  26  31
HETATM   31  C   UNK N   1      32.168  16.843   8.653  0.00  0.00     0.057 A 
HETATM   32  C   UNK N   1      33.272  17.704   8.552  0.00  0.00     0.034 A 
HETATM   33  C   UNK N   1      34.556  17.243   8.858  0.00  0.00     0.044 A 
HETATM   34  C   UNK N   1      34.744  15.921   9.268  0.00  0.00     0.116 A 
HETATM   35  C   UNK N   1      33.652  15.054   9.358  0.00  0.00     0.044 A 
HETATM   36  F   UNK N   1      35.984  15.480   9.587  0.00  0.00    -0.206 F 
HETATM   37  C   UNK N   1      32.370  15.515   9.053  0.00  0.00     0.034 A 
ENDBRANCH  26  31
ENDBRANCH  20  21
ENDBRANCH   1  20
TORSDOF 8
ENDMDL
MODEL 3
REMARK VINA RESULT:      -7.9      3.684      5.166
REMARK  8 active torsions:
REMARK  status: ('A' for Active; 'I' for Inactive)
REMARK    1  A    between atoms: C_2  and  C_3 
REMARK    2  A    between atoms: C_2  and  N_30 
REMARK    3  A    between atoms: C_3  and  C_4 
REMARK    4  A    between atoms: C_3  and  O_12 
REMARK    5  A    between atoms: C_8  and  O_10 
REMARK    6  A    between atoms: O_12  and  C_13 
REMARK    7  A    between atoms: N_22  and  C_23 
REMARK       I    between atoms: N_30  and  C_31 
REMARK    8  A    between atoms: C_31  and  C_33 
ROOT
HETATM    1  C   UNK N   1      22.716  17.487   4.591  0.00  0.00     0.184 C 
ENDROOT
BRANCH   1   2
HETATM    2  C   UNK N   1      21.214  17.808   4.500  0.00  0.00     0.114 C 
HETATM    3  C   UNK N   1      20.602  17.265   3.220  0.00  0.00     0.035 C 
BRANCH   2   4
HETATM    4  N   UNK N   1      20.524  17.197   5.617  0.00  0.00    -0.346 N 
HETATM    5  C   UNK N   1      20.499  17.730   6.866  0.00  0.00     0.325 C 
HETATM    6  O   UNK N   1      21.018  18.815   7.089  0.00  0.00    -0.263 OA
HETATM    7  H   UNK N   1      20.046  16.351   5.463  0.00  0.00     0.163 HD
BRANCH   5   8
HETATM    8  C   UNK N   1      19.861  16.968   7.989  0.00  0.00     0.472 C 
HETATM    9  F   UNK N   1      18.791  17.692   8.481  0.00  0.00    -0.162 F 
HETATM   10  F   UNK N   1      20.768  16.759   9.015  0.00  0.00    -0.162 F 
HETATM   11  F   UNK N   1      19.410  15.745   7.529  0.00  0.00    -0.162 F 
ENDBRANCH   5   8
ENDBRANCH   2   4
ENDBRANCH   1   2
BRANCH   1  12
HETATM   12  C   UNK N   1      23.707  18.447   3.981  0.00  0.00    -0.024 A 
HETATM   13  C   UNK N   1      23.224  19.618   3.381  0.00  0.00     0.010 A 
HETATM   14  C   UNK N   1      24.110  20.601   2.938  0.00  0.00     0.003 A 
HETATM   15  C   UNK N   1      25.487  20.417   3.078  0.00  0.00     0.037 A 
HETATM   16  C   UNK N   1      25.986  19.248   3.661  0.00  0.00     0.068 A 
HETATM   17  C   UNK N   1      25.088  18.272   4.132  0.00  0.00     0.046 A 
BRANCH  16  18
HETATM   18  O   UNK N   1      27.326  19.083   3.751  0.00  0.00    -0.356 OA
HETATM   19  C   UNK N   1      28.111  19.776   4.644  0.00  0.00     0.210 C 
ENDBRANCH  16  18
ENDBRANCH   1  12
BRANCH   1  20
HETATM   20  O   UNK N   1      23.020  16.172   4.300  0.00  0.00    -0.339 OA
BRANCH  20  21
HETATM   21  C   UNK N   1      22.910  15.256   5.281  0.00  0.00     0.070 A 
HETATM   22  C   UNK N   1      23.179  15.619   6.625  0.00  0.00     0.039 A 
HETATM   23  C   UNK N   1      23.187  14.640   7.637  0.00  0.00     0.035 A 
HETATM   24  C   UNK N   1      22.940  13.319   7.261  0.00  0.00     0.068 A 
HETATM   25  C   UNK N   1      22.674  12.979   5.968  0.00  0.00     0.012 A 
HETATM   26  N   UNK N   1      22.914  12.200   8.012  0.00  0.00    -0.256 N 
HETATM   27  C   UNK N   1      22.638  13.916   4.950  0.00  0.00     0.052 A 
HETATM   28  C   UNK N   1      22.491  11.615   5.948  0.00  0.00     0.121 A 
HETATM   29  N   UNK N   1      22.645  11.168   7.219  0.00  0.00    -0.304 N 
ATOM     30  HN  UNK N   1      22.569  10.196   7.518  1.00  0.00     0.186 HD
BRANCH  26  31
HETATM   31  C   UNK N   1      23.102  12.069   9.434  0.00  0.00     0.057 A 
HETATM   32  C   UNK N   1      24.388  12.047   9.997  0.00  0.00     0.034 A 
HETATM   33  C   UNK N   1      24.550  11.982  11.383  0.00  0.00     0.044 A 
HETATM   34  C   UNK N   1      23.430  11.939  12.217  0.00  0.00     0.116 A 
HETATM   35  C   UNK N   1      22.147  11.947  11.664  0.00  0.00     0.044 A 
HETATM   36  F   UNK N   1      23.586  11.899  13.561  0.00  0.00    -0.206 F 
HETATM   37  C   UNK N   1      21.985  12.013  10.279  0.00  0.00     0.034 A 
ENDBRANCH  26  31
ENDBRANCH  20  21
ENDBRANCH   1  20
TORSDOF 8
ENDMDL
MODEL 4
REMARK VINA RESULT:      -7.8      3.818      4.844
REMARK  8 active torsions:
REMARK  status: ('A' for Active; 'I' for Inactive)
REMARK    1  A    between atoms: C_2  and  C_3 
REMARK    2  A    between atoms: C_2  and  N_30 
REMARK    3  A    between atoms: C_3  and  C_4 
REMARK    4  A    between atoms: C_3  and  O_12 
REMARK    5  A    between atoms: C_8  and  O_10 
REMARK    6  A    between atoms: O_12  and  C_13 
REMARK    7  A    between atoms: N_22  and  C_23 
REMARK       I    between atoms: N_30  and  C_31 
REMARK    8  A    between atoms: C_31  and  C_33 
ROOT
HETATM    1  C   UNK N   1      24.079  18.595   4.252  0.00  0.00     0.184 C 
ENDROOT
BRANCH   1   2
HETATM    2  C   UNK N   1      23.262  19.730   3.610  0.00  0.00     0.114 C 
HETATM    3  C   UNK N   1      24.066  20.471   2.556  0.00  0.00     0.035 C 
BRANCH   2   4
HETATM    4  N   UNK N   1      22.090  19.173   2.966  0.00  0.00    -0.346 N 
HETATM    5  C   UNK N   1      20.839  19.252   3.488  0.00  0.00     0.325 C 
HETATM    6  O   UNK N   1      20.634  19.872   4.522  0.00  0.00    -0.263 OA
HETATM    7  H   UNK N   1      22.206  18.714   2.103  0.00  0.00     0.163 HD
BRANCH   5   8
HETATM    8  C   UNK N   1      19.704  18.542   2.812  0.00  0.00     0.472 C 
HETATM    9  F   UNK N   1      18.660  19.429   2.623  0.00  0.00    -0.162 F 
HETATM   10  F   UNK N   1      19.256  17.485   3.587  0.00  0.00    -0.162 F 
HETATM   11  F   UNK N   1      20.117  18.059   1.585  0.00  0.00    -0.162 F 
ENDBRANCH   5   8
ENDBRANCH   2   4
ENDBRANCH   1   2
BRANCH   1  12
HETATM   12  C   UNK N   1      25.576  18.745   4.364  0.00  0.00    -0.024 A 
HETATM   13  C   UNK N   1      26.089  19.721   5.227  0.00  0.00     0.010 A 
HETATM   14  C   UNK N   1      27.461  19.795   5.473  0.00  0.00     0.003 A 
HETATM   15  C   UNK N   1      28.333  18.903   4.847  0.00  0.00     0.037 A 
HETATM   16  C   UNK N   1      27.839  17.932   3.970  0.00  0.00     0.068 A 
HETATM   17  C   UNK N   1      26.452  17.843   3.748  0.00  0.00     0.046 A 
BRANCH  16  18
HETATM   18  O   UNK N   1      28.713  17.104   3.351  0.00  0.00    -0.356 OA
HETATM   19  C   UNK N   1      29.587  16.288   4.032  0.00  0.00     0.210 C 
ENDBRANCH  16  18
ENDBRANCH   1  12
BRANCH   1  20
HETATM   20  O   UNK N   1      23.713  17.336   3.819  0.00  0.00    -0.339 OA
BRANCH  20  21
HETATM   21  C   UNK N   1      23.165  16.486   4.708  0.00  0.00     0.070 A 
HETATM   22  C   UNK N   1      23.832  16.205   5.926  0.00  0.00     0.039 A 
HETATM   23  C   UNK N   1      23.328  15.226   6.803  0.00  0.00     0.035 A 
HETATM   24  C   UNK N   1      22.172  14.544   6.417  0.00  0.00     0.068 A 
HETATM   25  C   UNK N   1      21.532  14.827   5.247  0.00  0.00     0.012 A 
HETATM   26  N   UNK N   1      21.503  13.559   7.045  0.00  0.00    -0.256 N 
HETATM   27  C   UNK N   1      21.986  15.796   4.370  0.00  0.00     0.052 A 
HETATM   28  C   UNK N   1      20.451  13.977   5.174  0.00  0.00     0.121 A 
HETATM   29  N   UNK N   1      20.462  13.212   6.294  0.00  0.00    -0.304 N 
ATOM     30  HN  UNK N   1      19.783  12.486   6.522  1.00  0.00     0.186 HD
BRANCH  26  31
HETATM   31  C   UNK N   1      21.783  12.955   8.323  0.00  0.00     0.057 A 
HETATM   32  C   UNK N   1      22.803  12.001   8.467  0.00  0.00     0.034 A 
HETATM   33  C   UNK N   1      23.102  11.473   9.726  0.00  0.00     0.044 A 
HETATM   34  C   UNK N   1      22.386  11.895  10.849  0.00  0.00     0.116 A 
HETATM   35  C   UNK N   1      21.360  12.834  10.712  0.00  0.00     0.044 A 
HETATM   36  F   UNK N   1      22.690  11.401  12.072  0.00  0.00    -0.206 F 
HETATM   37  C   UNK N   1      21.062  13.363   9.454  0.00  0.00     0.034 A 
ENDBRANCH  26  31
ENDBRANCH  20  21
ENDBRANCH   1  20
TORSDOF 8
ENDMDL
MODEL 5
REMARK VINA RESULT:      -7.7      2.070      2.779
REMARK  8 active torsions:
REMARK  status: ('A' for Active; 'I' for Inactive)
REMARK    1  A    between atoms: C_2  and  C_3 
REMARK    2  A    between atoms: C_2  and  N_30 
REMARK    3  A    between atoms: C_3  and  C_4 
REMARK    4  A    between atoms: C_3  and  O_12 
REMARK    5  A    between atoms: C_8  and  O_10 
REMARK    6  A    between atoms: O_12  and  C_13 
REMARK    7  A    between atoms: N_22  and  C_23 
REMARK       I    between atoms: N_30  and  C_31 
REMARK    8  A    between atoms: C_31  and  C_33 
ROOT
HETATM    1  C   UNK N   1      25.221  17.156   4.148  0.00  0.00     0.184 C 
ENDROOT
BRANCH   1   2
HETATM    2  C   UNK N   1      25.125  18.689   4.041  0.00  0.00     0.114 C 
HETATM    3  C   UNK N   1      23.695  19.146   3.813  0.00  0.00     0.035 C 
BRANCH   2   4
HETATM    4  N   UNK N   1      25.593  19.286   5.275  0.00  0.00    -0.346 N 
HETATM    5  C   UNK N   1      26.413  20.367   5.323  0.00  0.00     0.325 C 
HETATM    6  O   UNK N   1      26.748  20.938   4.295  0.00  0.00    -0.263 OA
HETATM    7  H   UNK N   1      25.298  18.887   6.126  0.00  0.00     0.163 HD
BRANCH   5   8
HETATM    8  C   UNK N   1      26.942  20.843   6.642  0.00  0.00     0.472 C 
HETATM    9  F   UNK N   1      27.438  19.764   7.351  0.00  0.00    -0.162 F 
HETATM   10  F   UNK N   1      25.938  21.441   7.385  0.00  0.00    -0.162 F 
HETATM   11  F   UNK N   1      27.958  21.758   6.438  0.00  0.00    -0.162 F 
ENDBRANCH   5   8
ENDBRANCH   2   4
ENDBRANCH   1   2
BRANCH   1  12
HETATM   12  C   UNK N   1      26.428  16.458   3.574  0.00  0.00    -0.024 A 
HETATM   13  C   UNK N   1      26.232  15.470   2.600  0.00  0.00     0.010 A 
HETATM   14  C   UNK N   1      27.323  14.905   1.938  0.00  0.00     0.003 A 
HETATM   15  C   UNK N   1      28.620  15.312   2.254  0.00  0.00     0.037 A 
HETATM   16  C   UNK N   1      28.835  16.285   3.235  0.00  0.00     0.068 A 
HETATM   17  C   UNK N   1      27.731  16.873   3.879  0.00  0.00     0.046 A 
BRANCH  16  18
HETATM   18  O   UNK N   1      30.106  16.634   3.543  0.00  0.00    -0.356 OA
HETATM   19  C   UNK N   1      30.434  17.375   4.656  0.00  0.00     0.210 C 
ENDBRANCH  16  18
ENDBRANCH   1  12
BRANCH   1  20
HETATM   20  O   UNK N   1      24.044  16.505   3.833  0.00  0.00    -0.339 OA
BRANCH  20  21
HETATM   21  C   UNK N   1      23.484  15.708   4.762  0.00  0.00     0.070 A 
HETATM   22  C   UNK N   1      23.955  15.733   6.098  0.00  0.00     0.039 A 
HETATM   23  C   UNK N   1      23.460  14.816   7.044  0.00  0.00     0.035 A 
HETATM   24  C   UNK N   1      22.514  13.885   6.610  0.00  0.00     0.068 A 
HETATM   25  C   UNK N   1      22.060  13.873   5.325  0.00  0.00     0.012 A 
HETATM   26  N   UNK N   1      21.905  12.895   7.290  0.00  0.00    -0.256 N 
HETATM   27  C   UNK N   1      22.509  14.771   4.372  0.00  0.00     0.052 A 
HETATM   28  C   UNK N   1      21.157  12.837   5.236  0.00  0.00     0.121 A 
HETATM   29  N   UNK N   1      21.084  12.258   6.460  0.00  0.00    -0.304 N 
ATOM     30  HN  UNK N   1      20.497  11.461   6.705  1.00  0.00     0.186 HD
BRANCH  26  31
HETATM   31  C   UNK N   1      22.040  12.546   8.681  0.00  0.00     0.057 A 
HETATM   32  C   UNK N   1      23.158  11.837   9.146  0.00  0.00     0.034 A 
HETATM   33  C   UNK N   1      23.303  11.561  10.508  0.00  0.00     0.044 A 
HETATM   34  C   UNK N   1      22.332  11.993  11.416  0.00  0.00     0.116 A 
HETATM   35  C   UNK N   1      21.208  12.687  10.959  0.00  0.00     0.044 A 
HETATM   36  F   UNK N   1      22.482  11.746  12.738  0.00  0.00    -0.206 F 
HETATM   37  C   UNK N   1      21.065  12.964   9.598  0.00  0.00     0.034 A 
ENDBRANCH  26  31
ENDBRANCH  20  21
ENDBRANCH   1  20
TORSDOF 8
ENDMDL
MODEL 6
REMARK VINA RESULT:      -7.7      5.352      8.215
REMARK  8 active torsions:
REMARK  status: ('A' for Active; 'I' for Inactive)
REMARK    1  A    between atoms: C_2  and  C_3 
REMARK    2  A    between atoms: C_2  and  N_30 
REMARK    3  A    between atoms: C_3  and  C_4 
REMARK    4  A    between atoms: C_3  and  O_12 
REMARK    5  A    between atoms: C_8  and  O_10 
REMARK    6  A    between atoms: O_12  and  C_13 
REMARK    7  A    between atoms: N_22  and  C_23 
REMARK       I    between atoms: N_30  and  C_31 
REMARK    8  A    between atoms: C_31  and  C_33 
ROOT
HETATM    1  C   UNK N   1      24.639  18.778   4.251  0.00  0.00     0.184 C 
ENDROOT
BRANCH   1   2
HETATM    2  C   UNK N   1      24.163  20.007   3.456  0.00  0.00     0.114 C 
HETATM    3  C   UNK N   1      25.179  20.421   2.405  0.00  0.00     0.035 C 
BRANCH   2   4
HETATM    4  N   UNK N   1      22.924  19.688   2.777  0.00  0.00    -0.346 N 
HETATM    5  C   UNK N   1      21.936  20.593   2.555  0.00  0.00     0.325 C 
HETATM    6  O   UNK N   1      22.083  21.765   2.871  0.00  0.00    -0.263 OA
HETATM    7  H   UNK N   1      22.792  18.767   2.457  0.00  0.00     0.163 HD
BRANCH   5   8
HETATM    8  C   UNK N   1      20.638  20.145   1.952  0.00  0.00     0.472 C 
HETATM    9  F   UNK N   1      20.201  21.100   1.052  0.00  0.00    -0.162 F 
HETATM   10  F   UNK N   1      19.673  19.982   2.932  0.00  0.00    -0.162 F 
HETATM   11  F   UNK N   1      20.817  18.945   1.290  0.00  0.00    -0.162 F 
ENDBRANCH   5   8
ENDBRANCH   2   4
ENDBRANCH   1   2
BRANCH   1  12
HETATM   12  C   UNK N   1      23.619  17.772   4.721  0.00  0.00    -0.024 A 
HETATM   13  C   UNK N   1      23.658  16.478   4.186  0.00  0.00     0.010 A 
HETATM   14  C   UNK N   1      22.831  15.477   4.698  0.00  0.00     0.003 A 
HETATM   15  C   UNK N   1      21.948  15.764   5.740  0.00  0.00     0.037 A 
HETATM   16  C   UNK N   1      21.885  17.055   6.276  0.00  0.00     0.068 A 
HETATM   17  C   UNK N   1      22.741  18.053   5.775  0.00  0.00     0.046 A 
BRANCH  16  18
HETATM   18  O   UNK N   1      20.994  17.311   7.262  0.00  0.00    -0.356 OA
HETATM   19  C   UNK N   1      19.860  16.558   7.466  0.00  0.00     0.210 C 
ENDBRANCH  16  18
ENDBRANCH   1  12
BRANCH   1  20
HETATM   20  O   UNK N   1      25.564  19.079   5.232  0.00  0.00    -0.339 OA
BRANCH  20  21
HETATM   21  C   UNK N   1      26.747  18.434   5.216  0.00  0.00     0.070 A 
HETATM   22  C   UNK N   1      27.623  18.531   6.326  0.00  0.00     0.039 A 
HETATM   23  C   UNK N   1      28.910  17.962   6.266  0.00  0.00     0.035 A 
HETATM   24  C   UNK N   1      29.283  17.328   5.080  0.00  0.00     0.068 A 
HETATM   25  C   UNK N   1      28.431  17.231   4.021  0.00  0.00     0.012 A 
HETATM   26  N   UNK N   1      30.445  16.732   4.751  0.00  0.00    -0.256 N 
HETATM   27  C   UNK N   1      27.152  17.760   4.050  0.00  0.00     0.052 A 
HETATM   28  C   UNK N   1      29.111  16.564   3.027  0.00  0.00     0.121 A 
HETATM   29  N   UNK N   1      30.344  16.271   3.508  0.00  0.00    -0.304 N 
ATOM     30  HN  UNK N   1      31.077  15.778   2.998  1.00  0.00     0.186 HD
BRANCH  26  31
HETATM   31  C   UNK N   1      31.624  16.555   5.559  0.00  0.00     0.057 A 
HETATM   32  C   UNK N   1      31.699  15.537   6.522  0.00  0.00     0.034 A 
HETATM   33  C   UNK N   1      32.874  15.341   7.253  0.00  0.00     0.044 A 
HETATM   34  C   UNK N   1      33.983  16.161   7.027  0.00  0.00     0.116 A 
HETATM   35  C   UNK N   1      33.912  17.186   6.080  0.00  0.00     0.044 A 
HETATM   36  F   UNK N   1      35.129  15.957   7.718  0.00  0.00    -0.206 F 
HETATM   37  C   UNK N   1      32.739  17.380   5.348  0.00  0.00     0.034 A 
ENDBRANCH  26  31
ENDBRANCH  20  21
ENDBRANCH   1  20
TORSDOF 8
ENDMDL
MODEL 7
REMARK VINA RESULT:      -7.7      5.228      8.500
REMARK  8 active torsions:
REMARK  status: ('A' for Active; 'I' for Inactive)
REMARK    1  A    between atoms: C_2  and  C_3 
REMARK    2  A    between atoms: C_2  and  N_30 
REMARK    3  A    between atoms: C_3  and  C_4 
REMARK    4  A    between atoms: C_3  and  O_12 
REMARK    5  A    between atoms: C_8  and  O_10 
REMARK    6  A    between atoms: O_12  and  C_13 
REMARK    7  A    between atoms: N_22  and  C_23 
REMARK       I    between atoms: N_30  and  C_31 
REMARK    8  A    between atoms: C_31  and  C_33 
ROOT
HETATM    1  C   UNK N   1      24.782  18.980   4.374  0.00  0.00     0.184 C 
ENDROOT
BRANCH   1   2
HETATM    2  C   UNK N   1      24.258  20.149   3.520  0.00  0.00     0.114 C 
HETATM    3  C   UNK N   1      25.229  20.508   2.408  0.00  0.00     0.035 C 
BRANCH   2   4
HETATM    4  N   UNK N   1      23.000  19.771   2.910  0.00  0.00    -0.346 N 
HETATM    5  C   UNK N   1      22.001  20.651   2.642  0.00  0.00     0.325 C 
HETATM    6  O   UNK N   1      22.153  21.846   2.852  0.00  0.00    -0.263 OA
HETATM    7  H   UNK N   1      22.863  18.825   2.674  0.00  0.00     0.163 HD
BRANCH   5   8
HETATM    8  C   UNK N   1      20.688  20.151   2.120  0.00  0.00     0.472 C 
HETATM    9  F   UNK N   1      20.866  18.897   1.565  0.00  0.00    -0.162 F 
HETATM   10  F   UNK N   1      20.193  21.002   1.146  0.00  0.00    -0.162 F 
HETATM   11  F   UNK N   1      19.774  20.066   3.153  0.00  0.00    -0.162 F 
ENDBRANCH   5   8
ENDBRANCH   2   4
ENDBRANCH   1   2
BRANCH   1  12
HETATM   12  C   UNK N   1      23.812  17.922   4.837  0.00  0.00    -0.024 A 
HETATM   13  C   UNK N   1      24.013  16.600   4.420  0.00  0.00     0.010 A 
HETATM   14  C   UNK N   1      23.230  15.568   4.941  0.00  0.00     0.003 A 
HETATM   15  C   UNK N   1      22.232  15.851   5.875  0.00  0.00     0.037 A 
HETATM   16  C   UNK N   1      22.008  17.167   6.291  0.00  0.00     0.068 A 
HETATM   17  C   UNK N   1      22.818  18.200   5.784  0.00  0.00     0.046 A 
BRANCH  16  18
HETATM   18  O   UNK N   1      21.009  17.415   7.171  0.00  0.00    -0.356 OA
HETATM   19  C   UNK N   1      20.222  16.424   7.713  0.00  0.00     0.210 C 
ENDBRANCH  16  18
ENDBRANCH   1  12
BRANCH   1  20
HETATM   20  O   UNK N   1      25.644  19.372   5.379  0.00  0.00    -0.339 OA
BRANCH  20  21
HETATM   21  C   UNK N   1      26.891  18.861   5.390  0.00  0.00     0.070 A 
HETATM   22  C   UNK N   1      27.480  18.399   4.187  0.00  0.00     0.039 A 
HETATM   23  C   UNK N   1      28.730  17.753   4.210  0.00  0.00     0.035 A 
HETATM   24  C   UNK N   1      29.343  17.574   5.452  0.00  0.00     0.068 A 
HETATM   25  C   UNK N   1      28.774  18.029   6.604  0.00  0.00     0.012 A 
HETATM   26  N   UNK N   1      30.510  16.975   5.758  0.00  0.00    -0.256 N 
HETATM   27  C   UNK N   1      27.555  18.686   6.618  0.00  0.00     0.052 A 
HETATM   28  C   UNK N   1      29.625  17.683   7.628  0.00  0.00     0.121 A 
HETATM   29  N   UNK N   1      30.682  17.037   7.075  0.00  0.00    -0.304 N 
ATOM     30  HN  UNK N   1      31.479  16.659   7.587  1.00  0.00     0.186 HD
BRANCH  26  31
HETATM   31  C   UNK N   1      31.473  16.378   4.869  0.00  0.00     0.057 A 
HETATM   32  C   UNK N   1      31.611  14.984   4.779  0.00  0.00     0.034 A 
HETATM   33  C   UNK N   1      32.507  14.421   3.866  0.00  0.00     0.044 A 
HETATM   34  C   UNK N   1      33.270  15.246   3.036  0.00  0.00     0.116 A 
HETATM   35  C   UNK N   1      33.149  16.635   3.129  0.00  0.00     0.044 A 
HETATM   36  F   UNK N   1      34.121  14.701   2.135  0.00  0.00    -0.206 F 
HETATM   37  C   UNK N   1      32.253  17.198   4.040  0.00  0.00     0.034 A 
ENDBRANCH  26  31
ENDBRANCH  20  21
ENDBRANCH   1  20
TORSDOF 8
ENDMDL
MODEL 8
REMARK VINA RESULT:      -7.6      4.139      7.395
REMARK  8 active torsions:
REMARK  status: ('A' for Active; 'I' for Inactive)
REMARK    1  A    between atoms: C_2  and  C_3 
REMARK    2  A    between atoms: C_2  and  N_30 
REMARK    3  A    between atoms: C_3  and  C_4 
REMARK    4  A    between atoms: C_3  and  O_12 
REMARK    5  A    between atoms: C_8  and  O_10 
REMARK    6  A    between atoms: O_12  and  C_13 
REMARK    7  A    between atoms: N_22  and  C_23 
REMARK       I    between atoms: N_30  and  C_31 
REMARK    8  A    between atoms: C_31  and  C_33 
ROOT
HETATM    1  C   UNK N   1      25.918  17.380   4.402  0.00  0.00     0.184 C 
ENDROOT
BRANCH   1   2
HETATM    2  C   UNK N   1      25.091  18.678   4.375  0.00  0.00     0.114 C 
HETATM    3  C   UNK N   1      23.605  18.396   4.512  0.00  0.00     0.035 C 
BRANCH   2   4
HETATM    4  N   UNK N   1      25.488  19.523   5.482  0.00  0.00    -0.346 N 
HETATM    5  C   UNK N   1      26.480  20.448   5.402  0.00  0.00     0.325 C 
HETATM    6  O   UNK N   1      27.052  20.656   4.341  0.00  0.00    -0.263 OA
HETATM    7  H   UNK N   1      25.013  19.424   6.338  0.00  0.00     0.163 HD
BRANCH   5   8
HETATM    8  C   UNK N   1      26.904  21.194   6.631  0.00  0.00     0.472 C 
HETATM    9  F   UNK N   1      27.128  20.293   7.656  0.00  0.00    -0.162 F 
HETATM   10  F   UNK N   1      25.920  22.083   7.028  0.00  0.00    -0.162 F 
HETATM   11  F   UNK N   1      28.069  21.893   6.377  0.00  0.00    -0.162 F 
ENDBRANCH   5   8
ENDBRANCH   2   4
ENDBRANCH   1   2
BRANCH   1  12
HETATM   12  C   UNK N   1      25.432  16.187   3.619  0.00  0.00    -0.024 A 
HETATM   13  C   UNK N   1      25.862  16.033   2.295  0.00  0.00     0.010 A 
HETATM   14  C   UNK N   1      25.557  14.871   1.584  0.00  0.00     0.003 A 
HETATM   15  C   UNK N   1      24.807  13.859   2.185  0.00  0.00     0.037 A 
HETATM   16  C   UNK N   1      24.356  14.003   3.502  0.00  0.00     0.068 A 
HETATM   17  C   UNK N   1      24.691  15.163   4.224  0.00  0.00     0.046 A 
BRANCH  16  18
HETATM   18  O   UNK N   1      23.602  13.020   4.046  0.00  0.00    -0.356 OA
HETATM   19  C   UNK N   1      24.102  11.779   4.369  0.00  0.00     0.210 C 
ENDBRANCH  16  18
ENDBRANCH   1  12
BRANCH   1  20
HETATM   20  O   UNK N   1      26.359  17.031   5.664  0.00  0.00    -0.339 OA
BRANCH  20  21
HETATM   21  C   UNK N   1      27.685  16.944   5.879  0.00  0.00     0.070 A 
HETATM   22  C   UNK N   1      28.191  16.925   7.202  0.00  0.00     0.039 A 
HETATM   23  C   UNK N   1      29.579  16.959   7.433  0.00  0.00     0.035 A 
HETATM   24  C   UNK N   1      30.419  17.031   6.320  0.00  0.00     0.068 A 
HETATM   25  C   UNK N   1      29.925  17.041   5.050  0.00  0.00     0.012 A 
HETATM   26  N   UNK N   1      31.763  17.100   6.257  0.00  0.00    -0.256 N 
HETATM   27  C   UNK N   1      28.568  16.988   4.783  0.00  0.00     0.052 A 
HETATM   28  C   UNK N   1      31.009  17.126   4.205  0.00  0.00     0.121 A 
HETATM   29  N   UNK N   1      32.122  17.161   4.979  0.00  0.00    -0.304 N 
ATOM     30  HN  UNK N   1      33.080  17.225   4.635  1.00  0.00     0.186 HD
BRANCH  26  31
HETATM   31  C   UNK N   1      32.714  17.084   7.339  0.00  0.00     0.057 A 
HETATM   32  C   UNK N   1      32.778  16.004   8.234  0.00  0.00     0.034 A 
HETATM   33  C   UNK N   1      33.748  15.977   9.239  0.00  0.00     0.044 A 
HETATM   34  C   UNK N   1      34.662  17.027   9.357  0.00  0.00     0.116 A 
HETATM   35  C   UNK N   1      34.597  18.112   8.479  0.00  0.00     0.044 A 
HETATM   36  F   UNK N   1      35.617  16.991  10.316  0.00  0.00    -0.206 F 
HETATM   37  C   UNK N   1      33.628  18.139   7.474  0.00  0.00     0.034 A 
ENDBRANCH  26  31
ENDBRANCH  20  21
ENDBRANCH   1  20
TORSDOF 8
ENDMDL
MODEL 9
REMARK VINA RESULT:      -7.4      4.114      7.327
REMARK  8 active torsions:
REMARK  status: ('A' for Active; 'I' for Inactive)
REMARK    1  A    between atoms: C_2  and  C_3 
REMARK    2  A    between atoms: C_2  and  N_30 
REMARK    3  A    between atoms: C_3  and  C_4 
REMARK    4  A    between atoms: C_3  and  O_12 
REMARK    5  A    between atoms: C_8  and  O_10 
REMARK    6  A    between atoms: O_12  and  C_13 
REMARK    7  A    between atoms: N_22  and  C_23 
REMARK       I    between atoms: N_30  and  C_31 
REMARK    8  A    between atoms: C_31  and  C_33 
ROOT
HETATM    1  C   UNK N   1      26.109  17.244   4.707  0.00  0.00     0.184 C 
ENDROOT
BRANCH   1   2
HETATM    2  C   UNK N   1      25.186  18.470   4.591  0.00  0.00     0.114 C 
HETATM    3  C   UNK N   1      23.726  18.089   4.764  0.00  0.00     0.035 C 
BRANCH   2   4
HETATM    4  N   UNK N   1      25.523  19.424   5.627  0.00  0.00    -0.346 N 
HETATM    5  C   UNK N   1      26.374  20.466   5.441  0.00  0.00     0.325 C 
HETATM    6  O   UNK N   1      26.855  20.685   4.338  0.00  0.00    -0.263 OA
HETATM    7  H   UNK N   1      25.111  19.313   6.515  0.00  0.00     0.163 HD
BRANCH   5   8
HETATM    8  C   UNK N   1      26.757  21.332   6.603  0.00  0.00     0.472 C 
HETATM    9  F   UNK N   1      28.046  21.798   6.418  0.00  0.00    -0.162 F 
HETATM   10  F   UNK N   1      26.709  20.614   7.785  0.00  0.00    -0.162 F 
HETATM   11  F   UNK N   1      25.894  22.408   6.691  0.00  0.00    -0.162 F 
ENDBRANCH   5   8
ENDBRANCH   2   4
ENDBRANCH   1   2
BRANCH   1  12
HETATM   12  C   UNK N   1      25.812  16.024   3.872  0.00  0.00    -0.024 A 
HETATM   13  C   UNK N   1      26.082  16.070   2.498  0.00  0.00     0.010 A 
HETATM   14  C   UNK N   1      25.962  14.920   1.715  0.00  0.00     0.003 A 
HETATM   15  C   UNK N   1      25.558  13.717   2.297  0.00  0.00     0.037 A 
HETATM   16  C   UNK N   1      25.270  13.657   3.665  0.00  0.00     0.068 A 
HETATM   17  C   UNK N   1      25.420  14.812   4.454  0.00  0.00     0.046 A 
BRANCH  16  18
HETATM   18  O   UNK N   1      24.848  12.485   4.193  0.00  0.00    -0.356 OA
HETATM   19  C   UNK N   1      25.683  11.613   4.854  0.00  0.00     0.210 C 
ENDBRANCH  16  18
ENDBRANCH   1  12
BRANCH   1  20
HETATM   20  O   UNK N   1      26.434  16.917   6.009  0.00  0.00    -0.339 OA
BRANCH  20  21
HETATM   21  C   UNK N   1      27.730  16.945   6.373  0.00  0.00     0.070 A 
HETATM   22  C   UNK N   1      28.659  16.066   5.764  0.00  0.00     0.039 A 
HETATM   23  C   UNK N   1      29.987  16.005   6.225  0.00  0.00     0.035 A 
HETATM   24  C   UNK N   1      30.337  16.821   7.303  0.00  0.00     0.068 A 
HETATM   25  C   UNK N   1      29.439  17.670   7.878  0.00  0.00     0.012 A 
HETATM   26  N   UNK N   1      31.513  16.939   7.948  0.00  0.00    -0.256 N 
HETATM   27  C   UNK N   1      28.131  17.772   7.439  0.00  0.00     0.052 A 
HETATM   28  C   UNK N   1      30.101  18.308   8.903  0.00  0.00     0.121 A 
HETATM   29  N   UNK N   1      31.372  17.836   8.919  0.00  0.00    -0.304 N 
ATOM     30  HN  UNK N   1      32.102  18.123   9.571  1.00  0.00     0.186 HD
BRANCH  26  31
HETATM   31  C   UNK N   1      32.759  16.269   7.674  0.00  0.00     0.057 A 
HETATM   32  C   UNK N   1      33.542  16.619   6.563  0.00  0.00     0.034 A 
HETATM   33  C   UNK N   1      34.777  16.002   6.348  0.00  0.00     0.044 A 
HETATM   34  C   UNK N   1      35.239  15.032   7.242  0.00  0.00     0.116 A 
HETATM   35  C   UNK N   1      34.460  14.668   8.343  0.00  0.00     0.044 A 
HETATM   36  F   UNK N   1      36.446  14.450   7.047  0.00  0.00    -0.206 F 
HETATM   37  C   UNK N   1      33.226  15.286   8.558  0.00  0.00     0.034 A 
ENDBRANCH  26  31
ENDBRANCH  20  21
ENDBRANCH   1  20
TORSDOF 8
ENDMDL
