MODEL 1
REMARK VINA RESULT:      -6.6      0.000      0.000
REMARK  15 active torsions:
REMARK  status: ('A' for Active; 'I' for Inactive)
REMARK    1  A    between atoms: N_2  and  C_4 
REMARK    2  A    between atoms: C_4  and  C_5 
REMARK    3  A    between atoms: C_5  and  C_6 
REMARK    4  A    between atoms: C_5  and  O_24 
REMARK    5  A    between atoms: C_6  and  O_7 
REMARK    6  A    between atoms: O_7  and  C_8 
REMARK    7  A    between atoms: C_13  and  C_14 
REMARK    8  A    between atoms: C_14  and  C_15 
REMARK    9  A    between atoms: C_15  and  C_16 
REMARK   10  A    between atoms: C_20  and  O_22 
REMARK   11  A    between atoms: O_24  and  C_25 
REMARK   12  A    between atoms: C_25  and  C_27 
REMARK   13  A    between atoms: C_27  and  C_28 
REMARK   14  A    between atoms: C_28  and  C_29 
REMARK   15  A    between atoms: C_29  and  O_31 
ROOT
HETATM    1  C   UNK N   1      30.253  17.252   7.136  0.00  0.00     0.075 A 
HETATM    2  C   UNK N   1      30.507  17.280   8.514  0.00  0.00     0.037 A 
HETATM    3  C   UNK N   1      29.612  17.877   9.402  0.00  0.00     0.003 A 
HETATM    4  C   UNK N   1      28.439  18.456   8.925  0.00  0.00     0.001 A 
HETATM    5  C   UNK N   1      28.152  18.424   7.562  0.00  0.00     0.010 A 
HETATM    6  C   UNK N   1      29.038  17.827   6.646  0.00  0.00    -0.025 A 
ENDROOT
BRANCH   1   7
HETATM    7  O   UNK N   1      31.203  16.684   6.340  0.00  0.00    -0.348 OA
BRANCH   7   8
HETATM    8  C   UNK N   1      32.346  17.322   5.915  0.00  0.00     0.210 C 
BRANCH   8   9
HETATM    9  C   UNK N   1      33.597  16.630   6.415  0.00  0.00     0.184 C 
BRANCH   9  10
HETATM   10  C   UNK N   1      34.178  15.884   5.216  0.00  0.00     0.305 C 
BRANCH  10  11
HETATM   11  N   UNK N   1      34.699  14.586   5.607  0.00  0.00     0.082 N 
HETATM   12  C   UNK N   1      35.219  13.959   4.407  0.00  0.00     0.309 C 
HETATM   13  C   UNK N   1      33.585  13.775   6.069  0.00  0.00     0.309 C 
ENDBRANCH  10  11
ENDBRANCH   9  10
BRANCH   9  14
HETATM   14  O   UNK N   1      34.473  17.602   6.872  0.00  0.00    -0.312 OA
BRANCH  14  15
HETATM   15  C   UNK N   1      34.549  18.049   8.153  0.00  0.00     0.259 C 
HETATM   16  O   UNK N   1      35.046  19.132   8.417  0.00  0.00    -0.265 OA
BRANCH  15  17
HETATM   17  C   UNK N   1      34.028  17.194   9.259  0.00  0.00     0.121 C 
BRANCH  17  18
HETATM   18  C   UNK N   1      35.178  16.420   9.883  0.00  0.00     0.119 C 
BRANCH  18  19
HETATM   19  C   UNK N   1      34.688  15.536  10.980  0.00  0.00     0.139 C 
HETATM   20  O   UNK N   1      35.467  15.108  11.816  0.00  0.00    -0.650 OA
BRANCH  19  21
HETATM   21  O   UNK N   1      33.390  15.185  11.029  0.00  0.00    -0.776 OA
HETATM   22  H   UNK N   1      32.840  15.460  11.736  0.00  0.00     0.167 HD
ENDBRANCH  19  21
ENDBRANCH  18  19
ENDBRANCH  17  18
ENDBRANCH  15  17
ENDBRANCH  14  15
ENDBRANCH   9  14
ENDBRANCH   8   9
ENDBRANCH   7   8
ENDBRANCH   1   7
BRANCH   6  23
HETATM   23  C   UNK N   1      28.668  17.789   5.179  0.00  0.00     0.046 C 
BRANCH  23  24
HETATM   24  C   UNK N   1      27.276  17.217   4.898  0.00  0.00     0.043 C 
BRANCH  24  25
HETATM   25  C   UNK N   1      26.279  18.205   4.368  0.00  0.00    -0.055 A 
HETATM   26  C   UNK N   1      26.743  19.462   3.969  0.00  0.00     0.007 A 
HETATM   27  C   UNK N   1      25.855  20.422   3.479  0.00  0.00     0.003 A 
HETATM   28  C   UNK N   1      24.493  20.132   3.389  0.00  0.00     0.037 A 
HETATM   29  C   UNK N   1      24.009  18.873   3.785  0.00  0.00     0.068 A 
HETATM   30  C   UNK N   1      24.907  17.915   4.273  0.00  0.00     0.044 A 
BRANCH  29  31
HETATM   31  O   UNK N   1      22.693  18.567   3.708  0.00  0.00    -0.356 OA
HETATM   32  C   UNK N   1      21.825  18.684   4.772  0.00  0.00     0.210 C 
ENDBRANCH  29  31
ENDBRANCH  24  25
ENDBRANCH  23  24
ENDBRANCH   6  23
TORSDOF 15
ENDMDL
MODEL 2
REMARK VINA RESULT:      -6.6      3.020      5.011
REMARK  15 active torsions:
REMARK  status: ('A' for Active; 'I' for Inactive)
REMARK    1  A    between atoms: N_2  and  C_4 
REMARK    2  A    between atoms: C_4  and  C_5 
REMARK    3  A    between atoms: C_5  and  C_6 
REMARK    4  A    between atoms: C_5  and  O_24 
REMARK    5  A    between atoms: C_6  and  O_7 
REMARK    6  A    between atoms: O_7  and  C_8 
REMARK    7  A    between atoms: C_13  and  C_14 
REMARK    8  A    between atoms: C_14  and  C_15 
REMARK    9  A    between atoms: C_15  and  C_16 
REMARK   10  A    between atoms: C_20  and  O_22 
REMARK   11  A    between atoms: O_24  and  C_25 
REMARK   12  A    between atoms: C_25  and  C_27 
REMARK   13  A    between atoms: C_27  and  C_28 
REMARK   14  A    between atoms: C_28  and  C_29 
REMARK   15  A    between atoms: C_29  and  O_31 
ROOT
HETATM    1  C   UNK N   1      34.088  15.944   5.383  0.00  0.00     0.075 A 
HETATM    2  C   UNK N   1      34.142  15.351   4.114  0.00  0.00     0.037 A 
HETATM    3  C   UNK N   1      33.343  15.810   3.067  0.00  0.00     0.003 A 
HETATM    4  C   UNK N   1      32.476  16.881   3.270  0.00  0.00     0.001 A 
HETATM    5  C   UNK N   1      32.418  17.502   4.514  0.00  0.00     0.010 A 
HETATM    6  C   UNK N   1      33.213  17.058   5.588  0.00  0.00    -0.025 A 
ENDROOT
BRANCH   1   7
HETATM    7  O   UNK N   1      34.873  15.403   6.357  0.00  0.00    -0.348 OA
BRANCH   7   8
HETATM    8  C   UNK N   1      34.534  14.302   7.109  0.00  0.00     0.210 C 
BRANCH   8   9
HETATM    9  C   UNK N   1      35.115  14.371   8.506  0.00  0.00     0.184 C 
BRANCH   9  10
HETATM   10  C   UNK N   1      36.406  13.557   8.469  0.00  0.00     0.305 C 
BRANCH  10  11
HETATM   11  N   UNK N   1      36.441  12.576   9.540  0.00  0.00     0.082 N 
HETATM   12  C   UNK N   1      37.811  12.509  10.010  0.00  0.00     0.309 C 
HETATM   13  C   UNK N   1      36.115  11.278   8.972  0.00  0.00     0.309 C 
ENDBRANCH  10  11
ENDBRANCH   9  10
BRANCH   9  14
HETATM   14  O   UNK N   1      35.370  15.700   8.801  0.00  0.00    -0.312 OA
BRANCH  14  15
HETATM   15  C   UNK N   1      35.237  16.270  10.028  0.00  0.00     0.259 C 
HETATM   16  O   UNK N   1      35.526  17.441  10.216  0.00  0.00    -0.265 OA
BRANCH  15  17
HETATM   17  C   UNK N   1      34.742  15.446  11.169  0.00  0.00     0.121 C 
BRANCH  17  18
HETATM   18  C   UNK N   1      35.884  15.189  12.139  0.00  0.00     0.119 C 
BRANCH  18  19
HETATM   19  C   UNK N   1      35.692  13.893  12.852  0.00  0.00     0.139 C 
HETATM   20  O   UNK N   1      36.619  13.388  13.465  0.00  0.00    -0.650 OA
BRANCH  19  21
HETATM   21  O   UNK N   1      34.505  13.264  12.792  0.00  0.00    -0.776 OA
HETATM   22  H   UNK N   1      34.184  12.765  13.517  0.00  0.00     0.167 HD
ENDBRANCH  19  21
ENDBRANCH  18  19
ENDBRANCH  17  18
ENDBRANCH  15  17
ENDBRANCH  14  15
ENDBRANCH   9  14
ENDBRANCH   8   9
ENDBRANCH   7   8
ENDBRANCH   1   7
BRANCH   6  23
HETATM   23  C   UNK N   1      33.138  17.785   6.913  0.00  0.00     0.046 C 
BRANCH  23  24
HETATM   24  C   UNK N   1      32.294  17.073   7.973  0.00  0.00     0.043 C 
BRANCH  24  25
HETATM   25  C   UNK N   1      30.866  17.527   8.057  0.00  0.00    -0.055 A 
HETATM   26  C   UNK N   1      30.501  18.365   9.115  0.00  0.00     0.007 A 
HETATM   27  C   UNK N   1      29.183  18.807   9.246  0.00  0.00     0.003 A 
HETATM   28  C   UNK N   1      28.218  18.411   8.319  0.00  0.00     0.037 A 
HETATM   29  C   UNK N   1      28.568  17.569   7.248  0.00  0.00     0.068 A 
HETATM   30  C   UNK N   1      29.893  17.132   7.124  0.00  0.00     0.044 A 
BRANCH  29  31
HETATM   31  O   UNK N   1      27.651  17.169   6.337  0.00  0.00    -0.356 OA
HETATM   32  C   UNK N   1      26.990  15.964   6.407  0.00  0.00     0.210 C 
ENDBRANCH  29  31
ENDBRANCH  24  25
ENDBRANCH  23  24
ENDBRANCH   6  23
TORSDOF 15
ENDMDL
MODEL 3
REMARK VINA RESULT:      -6.6      3.452     11.196
REMARK  15 active torsions:
REMARK  status: ('A' for Active; 'I' for Inactive)
REMARK    1  A    between atoms: N_2  and  C_4 
REMARK    2  A    between atoms: C_4  and  C_5 
REMARK    3  A    between atoms: C_5  and  C_6 
REMARK    4  A    between atoms: C_5  and  O_24 
REMARK    5  A    between atoms: C_6  and  O_7 
REMARK    6  A    between atoms: O_7  and  C_8 
REMARK    7  A    between atoms: C_13  and  C_14 
REMARK    8  A    between atoms: C_14  and  C_15 
REMARK    9  A    between atoms: C_15  and  C_16 
REMARK   10  A    between atoms: C_20  and  O_22 
REMARK   11  A    between atoms: O_24  and  C_25 
REMARK   12  A    between atoms: C_25  and  C_27 
REMARK   13  A    between atoms: C_27  and  C_28 
REMARK   14  A    between atoms: C_28  and  C_29 
REMARK   15  A    between atoms: C_29  and  O_31 
ROOT
HETATM    1  C   UNK N   1      24.842  18.466   4.284  0.00  0.00     0.075 A 
HETATM    2  C   UNK N   1      24.332  19.489   3.474  0.00  0.00     0.037 A 
HETATM    3  C   UNK N   1      25.158  20.495   2.974  0.00  0.00     0.003 A 
HETATM    4  C   UNK N   1      26.518  20.493   3.272  0.00  0.00     0.001 A 
HETATM    5  C   UNK N   1      27.055  19.476   4.058  0.00  0.00     0.010 A 
HETATM    6  C   UNK N   1      26.243  18.450   4.576  0.00  0.00    -0.025 A 
ENDROOT
BRANCH   1   7
HETATM    7  O   UNK N   1      23.954  17.550   4.762  0.00  0.00    -0.348 OA
BRANCH   7   8
HETATM    8  C   UNK N   1      23.512  16.452   4.059  0.00  0.00     0.210 C 
BRANCH   8   9
HETATM    9  C   UNK N   1      22.103  16.059   4.452  0.00  0.00     0.184 C 
BRANCH   9  10
HETATM   10  C   UNK N   1      21.815  16.774   5.770  0.00  0.00     0.305 C 
BRANCH  10  11
HETATM   11  N   UNK N   1      21.121  15.901   6.701  0.00  0.00     0.082 N 
HETATM   12  C   UNK N   1      20.526  16.749   7.715  0.00  0.00     0.309 C 
HETATM   13  C   UNK N   1      22.113  15.070   7.362  0.00  0.00     0.309 C 
ENDBRANCH  10  11
ENDBRANCH   9  10
BRANCH   9  14
HETATM   14  O   UNK N   1      21.242  16.485   3.453  0.00  0.00    -0.312 OA
BRANCH  14  15
HETATM   15  C   UNK N   1      20.330  17.485   3.578  0.00  0.00     0.259 C 
HETATM   16  O   UNK N   1      19.201  17.262   3.986  0.00  0.00    -0.265 OA
BRANCH  15  17
HETATM   17  C   UNK N   1      20.710  18.876   3.199  0.00  0.00     0.121 C 
BRANCH  17  18
HETATM   18  C   UNK N   1      20.403  19.099   1.727  0.00  0.00     0.119 C 
BRANCH  18  19
HETATM   19  C   UNK N   1      20.947  20.409   1.265  0.00  0.00     0.139 C 
HETATM   20  O   UNK N   1      21.480  21.166   2.061  0.00  0.00    -0.650 OA
BRANCH  19  21
HETATM   21  O   UNK N   1      20.821  20.771  -0.024  0.00  0.00    -0.776 OA
HETATM   22  H   UNK N   1      20.795  21.674  -0.274  0.00  0.00     0.167 HD
ENDBRANCH  19  21
ENDBRANCH  18  19
ENDBRANCH  17  18
ENDBRANCH  15  17
ENDBRANCH  14  15
ENDBRANCH   9  14
ENDBRANCH   8   9
ENDBRANCH   7   8
ENDBRANCH   1   7
BRANCH   6  23
HETATM   23  C   UNK N   1      26.878  17.350   5.398  0.00  0.00     0.046 C 
BRANCH  23  24
HETATM   24  C   UNK N   1      28.406  17.307   5.317  0.00  0.00     0.043 C 
BRANCH  24  25
HETATM   25  C   UNK N   1      29.119  17.598   6.605  0.00  0.00    -0.055 A 
HETATM   26  C   UNK N   1      28.419  18.274   7.609  0.00  0.00     0.007 A 
HETATM   27  C   UNK N   1      29.039  18.579   8.822  0.00  0.00     0.003 A 
HETATM   28  C   UNK N   1      30.367  18.212   9.040  0.00  0.00     0.037 A 
HETATM   29  C   UNK N   1      31.086  17.531   8.041  0.00  0.00     0.068 A 
HETATM   30  C   UNK N   1      30.456  17.227   6.828  0.00  0.00     0.044 A 
BRANCH  29  31
HETATM   31  O   UNK N   1      32.376  17.164   8.227  0.00  0.00    -0.356 OA
HETATM   32  C   UNK N   1      33.431  18.045   8.149  0.00  0.00     0.210 C 
ENDBRANCH  29  31
ENDBRANCH  24  25
ENDBRANCH  23  24
ENDBRANCH   6  23
TORSDOF 15
ENDMDL
MODEL 4
REMARK VINA RESULT:      -6.5      4.003     11.025
REMARK  15 active torsions:
REMARK  status: ('A' for Active; 'I' for Inactive)
REMARK    1  A    between atoms: N_2  and  C_4 
REMARK    2  A    between atoms: C_4  and  C_5 
REMARK    3  A    between atoms: C_5  and  C_6 
REMARK    4  A    between atoms: C_5  and  O_24 
REMARK    5  A    between atoms: C_6  and  O_7 
REMARK    6  A    between atoms: O_7  and  C_8 
REMARK    7  A    between atoms: C_13  and  C_14 
REMARK    8  A    between atoms: C_14  and  C_15 
REMARK    9  A    between atoms: C_15  and  C_16 
REMARK   10  A    between atoms: C_20  and  O_22 
REMARK   11  A    between atoms: O_24  and  C_25 
REMARK   12  A    between atoms: C_25  and  C_27 
REMARK   13  A    between atoms: C_27  and  C_28 
REMARK   14  A    between atoms: C_28  and  C_29 
REMARK   15  A    between atoms: C_29  and  O_31 
ROOT
HETATM    1  C   UNK N   1      25.096  18.303   4.257  0.00  0.00     0.075 A 
HETATM    2  C   UNK N   1      24.588  19.337   3.459  0.00  0.00     0.037 A 
HETATM    3  C   UNK N   1      25.411  20.364   2.997  0.00  0.00     0.003 A 
HETATM    4  C   UNK N   1      26.765  20.373   3.323  0.00  0.00     0.001 A 
HETATM    5  C   UNK N   1      27.300  19.346   4.098  0.00  0.00     0.010 A 
HETATM    6  C   UNK N   1      26.491  18.299   4.577  0.00  0.00    -0.025 A 
ENDROOT
BRANCH   1   7
HETATM    7  O   UNK N   1      24.211  17.364   4.697  0.00  0.00    -0.348 OA
BRANCH   7   8
HETATM    8  C   UNK N   1      23.057  17.010   4.035  0.00  0.00     0.210 C 
BRANCH   8   9
HETATM    9  C   UNK N   1      21.822  17.555   4.721  0.00  0.00     0.184 C 
BRANCH   9  10
HETATM   10  C   UNK N   1      20.630  17.050   3.913  0.00  0.00     0.305 C 
BRANCH  10  11
HETATM   11  N   UNK N   1      19.940  18.145   3.252  0.00  0.00     0.082 N 
HETATM   12  C   UNK N   1      20.102  17.949   1.825  0.00  0.00     0.309 C 
HETATM   13  C   UNK N   1      20.623  19.381   3.598  0.00  0.00     0.309 C 
ENDBRANCH  10  11
ENDBRANCH   9  10
BRANCH   9  14
HETATM   14  O   UNK N   1      21.795  17.061   6.015  0.00  0.00    -0.312 OA
BRANCH  14  15
HETATM   15  C   UNK N   1      21.044  17.564   7.031  0.00  0.00     0.259 C 
HETATM   16  O   UNK N   1      20.881  18.766   7.161  0.00  0.00    -0.265 OA
BRANCH  15  17
HETATM   17  C   UNK N   1      20.418  16.630   8.012  0.00  0.00     0.121 C 
BRANCH  17  18
HETATM   18  C   UNK N   1      18.905  16.710   7.890  0.00  0.00     0.119 C 
BRANCH  18  19
HETATM   19  C   UNK N   1      18.315  17.397   9.075  0.00  0.00     0.139 C 
HETATM   20  O   UNK N   1      17.326  16.934   9.622  0.00  0.00    -0.650 OA
BRANCH  19  21
HETATM   21  O   UNK N   1      18.854  18.545   9.523  0.00  0.00    -0.776 OA
HETATM   22  H   UNK N   1      18.361  19.135  10.059  0.00  0.00     0.167 HD
ENDBRANCH  19  21
ENDBRANCH  18  19
ENDBRANCH  17  18
ENDBRANCH  15  17
ENDBRANCH  14  15
ENDBRANCH   9  14
ENDBRANCH   8   9
ENDBRANCH   7   8
ENDBRANCH   1   7
BRANCH   6  23
HETATM   23  C   UNK N   1      27.124  17.189   5.388  0.00  0.00     0.046 C 
BRANCH  23  24
HETATM   24  C   UNK N   1      28.655  17.194   5.370  0.00  0.00     0.043 C 
BRANCH  24  25
HETATM   25  C   UNK N   1      29.303  17.548   6.677  0.00  0.00    -0.055 A 
HETATM   26  C   UNK N   1      28.527  18.187   7.647  0.00  0.00     0.007 A 
HETATM   27  C   UNK N   1      29.085  18.548   8.876  0.00  0.00     0.003 A 
HETATM   28  C   UNK N   1      30.427  18.274   9.141  0.00  0.00     0.037 A 
HETATM   29  C   UNK N   1      31.222  17.630   8.176  0.00  0.00     0.068 A 
HETATM   30  C   UNK N   1      30.654  17.270   6.947  0.00  0.00     0.044 A 
BRANCH  29  31
HETATM   31  O   UNK N   1      32.527  17.354   8.408  0.00  0.00    -0.356 OA
HETATM   32  C   UNK N   1      33.555  18.197   8.047  0.00  0.00     0.210 C 
ENDBRANCH  29  31
ENDBRANCH  24  25
ENDBRANCH  23  24
ENDBRANCH   6  23
TORSDOF 15
ENDMDL
MODEL 5
REMARK VINA RESULT:      -6.5      1.525      2.502
REMARK  15 active torsions:
REMARK  status: ('A' for Active; 'I' for Inactive)
REMARK    1  A    between atoms: N_2  and  C_4 
REMARK    2  A    between atoms: C_4  and  C_5 
REMARK    3  A    between atoms: C_5  and  C_6 
REMARK    4  A    between atoms: C_5  and  O_24 
REMARK    5  A    between atoms: C_6  and  O_7 
REMARK    6  A    between atoms: O_7  and  C_8 
REMARK    7  A    between atoms: C_13  and  C_14 
REMARK    8  A    between atoms: C_14  and  C_15 
REMARK    9  A    between atoms: C_15  and  C_16 
REMARK   10  A    between atoms: C_20  and  O_22 
REMARK   11  A    between atoms: O_24  and  C_25 
REMARK   12  A    between atoms: C_25  and  C_27 
REMARK   13  A    between atoms: C_27  and  C_28 
REMARK   14  A    between atoms: C_28  and  C_29 
REMARK   15  A    between atoms: C_29  and  O_31 
ROOT
HETATM    1  C   UNK N   1      30.065  17.163   7.359  0.00  0.00     0.075 A 
HETATM    2  C   UNK N   1      30.260  17.081   8.744  0.00  0.00     0.037 A 
HETATM    3  C   UNK N   1      29.413  17.743   9.633  0.00  0.00     0.003 A 
HETATM    4  C   UNK N   1      28.347  18.497   9.151  0.00  0.00     0.001 A 
HETATM    5  C   UNK N   1      28.118  18.579   7.779  0.00  0.00     0.010 A 
HETATM    6  C   UNK N   1      28.959  17.921   6.861  0.00  0.00    -0.025 A 
ENDROOT
BRANCH   1   7
HETATM    7  O   UNK N   1      30.966  16.519   6.565  0.00  0.00    -0.348 OA
BRANCH   7   8
HETATM    8  C   UNK N   1      30.885  15.192   6.211  0.00  0.00     0.210 C 
BRANCH   8   9
HETATM    9  C   UNK N   1      32.100  14.410   6.663  0.00  0.00     0.184 C 
BRANCH   9  10
HETATM   10  C   UNK N   1      32.661  13.735   5.414  0.00  0.00     0.305 C 
BRANCH  10  11
HETATM   11  N   UNK N   1      32.590  14.618   4.262  0.00  0.00     0.082 N 
HETATM   12  C   UNK N   1      32.182  13.808   3.131  0.00  0.00     0.309 C 
HETATM   13  C   UNK N   1      33.931  15.103   3.984  0.00  0.00     0.309 C 
ENDBRANCH  10  11
ENDBRANCH   9  10
BRANCH   9  14
HETATM   14  O   UNK N   1      33.012  15.305   7.200  0.00  0.00    -0.312 OA
BRANCH  14  15
HETATM   15  C   UNK N   1      33.923  15.011   8.165  0.00  0.00     0.259 C 
HETATM   16  O   UNK N   1      34.399  13.892   8.265  0.00  0.00    -0.265 OA
BRANCH  15  17
HETATM   17  C   UNK N   1      34.338  16.072   9.128  0.00  0.00     0.121 C 
BRANCH  17  18
HETATM   18  C   UNK N   1      33.629  17.372   8.783  0.00  0.00     0.119 C 
BRANCH  18  19
HETATM   19  C   UNK N   1      34.508  18.253   7.961  0.00  0.00     0.139 C 
HETATM   20  O   UNK N   1      34.553  18.114   6.749  0.00  0.00    -0.650 OA
BRANCH  19  21
HETATM   21  O   UNK N   1      35.276  19.181   8.560  0.00  0.00    -0.776 OA
HETATM   22  H   UNK N   1      34.933  19.731   9.237  0.00  0.00     0.167 HD
ENDBRANCH  19  21
ENDBRANCH  18  19
ENDBRANCH  17  18
ENDBRANCH  15  17
ENDBRANCH  14  15
ENDBRANCH   9  14
ENDBRANCH   8   9
ENDBRANCH   7   8
ENDBRANCH   1   7
BRANCH   6  23
HETATM   23  C   UNK N   1      28.651  18.014   5.382  0.00  0.00     0.046 C 
BRANCH  23  24
HETATM   24  C   UNK N   1      28.273  19.419   4.906  0.00  0.00     0.043 C 
BRANCH  24  25
HETATM   25  C   UNK N   1      26.871  19.558   4.390  0.00  0.00    -0.055 A 
HETATM   26  C   UNK N   1      26.650  20.402   3.298  0.00  0.00     0.007 A 
HETATM   27  C   UNK N   1      25.362  20.576   2.786  0.00  0.00     0.003 A 
HETATM   28  C   UNK N   1      24.284  19.907   3.366  0.00  0.00     0.037 A 
HETATM   29  C   UNK N   1      24.488  19.052   4.464  0.00  0.00     0.068 A 
HETATM   30  C   UNK N   1      25.783  18.883   4.970  0.00  0.00     0.044 A 
BRANCH  29  31
HETATM   31  O   UNK N   1      23.459  18.392   5.045  0.00  0.00    -0.356 OA
HETATM   32  C   UNK N   1      23.270  17.033   4.929  0.00  0.00     0.210 C 
ENDBRANCH  29  31
ENDBRANCH  24  25
ENDBRANCH  23  24
ENDBRANCH   6  23
TORSDOF 15
ENDMDL
MODEL 6
REMARK VINA RESULT:      -6.4      2.091      3.767
REMARK  15 active torsions:
REMARK  status: ('A' for Active; 'I' for Inactive)
REMARK    1  A    between atoms: N_2  and  C_4 
REMARK    2  A    between atoms: C_4  and  C_5 
REMARK    3  A    between atoms: C_5  and  C_6 
REMARK    4  A    between atoms: C_5  and  O_24 
REMARK    5  A    between atoms: C_6  and  O_7 
REMARK    6  A    between atoms: O_7  and  C_8 
REMARK    7  A    between atoms: C_13  and  C_14 
REMARK    8  A    between atoms: C_14  and  C_15 
REMARK    9  A    between atoms: C_15  and  C_16 
REMARK   10  A    between atoms: C_20  and  O_22 
REMARK   11  A    between atoms: O_24  and  C_25 
REMARK   12  A    between atoms: C_25  and  C_27 
REMARK   13  A    between atoms: C_27  and  C_28 
REMARK   14  A    between atoms: C_28  and  C_29 
REMARK   15  A    between atoms: C_29  and  O_31 
ROOT
HETATM    1  C   UNK N   1      27.383  18.648   5.427  0.00  0.00     0.075 A 
HETATM    2  C   UNK N   1      27.868  19.387   6.514  0.00  0.00     0.037 A 
HETATM    3  C   UNK N   1      27.412  20.680   6.770  0.00  0.00     0.003 A 
HETATM    4  C   UNK N   1      26.453  21.258   5.942  0.00  0.00     0.001 A 
HETATM    5  C   UNK N   1      25.939  20.538   4.866  0.00  0.00     0.010 A 
HETATM    6  C   UNK N   1      26.383  19.232   4.586  0.00  0.00    -0.025 A 
ENDROOT
BRANCH   1   7
HETATM    7  O   UNK N   1      27.916  17.409   5.229  0.00  0.00    -0.348 OA
BRANCH   7   8
HETATM    8  C   UNK N   1      28.428  16.613   6.227  0.00  0.00     0.210 C 
BRANCH   8   9
HETATM    9  C   UNK N   1      29.885  16.274   5.989  0.00  0.00     0.184 C 
BRANCH   9  10
HETATM   10  C   UNK N   1      30.044  16.124   4.478  0.00  0.00     0.305 C 
BRANCH  10  11
HETATM   11  N   UNK N   1      30.904  15.000   4.149  0.00  0.00     0.082 N 
HETATM   12  C   UNK N   1      30.915  14.122   5.303  0.00  0.00     0.309 C 
HETATM   13  C   UNK N   1      32.257  15.504   3.977  0.00  0.00     0.309 C 
ENDBRANCH  10  11
ENDBRANCH   9  10
BRANCH   9  14
HETATM   14  O   UNK N   1      30.655  17.320   6.472  0.00  0.00    -0.312 OA
BRANCH  14  15
HETATM   15  C   UNK N   1      31.416  17.278   7.597  0.00  0.00     0.259 C 
HETATM   16  O   UNK N   1      31.014  17.748   8.650  0.00  0.00    -0.265 OA
BRANCH  15  17
HETATM   17  C   UNK N   1      32.772  16.659   7.542  0.00  0.00     0.121 C 
BRANCH  17  18
HETATM   18  C   UNK N   1      33.802  17.729   7.217  0.00  0.00     0.119 C 
BRANCH  18  19
HETATM   19  C   UNK N   1      34.513  18.171   8.451  0.00  0.00     0.139 C 
HETATM   20  O   UNK N   1      35.223  19.164   8.426  0.00  0.00    -0.650 OA
BRANCH  19  21
HETATM   21  O   UNK N   1      34.397  17.457   9.585  0.00  0.00    -0.776 OA
HETATM   22  H   UNK N   1      33.581  17.402  10.042  0.00  0.00     0.167 HD
ENDBRANCH  19  21
ENDBRANCH  18  19
ENDBRANCH  17  18
ENDBRANCH  15  17
ENDBRANCH  14  15
ENDBRANCH   9  14
ENDBRANCH   8   9
ENDBRANCH   7   8
ENDBRANCH   1   7
BRANCH   6  23
HETATM   23  C   UNK N   1      25.772  18.478   3.425  0.00  0.00     0.046 C 
BRANCH  23  24
HETATM   24  C   UNK N   1      24.916  17.277   3.837  0.00  0.00     0.043 C 
BRANCH  24  25
HETATM   25  C   UNK N   1      23.605  17.624   4.481  0.00  0.00    -0.055 A 
HETATM   26  C   UNK N   1      23.203  16.887   5.598  0.00  0.00     0.007 A 
HETATM   27  C   UNK N   1      21.987  17.161   6.228  0.00  0.00     0.003 A 
HETATM   28  C   UNK N   1      21.162  18.176   5.742  0.00  0.00     0.037 A 
HETATM   29  C   UNK N   1      21.552  18.929   4.620  0.00  0.00     0.068 A 
HETATM   30  C   UNK N   1      22.774  18.647   3.995  0.00  0.00     0.044 A 
BRANCH  29  31
HETATM   31  O   UNK N   1      20.769  19.917   4.127  0.00  0.00    -0.356 OA
HETATM   32  C   UNK N   1      21.018  20.556   2.933  0.00  0.00     0.210 C 
ENDBRANCH  29  31
ENDBRANCH  24  25
ENDBRANCH  23  24
ENDBRANCH   6  23
TORSDOF 15
ENDMDL
MODEL 7
REMARK VINA RESULT:      -6.4     11.849     14.409
REMARK  15 active torsions:
REMARK  status: ('A' for Active; 'I' for Inactive)
REMARK    1  A    between atoms: N_2  and  C_4 
REMARK    2  A    between atoms: C_4  and  C_5 
REMARK    3  A    between atoms: C_5  and  C_6 
REMARK    4  A    between atoms: C_5  and  O_24 
REMARK    5  A    between atoms: C_6  and  O_7 
REMARK    6  A    between atoms: O_7  and  C_8 
REMARK    7  A    between atoms: C_13  and  C_14 
REMARK    8  A    between atoms: C_14  and  C_15 
REMARK    9  A    between atoms: C_15  and  C_16 
REMARK   10  A    between atoms: C_20  and  O_22 
REMARK   11  A    between atoms: O_24  and  C_25 
REMARK   12  A    between atoms: C_25  and  C_27 
REMARK   13  A    between atoms: C_27  and  C_28 
REMARK   14  A    between atoms: C_28  and  C_29 
REMARK   15  A    between atoms: C_29  and  O_31 
ROOT
HETATM    1  C   UNK N   1      27.776  21.831  -7.555  0.00  0.00     0.075 A 
HETATM    2  C   UNK N   1      27.158  20.911  -8.413  0.00  0.00     0.037 A 
HETATM    3  C   UNK N   1      25.771  20.767  -8.441  0.00  0.00     0.003 A 
HETATM    4  C   UNK N   1      24.972  21.548  -7.610  0.00  0.00     0.001 A 
HETATM    5  C   UNK N   1      25.559  22.485  -6.762  0.00  0.00     0.010 A 
HETATM    6  C   UNK N   1      26.956  22.649  -6.715  0.00  0.00    -0.025 A 
ENDROOT
BRANCH   1   7
HETATM    7  O   UNK N   1      29.138  21.874  -7.565  0.00  0.00    -0.348 OA
BRANCH   7   8
HETATM    8  C   UNK N   1      29.949  20.811  -7.893  0.00  0.00     0.210 C 
BRANCH   8   9
HETATM    9  C   UNK N   1      30.865  20.425  -6.751  0.00  0.00     0.184 C 
BRANCH   9  10
HETATM   10  C   UNK N   1      32.052  19.703  -7.384  0.00  0.00     0.305 C 
BRANCH  10  11
HETATM   11  N   UNK N   1      32.614  20.475  -8.479  0.00  0.00     0.082 N 
HETATM   12  C   UNK N   1      32.812  19.558  -9.586  0.00  0.00     0.309 C 
HETATM   13  C   UNK N   1      33.926  20.948  -8.070  0.00  0.00     0.309 C 
ENDBRANCH  10  11
ENDBRANCH   9  10
BRANCH   9  14
HETATM   14  O   UNK N   1      31.269  21.586  -6.111  0.00  0.00    -0.312 OA
BRANCH  14  15
HETATM   15  C   UNK N   1      31.738  21.656  -4.837  0.00  0.00     0.259 C 
HETATM   16  O   UNK N   1      32.863  22.065  -4.600  0.00  0.00    -0.265 OA
BRANCH  15  17
HETATM   17  C   UNK N   1      30.867  21.213  -3.710  0.00  0.00     0.121 C 
BRANCH  17  18
HETATM   18  C   UNK N   1      29.765  22.238  -3.492  0.00  0.00     0.119 C 
BRANCH  18  19
HETATM   19  C   UNK N   1      30.207  23.296  -2.539  0.00  0.00     0.139 C 
HETATM   20  O   UNK N   1      30.369  24.442  -2.927  0.00  0.00    -0.650 OA
BRANCH  19  21
HETATM   21  O   UNK N   1      30.460  22.980  -1.256  0.00  0.00    -0.776 OA
HETATM   22  H   UNK N   1      30.025  23.422  -0.553  0.00  0.00     0.167 HD
ENDBRANCH  19  21
ENDBRANCH  18  19
ENDBRANCH  17  18
ENDBRANCH  15  17
ENDBRANCH  14  15
ENDBRANCH   9  14
ENDBRANCH   8   9
ENDBRANCH   7   8
ENDBRANCH   1   7
BRANCH   6  23
HETATM   23  C   UNK N   1      27.544  23.701  -5.800  0.00  0.00     0.046 C 
BRANCH  23  24
HETATM   24  C   UNK N   1      26.655  24.065  -4.608  0.00  0.00     0.043 C 
BRANCH  24  25
HETATM   25  C   UNK N   1      26.212  25.498  -4.560  0.00  0.00    -0.055 A 
HETATM   26  C   UNK N   1      25.276  25.931  -5.503  0.00  0.00     0.007 A 
HETATM   27  C   UNK N   1      24.839  27.258  -5.510  0.00  0.00     0.003 A 
HETATM   28  C   UNK N   1      25.339  28.163  -4.573  0.00  0.00     0.037 A 
HETATM   29  C   UNK N   1      26.281  27.744  -3.616  0.00  0.00     0.068 A 
HETATM   30  C   UNK N   1      26.712  26.411  -3.616  0.00  0.00     0.044 A 
BRANCH  29  31
HETATM   31  O   UNK N   1      26.782  28.602  -2.697  0.00  0.00    -0.356 OA
HETATM   32  C   UNK N   1      27.021  29.933  -2.956  0.00  0.00     0.210 C 
ENDBRANCH  29  31
ENDBRANCH  24  25
ENDBRANCH  23  24
ENDBRANCH   6  23
TORSDOF 15
ENDMDL
MODEL 8
REMARK VINA RESULT:      -6.4      7.315     11.400
REMARK  15 active torsions:
REMARK  status: ('A' for Active; 'I' for Inactive)
REMARK    1  A    between atoms: N_2  and  C_4 
REMARK    2  A    between atoms: C_4  and  C_5 
REMARK    3  A    between atoms: C_5  and  C_6 
REMARK    4  A    between atoms: C_5  and  O_24 
REMARK    5  A    between atoms: C_6  and  O_7 
REMARK    6  A    between atoms: O_7  and  C_8 
REMARK    7  A    between atoms: C_13  and  C_14 
REMARK    8  A    between atoms: C_14  and  C_15 
REMARK    9  A    between atoms: C_15  and  C_16 
REMARK   10  A    between atoms: C_20  and  O_22 
REMARK   11  A    between atoms: O_24  and  C_25 
REMARK   12  A    between atoms: C_25  and  C_27 
REMARK   13  A    between atoms: C_27  and  C_28 
REMARK   14  A    between atoms: C_28  and  C_29 
REMARK   15  A    between atoms: C_29  and  O_31 
ROOT
HETATM    1  C   UNK N   1      20.980  16.334   7.206  0.00  0.00     0.075 A 
HETATM    2  C   UNK N   1      20.850  17.729   7.181  0.00  0.00     0.037 A 
HETATM    3  C   UNK N   1      20.017  18.393   8.081  0.00  0.00     0.003 A 
HETATM    4  C   UNK N   1      19.299  17.671   9.031  0.00  0.00     0.001 A 
HETATM    5  C   UNK N   1      19.425  16.285   9.091  0.00  0.00     0.010 A 
HETATM    6  C   UNK N   1      20.259  15.591   8.193  0.00  0.00    -0.025 A 
ENDROOT
BRANCH   1   7
HETATM    7  O   UNK N   1      21.783  15.767   6.262  0.00  0.00    -0.348 OA
BRANCH   7   8
HETATM    8  C   UNK N   1      23.056  16.195   5.963  0.00  0.00     0.210 C 
BRANCH   8   9
HETATM    9  C   UNK N   1      23.229  16.464   4.483  0.00  0.00     0.184 C 
BRANCH   9  10
HETATM   10  C   UNK N   1      23.220  15.099   3.799  0.00  0.00     0.305 C 
BRANCH  10  11
HETATM   11  N   UNK N   1      24.499  14.426   3.950  0.00  0.00     0.082 N 
HETATM   12  C   UNK N   1      25.496  15.264   3.312  0.00  0.00     0.309 C 
HETATM   13  C   UNK N   1      24.441  13.180   3.205  0.00  0.00     0.309 C 
ENDBRANCH  10  11
ENDBRANCH   9  10
BRANCH   9  14
HETATM   14  O   UNK N   1      22.164  17.243   4.060  0.00  0.00    -0.312 OA
BRANCH  14  15
HETATM   15  C   UNK N   1      22.239  18.560   3.731  0.00  0.00     0.259 C 
HETATM   16  O   UNK N   1      23.314  19.132   3.652  0.00  0.00    -0.265 OA
BRANCH  15  17
HETATM   17  C   UNK N   1      20.983  19.324   3.475  0.00  0.00     0.121 C 
BRANCH  17  18
HETATM   18  C   UNK N   1      20.591  19.174   2.014  0.00  0.00     0.119 C 
BRANCH  18  19
HETATM   19  C   UNK N   1      20.919  20.411   1.248  0.00  0.00     0.139 C 
HETATM   20  O   UNK N   1      21.452  21.355   1.809  0.00  0.00    -0.650 OA
BRANCH  19  21
HETATM   21  O   UNK N   1      20.597  20.498  -0.055  0.00  0.00    -0.776 OA
HETATM   22  H   UNK N   1      20.128  21.237  -0.391  0.00  0.00     0.167 HD
ENDBRANCH  19  21
ENDBRANCH  18  19
ENDBRANCH  17  18
ENDBRANCH  15  17
ENDBRANCH  14  15
ENDBRANCH   9  14
ENDBRANCH   8   9
ENDBRANCH   7   8
ENDBRANCH   1   7
BRANCH   6  23
HETATM   23  C   UNK N   1      20.388  14.088   8.318  0.00  0.00     0.046 C 
BRANCH  23  24
HETATM   24  C   UNK N   1      20.609  13.594   9.751  0.00  0.00     0.043 C 
BRANCH  24  25
HETATM   25  C   UNK N   1      22.004  13.127  10.052  0.00  0.00    -0.055 A 
HETATM   26  C   UNK N   1      22.195  12.282  11.148  0.00  0.00     0.007 A 
HETATM   27  C   UNK N   1      23.474  11.828  11.479  0.00  0.00     0.003 A 
HETATM   28  C   UNK N   1      24.573  12.220  10.714  0.00  0.00     0.037 A 
HETATM   29  C   UNK N   1      24.399  13.069   9.607  0.00  0.00     0.068 A 
HETATM   30  C   UNK N   1      23.112  13.518   9.282  0.00  0.00     0.044 A 
BRANCH  29  31
HETATM   31  O   UNK N   1      25.449  13.465   8.850  0.00  0.00    -0.356 OA
HETATM   32  C   UNK N   1      25.361  13.694   7.495  0.00  0.00     0.210 C 
ENDBRANCH  29  31
ENDBRANCH  24  25
ENDBRANCH  23  24
ENDBRANCH   6  23
TORSDOF 15
ENDMDL
MODEL 9
REMARK VINA RESULT:      -6.4      8.339     13.963
REMARK  15 active torsions:
REMARK  status: ('A' for Active; 'I' for Inactive)
REMARK    1  A    between atoms: N_2  and  C_4 
REMARK    2  A    between atoms: C_4  and  C_5 
REMARK    3  A    between atoms: C_5  and  C_6 
REMARK    4  A    between atoms: C_5  and  O_24 
REMARK    5  A    between atoms: C_6  and  O_7 
REMARK    6  A    between atoms: O_7  and  C_8 
REMARK    7  A    between atoms: C_13  and  C_14 
REMARK    8  A    between atoms: C_14  and  C_15 
REMARK    9  A    between atoms: C_15  and  C_16 
REMARK   10  A    between atoms: C_20  and  O_22 
REMARK   11  A    between atoms: O_24  and  C_25 
REMARK   12  A    between atoms: C_25  and  C_27 
REMARK   13  A    between atoms: C_27  and  C_28 
REMARK   14  A    between atoms: C_28  and  C_29 
REMARK   15  A    between atoms: C_29  and  O_31 
ROOT
HETATM    1  C   UNK N   1      35.137  11.461  17.074  0.00  0.00     0.075 A 
HETATM    2  C   UNK N   1      35.170  12.858  17.184  0.00  0.00     0.037 A 
HETATM    3  C   UNK N   1      35.205  13.484  18.430  0.00  0.00     0.003 A 
HETATM    4  C   UNK N   1      35.213  12.721  19.594  0.00  0.00     0.001 A 
HETATM    5  C   UNK N   1      35.202  11.330  19.513  0.00  0.00     0.010 A 
HETATM    6  C   UNK N   1      35.166  10.674  18.268  0.00  0.00    -0.025 A 
ENDROOT
BRANCH   1   7
HETATM    7  O   UNK N   1      35.062  10.938  15.818  0.00  0.00    -0.348 OA
BRANCH   7   8
HETATM    8  C   UNK N   1      34.175  11.354  14.851  0.00  0.00     0.210 C 
BRANCH   8   9
HETATM    9  C   UNK N   1      34.883  11.797  13.588  0.00  0.00     0.184 C 
BRANCH   9  10
HETATM   10  C   UNK N   1      34.319  10.935  12.461  0.00  0.00     0.305 C 
BRANCH  10  11
HETATM   11  N   UNK N   1      35.251   9.885  12.086  0.00  0.00     0.082 N 
HETATM   12  C   UNK N   1      36.427  10.536  11.542  0.00  0.00     0.309 C 
HETATM   13  C   UNK N   1      34.650   9.113  11.011  0.00  0.00     0.309 C 
ENDBRANCH  10  11
ENDBRANCH   9  10
BRANCH   9  14
HETATM   14  O   UNK N   1      34.599  13.138  13.382  0.00  0.00    -0.312 OA
BRANCH  14  15
HETATM   15  C   UNK N   1      35.400  14.017  12.725  0.00  0.00     0.259 C 
HETATM   16  O   UNK N   1      36.317  14.586  13.296  0.00  0.00    -0.265 OA
BRANCH  15  17
HETATM   17  C   UNK N   1      35.148  14.301  11.282  0.00  0.00     0.121 C 
BRANCH  17  18
HETATM   18  C   UNK N   1      36.014  15.470  10.840  0.00  0.00     0.119 C 
BRANCH  18  19
HETATM   19  C   UNK N   1      35.171  16.601  10.357  0.00  0.00     0.139 C 
HETATM   20  O   UNK N   1      35.648  17.720  10.251  0.00  0.00    -0.650 OA
BRANCH  19  21
HETATM   21  O   UNK N   1      33.873  16.394  10.067  0.00  0.00    -0.776 OA
HETATM   22  H   UNK N   1      33.237  17.072  10.184  0.00  0.00     0.167 HD
ENDBRANCH  19  21
ENDBRANCH  18  19
ENDBRANCH  17  18
ENDBRANCH  15  17
ENDBRANCH  14  15
ENDBRANCH   9  14
ENDBRANCH   8   9
ENDBRANCH   7   8
ENDBRANCH   1   7
BRANCH   6  23
HETATM   23  C   UNK N   1      35.186   9.161  18.231  0.00  0.00     0.046 C 
BRANCH  23  24
HETATM   24  C   UNK N   1      34.827   8.495  19.562  0.00  0.00     0.043 C 
BRANCH  24  25
HETATM   25  C   UNK N   1      33.411   8.009  19.666  0.00  0.00    -0.055 A 
HETATM   26  C   UNK N   1      32.423   8.927  20.035  0.00  0.00     0.007 A 
HETATM   27  C   UNK N   1      31.091   8.524  20.157  0.00  0.00     0.003 A 
HETATM   28  C   UNK N   1      30.738   7.197  19.913  0.00  0.00     0.037 A 
HETATM   29  C   UNK N   1      31.719   6.260  19.539  0.00  0.00     0.068 A 
HETATM   30  C   UNK N   1      33.052   6.673  19.417  0.00  0.00     0.044 A 
BRANCH  29  31
HETATM   31  O   UNK N   1      31.403   4.966  19.298  0.00  0.00    -0.356 OA
HETATM   32  C   UNK N   1      31.448   4.397  18.045  0.00  0.00     0.210 C 
ENDBRANCH  29  31
ENDBRANCH  24  25
ENDBRANCH  23  24
ENDBRANCH   6  23
TORSDOF 15
ENDMDL
