MODEL 1
REMARK VINA RESULT:      -6.6      0.000      0.000
REMARK  9 active torsions:
REMARK  status: ('A' for Active; 'I' for Inactive)
REMARK    1  A    between atoms: C_2  and  C_3 
REMARK    2  A    between atoms: C_3  and  C_4 
REMARK    3  A    between atoms: C_4  and  C_5 
REMARK    4  A    between atoms: C_4  and  N_9 
REMARK       I    between atoms: N_9  and  C_10 
REMARK    5  A    between atoms: N_9  and  N_20 
REMARK    6  A    between atoms: C_10  and  C_12 
REMARK       I    between atoms: N_20  and  C_21 
REMARK    7  A    between atoms: C_21  and  C_23 
REMARK    8  A    between atoms: C_27  and  O_31 
REMARK    9  A    between atoms: C_28  and  C_29 
ROOT
HETATM    1  N   UNK N   1      28.550  26.423  -5.133  0.00  0.00    -0.248 N 
HETATM    2  C   UNK N   1      29.627  26.433  -4.272  0.00  0.00     0.272 C 
HETATM    3  O   UNK N   1      29.797  27.363  -3.506  0.00  0.00    -0.266 OA
ENDROOT
BRANCH   1   4
HETATM    4  C   UNK N   1      27.633  27.607  -5.221  0.00  0.00     0.119 C 
BRANCH   4   5
HETATM    5  C   UNK N   1      27.434  28.209  -6.635  0.00  0.00     0.028 C 
BRANCH   5   6
HETATM    6  C   UNK N   1      28.543  29.130  -7.123  0.00  0.00    -0.002 C 
HETATM    7  C   UNK N   1      28.732  30.241  -6.109  0.00  0.00     0.005 C 
ENDBRANCH   5   6
ENDBRANCH   4   5
BRANCH   4   8
HETATM    8  C   UNK N   1      26.275  27.605  -4.421  0.00  0.00    -0.029 C 
HETATM    9  C   UNK N   1      25.125  27.064  -5.248  0.00  0.00     0.016 C 
HETATM   10  C   UNK N   1      25.941  29.037  -4.015  0.00  0.00     0.016 C 
HETATM   11  C   UNK N   1      26.284  26.837  -3.121  0.00  0.00     0.016 C 
ENDBRANCH   4   8
ENDBRANCH   1   4
BRANCH   1  12
HETATM   12  N   UNK N   1      28.415  25.322  -5.966  0.00  0.00    -0.260 N 
HETATM   13  C   UNK N   1      27.689  24.226  -5.632  0.00  0.00     0.270 C 
HETATM   14  O   UNK N   1      27.143  24.171  -4.544  0.00  0.00    -0.266 OA
HETATM   15  H   UNK N   1      28.867  25.338  -6.841  0.00  0.00     0.190 HD
BRANCH  13  16
HETATM   16  C   UNK N   1      27.356  23.185  -6.632  0.00  0.00     0.042 A 
HETATM   17  C   UNK N   1      26.026  23.059  -7.048  0.00  0.00     0.018 A 
HETATM   18  C   UNK N   1      25.627  21.994  -7.849  0.00  0.00     0.004 A 
HETATM   19  C   UNK N   1      26.557  21.042  -8.254  0.00  0.00     0.037 A 
HETATM   20  C   UNK N   1      27.906  21.154  -7.901  0.00  0.00     0.075 A 
HETATM   21  C   UNK N   1      28.321  22.245  -7.078  0.00  0.00    -0.009 A 
BRANCH  20  22
HETATM   22  O   UNK N   1      28.742  20.189  -8.374  0.00  0.00    -0.355 OA
HETATM   23  C   UNK N   1      29.086  19.016  -7.744  0.00  0.00     0.210 C 
ENDBRANCH  20  22
BRANCH  21  24
HETATM   24  C   UNK N   1      29.776  22.473  -6.752  0.00  0.00     0.038 C 
HETATM   25  C   UNK N   1      30.550  23.134  -7.872  0.00  0.00     0.010 C 
ENDBRANCH  21  24
ENDBRANCH  13  16
ENDBRANCH   1  12
BRANCH   2  26
HETATM   26  C   UNK N   1      30.672  25.359  -4.279  0.00  0.00     0.034 A 
HETATM   27  C   UNK N   1      31.766  25.466  -5.152  0.00  0.00     0.024 A 
HETATM   28  C   UNK N   1      32.723  24.449  -5.217  0.00  0.00    -0.061 A 
HETATM   29  C   UNK N   1      32.569  23.290  -4.457  0.00  0.00     0.013 A 
HETATM   30  C   UNK N   1      33.903  24.597  -6.106  0.00  0.00     0.048 C 
HETATM   31  C   UNK N   1      31.470  23.153  -3.611  0.00  0.00    -0.061 A 
HETATM   32  C   UNK N   1      30.534  24.188  -3.514  0.00  0.00     0.024 A 
HETATM   33  C   UNK N   1      31.277  21.892  -2.848  0.00  0.00     0.048 C 
ENDBRANCH   2  26
TORSDOF 9
ENDMDL
MODEL 2
REMARK VINA RESULT:      -6.3      1.374      2.170
REMARK  9 active torsions:
REMARK  status: ('A' for Active; 'I' for Inactive)
REMARK    1  A    between atoms: C_2  and  C_3 
REMARK    2  A    between atoms: C_3  and  C_4 
REMARK    3  A    between atoms: C_4  and  C_5 
REMARK    4  A    between atoms: C_4  and  N_9 
REMARK       I    between atoms: N_9  and  C_10 
REMARK    5  A    between atoms: N_9  and  N_20 
REMARK    6  A    between atoms: C_10  and  C_12 
REMARK       I    between atoms: N_20  and  C_21 
REMARK    7  A    between atoms: C_21  and  C_23 
REMARK    8  A    between atoms: C_27  and  O_31 
REMARK    9  A    between atoms: C_28  and  C_29 
ROOT
HETATM    1  N   UNK N   1      28.600  26.574  -5.115  0.00  0.00    -0.248 N 
HETATM    2  C   UNK N   1      29.627  26.529  -4.197  0.00  0.00     0.272 C 
HETATM    3  O   UNK N   1      29.764  27.418  -3.378  0.00  0.00    -0.266 OA
ENDROOT
BRANCH   1   4
HETATM    4  C   UNK N   1      27.701  27.773  -5.194  0.00  0.00     0.119 C 
BRANCH   4   5
HETATM    5  C   UNK N   1      27.502  28.382  -6.606  0.00  0.00     0.028 C 
BRANCH   5   6
HETATM    6  C   UNK N   1      28.733  29.027  -7.226  0.00  0.00    -0.002 C 
HETATM    7  C   UNK N   1      28.992  28.380  -8.573  0.00  0.00     0.005 C 
ENDBRANCH   5   6
ENDBRANCH   4   5
BRANCH   4   8
HETATM    8  C   UNK N   1      26.349  27.791  -4.386  0.00  0.00    -0.029 C 
HETATM    9  C   UNK N   1      25.166  27.377  -5.239  0.00  0.00     0.016 C 
HETATM   10  C   UNK N   1      26.099  29.207  -3.875  0.00  0.00     0.016 C 
HETATM   11  C   UNK N   1      26.319  26.932  -3.144  0.00  0.00     0.016 C 
ENDBRANCH   4   8
ENDBRANCH   1   4
BRANCH   1  12
HETATM   12  N   UNK N   1      28.500  25.518  -6.008  0.00  0.00    -0.260 N 
HETATM   13  C   UNK N   1      27.726  24.427  -5.780  0.00  0.00     0.270 C 
HETATM   14  O   UNK N   1      27.103  24.336  -4.737  0.00  0.00    -0.266 OA
HETATM   15  H   UNK N   1      29.013  25.562  -6.847  0.00  0.00     0.190 HD
BRANCH  13  16
HETATM   16  C   UNK N   1      27.442  23.443  -6.851  0.00  0.00     0.042 A 
HETATM   17  C   UNK N   1      28.154  22.239  -6.858  0.00  0.00     0.018 A 
HETATM   18  C   UNK N   1      28.055  21.358  -7.931  0.00  0.00     0.004 A 
HETATM   19  C   UNK N   1      27.233  21.666  -9.010  0.00  0.00     0.037 A 
HETATM   20  C   UNK N   1      26.466  22.837  -9.023  0.00  0.00     0.075 A 
HETATM   21  C   UNK N   1      26.565  23.745  -7.925  0.00  0.00    -0.009 A 
BRANCH  20  22
HETATM   22  O   UNK N   1      25.669  23.031 -10.109  0.00  0.00    -0.355 OA
HETATM   23  C   UNK N   1      26.079  23.311 -11.392  0.00  0.00     0.210 C 
ENDBRANCH  20  22
BRANCH  21  24
HETATM   24  C   UNK N   1      25.688  24.969  -7.838  0.00  0.00     0.038 C 
HETATM   25  C   UNK N   1      26.069  26.058  -8.818  0.00  0.00     0.010 C 
ENDBRANCH  21  24
ENDBRANCH  13  16
ENDBRANCH   1  12
BRANCH   2  26
HETATM   26  C   UNK N   1      30.660  25.442  -4.201  0.00  0.00     0.034 A 
HETATM   27  C   UNK N   1      31.811  25.586  -4.992  0.00  0.00     0.024 A 
HETATM   28  C   UNK N   1      32.761  24.562  -5.055  0.00  0.00    -0.061 A 
HETATM   29  C   UNK N   1      32.545  23.362  -4.378  0.00  0.00     0.013 A 
HETATM   30  C   UNK N   1      33.999  24.747  -5.854  0.00  0.00     0.048 C 
HETATM   31  C   UNK N   1      31.390  23.190  -3.616  0.00  0.00    -0.061 A 
HETATM   32  C   UNK N   1      30.460  24.230  -3.518  0.00  0.00     0.024 A 
HETATM   33  C   UNK N   1      31.135  21.889  -2.945  0.00  0.00     0.048 C 
ENDBRANCH   2  26
TORSDOF 9
ENDMDL
MODEL 3
REMARK VINA RESULT:      -6.0      2.088      5.011
REMARK  9 active torsions:
REMARK  status: ('A' for Active; 'I' for Inactive)
REMARK    1  A    between atoms: C_2  and  C_3 
REMARK    2  A    between atoms: C_3  and  C_4 
REMARK    3  A    between atoms: C_4  and  C_5 
REMARK    4  A    between atoms: C_4  and  N_9 
REMARK       I    between atoms: N_9  and  C_10 
REMARK    5  A    between atoms: N_9  and  N_20 
REMARK    6  A    between atoms: C_10  and  C_12 
REMARK       I    between atoms: N_20  and  C_21 
REMARK    7  A    between atoms: C_21  and  C_23 
REMARK    8  A    between atoms: C_27  and  O_31 
REMARK    9  A    between atoms: C_28  and  C_29 
ROOT
HETATM    1  N   UNK N   1      27.257  25.678  -6.288  0.00  0.00    -0.248 N 
HETATM    2  C   UNK N   1      26.574  25.321  -7.431  0.00  0.00     0.272 C 
HETATM    3  O   UNK N   1      26.056  26.170  -8.132  0.00  0.00    -0.266 OA
ENDROOT
BRANCH   1   4
HETATM    4  C   UNK N   1      27.279  27.106  -5.827  0.00  0.00     0.119 C 
BRANCH   4   5
HETATM    5  C   UNK N   1      27.578  28.167  -6.917  0.00  0.00     0.028 C 
BRANCH   5   6
HETATM    6  C   UNK N   1      29.039  28.311  -7.317  0.00  0.00    -0.002 C 
HETATM    7  C   UNK N   1      29.346  29.783  -7.508  0.00  0.00     0.005 C 
ENDBRANCH   5   6
ENDBRANCH   4   5
BRANCH   4   8
HETATM    8  C   UNK N   1      26.171  27.625  -4.835  0.00  0.00    -0.029 C 
HETATM    9  C   UNK N   1      26.344  29.094  -4.500  0.00  0.00     0.016 C 
HETATM   10  C   UNK N   1      26.258  26.826  -3.539  0.00  0.00     0.016 C 
HETATM   11  C   UNK N   1      24.745  27.442  -5.295  0.00  0.00     0.016 C 
ENDBRANCH   4   8
ENDBRANCH   1   4
BRANCH   1  12
HETATM   12  N   UNK N   1      27.833  24.656  -5.547  0.00  0.00    -0.260 N 
HETATM   13  C   UNK N   1      29.134  24.294  -5.674  0.00  0.00     0.270 C 
HETATM   14  O   UNK N   1      29.843  24.859  -6.487  0.00  0.00    -0.266 OA
HETATM   15  H   UNK N   1      27.271  24.172  -4.900  0.00  0.00     0.190 HD
BRANCH  13  16
HETATM   16  C   UNK N   1      29.780  23.381  -4.701  0.00  0.00     0.042 A 
HETATM   17  C   UNK N   1      30.146  23.889  -3.450  0.00  0.00     0.018 A 
HETATM   18  C   UNK N   1      30.908  23.129  -2.567  0.00  0.00     0.004 A 
HETATM   19  C   UNK N   1      31.308  21.845  -2.922  0.00  0.00     0.037 A 
HETATM   20  C   UNK N   1      30.924  21.279  -4.143  0.00  0.00     0.075 A 
HETATM   21  C   UNK N   1      30.144  22.055  -5.054  0.00  0.00    -0.009 A 
BRANCH  20  22
HETATM   22  O   UNK N   1      31.338  20.004  -4.381  0.00  0.00    -0.355 OA
HETATM   23  C   UNK N   1      32.605  19.603  -4.734  0.00  0.00     0.210 C 
ENDBRANCH  20  22
BRANCH  21  24
HETATM   24  C   UNK N   1      29.616  21.463  -6.337  0.00  0.00     0.038 C 
HETATM   25  C   UNK N   1      30.623  21.476  -7.467  0.00  0.00     0.010 C 
ENDBRANCH  21  24
ENDBRANCH  13  16
ENDBRANCH   1  12
BRANCH   2  26
HETATM   26  C   UNK N   1      26.369  23.891  -7.830  0.00  0.00     0.034 A 
HETATM   27  C   UNK N   1      25.444  23.103  -7.126  0.00  0.00     0.024 A 
HETATM   28  C   UNK N   1      25.277  21.752  -7.444  0.00  0.00    -0.061 A 
HETATM   29  C   UNK N   1      26.070  21.158  -8.426  0.00  0.00     0.013 A 
HETATM   30  C   UNK N   1      24.259  20.942  -6.727  0.00  0.00     0.048 C 
HETATM   31  C   UNK N   1      27.017  21.919  -9.110  0.00  0.00    -0.061 A 
HETATM   32  C   UNK N   1      27.156  23.281  -8.822  0.00  0.00     0.024 A 
HETATM   33  C   UNK N   1      27.901  21.269 -10.113  0.00  0.00     0.048 C 
ENDBRANCH   2  26
TORSDOF 9
ENDMDL
MODEL 4
REMARK VINA RESULT:      -5.9     12.860     15.474
REMARK  9 active torsions:
REMARK  status: ('A' for Active; 'I' for Inactive)
REMARK    1  A    between atoms: C_2  and  C_3 
REMARK    2  A    between atoms: C_3  and  C_4 
REMARK    3  A    between atoms: C_4  and  C_5 
REMARK    4  A    between atoms: C_4  and  N_9 
REMARK       I    between atoms: N_9  and  C_10 
REMARK    5  A    between atoms: N_9  and  N_20 
REMARK    6  A    between atoms: C_10  and  C_12 
REMARK       I    between atoms: N_20  and  C_21 
REMARK    7  A    between atoms: C_21  and  C_23 
REMARK    8  A    between atoms: C_27  and  O_31 
REMARK    9  A    between atoms: C_28  and  C_29 
ROOT
HETATM    1  N   UNK N   1      24.267  15.429   6.554  0.00  0.00    -0.248 N 
HETATM    2  C   UNK N   1      25.457  14.913   7.021  0.00  0.00     0.272 C 
HETATM    3  O   UNK N   1      25.484  13.839   7.592  0.00  0.00    -0.266 OA
ENDROOT
BRANCH   1   4
HETATM    4  C   UNK N   1      22.969  14.731   6.839  0.00  0.00     0.119 C 
BRANCH   4   5
HETATM    5  C   UNK N   1      21.789  15.639   7.267  0.00  0.00     0.028 C 
BRANCH   5   6
HETATM    6  C   UNK N   1      21.167  15.323   8.618  0.00  0.00    -0.002 C 
HETATM    7  C   UNK N   1      19.848  16.062   8.731  0.00  0.00     0.005 C 
ENDBRANCH   5   6
ENDBRANCH   4   5
BRANCH   4   8
HETATM    8  C   UNK N   1      22.471  13.585   5.880  0.00  0.00    -0.029 C 
HETATM    9  C   UNK N   1      21.371  14.056   4.949  0.00  0.00     0.016 C 
HETATM   10  C   UNK N   1      21.925  12.438   6.725  0.00  0.00     0.016 C 
HETATM   11  C   UNK N   1      23.534  12.945   5.019  0.00  0.00     0.016 C 
ENDBRANCH   4   8
ENDBRANCH   1   4
BRANCH   1  12
HETATM   12  N   UNK N   1      24.318  16.651   5.901  0.00  0.00    -0.260 N 
HETATM   13  C   UNK N   1      24.389  16.766   4.550  0.00  0.00     0.270 C 
HETATM   14  O   UNK N   1      24.439  15.764   3.860  0.00  0.00    -0.266 OA
HETATM   15  H   UNK N   1      24.301  17.474   6.441  0.00  0.00     0.190 HD
BRANCH  13  16
HETATM   16  C   UNK N   1      24.188  18.069   3.874  0.00  0.00     0.042 A 
HETATM   17  C   UNK N   1      25.314  18.783   3.451  0.00  0.00     0.018 A 
HETATM   18  C   UNK N   1      25.194  20.084   2.970  0.00  0.00     0.004 A 
HETATM   19  C   UNK N   1      23.942  20.685   2.896  0.00  0.00     0.037 A 
HETATM   20  C   UNK N   1      22.784  19.991   3.264  0.00  0.00     0.075 A 
HETATM   21  C   UNK N   1      22.901  18.657   3.760  0.00  0.00    -0.009 A 
BRANCH  20  22
HETATM   22  O   UNK N   1      21.604  20.656   3.124  0.00  0.00    -0.355 OA
HETATM   23  C   UNK N   1      20.872  20.799   1.968  0.00  0.00     0.210 C 
ENDBRANCH  20  22
BRANCH  21  24
HETATM   24  C   UNK N   1      21.682  17.826   4.073  0.00  0.00     0.038 C 
HETATM   25  C   UNK N   1      21.086  17.145   2.860  0.00  0.00     0.010 C 
ENDBRANCH  21  24
ENDBRANCH  13  16
ENDBRANCH   1  12
BRANCH   2  26
HETATM   26  C   UNK N   1      26.751  15.663   6.922  0.00  0.00     0.034 A 
HETATM   27  C   UNK N   1      27.103  16.570   7.934  0.00  0.00     0.024 A 
HETATM   28  C   UNK N   1      28.277  17.322   7.836  0.00  0.00    -0.061 A 
HETATM   29  C   UNK N   1      29.082  17.222   6.700  0.00  0.00     0.013 A 
HETATM   30  C   UNK N   1      28.666  18.240   8.937  0.00  0.00     0.048 C 
HETATM   31  C   UNK N   1      28.728  16.352   5.671  0.00  0.00    -0.061 A 
HETATM   32  C   UNK N   1      27.576  15.568   5.787  0.00  0.00     0.024 A 
HETATM   33  C   UNK N   1      29.556  16.292   4.437  0.00  0.00     0.048 C 
ENDBRANCH   2  26
TORSDOF 9
ENDMDL
MODEL 5
REMARK VINA RESULT:      -5.9     13.470     16.395
REMARK  9 active torsions:
REMARK  status: ('A' for Active; 'I' for Inactive)
REMARK    1  A    between atoms: C_2  and  C_3 
REMARK    2  A    between atoms: C_3  and  C_4 
REMARK    3  A    between atoms: C_4  and  C_5 
REMARK    4  A    between atoms: C_4  and  N_9 
REMARK       I    between atoms: N_9  and  C_10 
REMARK    5  A    between atoms: N_9  and  N_20 
REMARK    6  A    between atoms: C_10  and  C_12 
REMARK       I    between atoms: N_20  and  C_21 
REMARK    7  A    between atoms: C_21  and  C_23 
REMARK    8  A    between atoms: C_27  and  O_31 
REMARK    9  A    between atoms: C_28  and  C_29 
ROOT
HETATM    1  N   UNK N   1      26.058  16.561   5.250  0.00  0.00    -0.248 N 
HETATM    2  C   UNK N   1      25.453  16.969   4.080  0.00  0.00     0.272 C 
HETATM    3  O   UNK N   1      26.116  17.425   3.168  0.00  0.00    -0.266 OA
ENDROOT
BRANCH   1   4
HETATM    4  C   UNK N   1      27.529  16.775   5.463  0.00  0.00     0.119 C 
BRANCH   4   5
HETATM    5  C   UNK N   1      27.969  17.073   6.919  0.00  0.00     0.028 C 
BRANCH   5   6
HETATM    6  C   UNK N   1      28.193  18.539   7.254  0.00  0.00    -0.002 C 
HETATM    7  C   UNK N   1      27.905  19.369   6.019  0.00  0.00     0.005 C 
ENDBRANCH   5   6
ENDBRANCH   4   5
BRANCH   4   8
HETATM    8  C   UNK N   1      28.567  15.828   4.750  0.00  0.00    -0.029 C 
HETATM    9  C   UNK N   1      29.589  15.267   5.720  0.00  0.00     0.016 C 
HETATM   10  C   UNK N   1      29.308  16.626   3.682  0.00  0.00     0.016 C 
HETATM   11  C   UNK N   1      27.977  14.656   4.003  0.00  0.00     0.016 C 
ENDBRANCH   4   8
ENDBRANCH   1   4
BRANCH   1  12
HETATM   12  N   UNK N   1      25.239  16.039   6.240  0.00  0.00    -0.260 N 
HETATM   13  C   UNK N   1      24.954  14.716   6.343  0.00  0.00     0.270 C 
HETATM   14  O   UNK N   1      25.406  13.935   5.525  0.00  0.00    -0.266 OA
HETATM   15  H   UNK N   1      24.846  16.657   6.898  0.00  0.00     0.190 HD
BRANCH  13  16
HETATM   16  C   UNK N   1      24.291  14.160   7.546  0.00  0.00     0.042 A 
HETATM   17  C   UNK N   1      25.088  13.600   8.550  0.00  0.00     0.018 A 
HETATM   18  C   UNK N   1      24.514  12.911   9.614  0.00  0.00     0.004 A 
HETATM   19  C   UNK N   1      23.132  12.781   9.694  0.00  0.00     0.037 A 
HETATM   20  C   UNK N   1      22.294  13.366   8.738  0.00  0.00     0.075 A 
HETATM   21  C   UNK N   1      22.877  14.073   7.643  0.00  0.00    -0.009 A 
BRANCH  20  22
HETATM   22  O   UNK N   1      20.955  13.211   8.924  0.00  0.00    -0.355 OA
HETATM   23  C   UNK N   1      20.165  13.885   9.825  0.00  0.00     0.210 C 
ENDBRANCH  20  22
BRANCH  21  24
HETATM   24  C   UNK N   1      22.024  14.810   6.641  0.00  0.00     0.038 C 
HETATM   25  C   UNK N   1      21.579  16.177   7.115  0.00  0.00     0.010 C 
ENDBRANCH  21  24
ENDBRANCH  13  16
ENDBRANCH   1  12
BRANCH   2  26
HETATM   26  C   UNK N   1      23.966  16.946   3.895  0.00  0.00     0.034 A 
HETATM   27  C   UNK N   1      23.362  15.827   3.300  0.00  0.00     0.024 A 
HETATM   28  C   UNK N   1      21.984  15.806   3.066  0.00  0.00    -0.061 A 
HETATM   29  C   UNK N   1      21.203  16.923   3.368  0.00  0.00     0.013 A 
HETATM   30  C   UNK N   1      21.348  14.597   2.484  0.00  0.00     0.048 C 
HETATM   31  C   UNK N   1      21.794  18.054   3.927  0.00  0.00    -0.061 A 
HETATM   32  C   UNK N   1      23.166  18.060   4.201  0.00  0.00     0.024 A 
HETATM   33  C   UNK N   1      20.971  19.263   4.192  0.00  0.00     0.048 C 
ENDBRANCH   2  26
TORSDOF 9
ENDMDL
MODEL 6
REMARK VINA RESULT:      -5.9     11.222     14.918
REMARK  9 active torsions:
REMARK  status: ('A' for Active; 'I' for Inactive)
REMARK    1  A    between atoms: C_2  and  C_3 
REMARK    2  A    between atoms: C_3  and  C_4 
REMARK    3  A    between atoms: C_4  and  C_5 
REMARK    4  A    between atoms: C_4  and  N_9 
REMARK       I    between atoms: N_9  and  C_10 
REMARK    5  A    between atoms: N_9  and  N_20 
REMARK    6  A    between atoms: C_10  and  C_12 
REMARK       I    between atoms: N_20  and  C_21 
REMARK    7  A    between atoms: C_21  and  C_23 
REMARK    8  A    between atoms: C_27  and  O_31 
REMARK    9  A    between atoms: C_28  and  C_29 
ROOT
HETATM    1  N   UNK N   1      30.672  16.268   6.034  0.00  0.00    -0.248 N 
HETATM    2  C   UNK N   1      30.378  14.961   5.708  0.00  0.00     0.272 C 
HETATM    3  O   UNK N   1      31.111  14.056   6.060  0.00  0.00    -0.266 OA
ENDROOT
BRANCH   1   4
HETATM    4  C   UNK N   1      31.957  16.609   6.731  0.00  0.00     0.119 C 
BRANCH   4   5
HETATM    5  C   UNK N   1      32.956  17.480   5.928  0.00  0.00     0.028 C 
BRANCH   5   6
HETATM    6  C   UNK N   1      33.576  16.818   4.706  0.00  0.00    -0.002 C 
HETATM    7  C   UNK N   1      32.764  17.200   3.484  0.00  0.00     0.005 C 
ENDBRANCH   5   6
ENDBRANCH   4   5
BRANCH   4   8
HETATM    8  C   UNK N   1      31.933  17.042   8.246  0.00  0.00    -0.029 C 
HETATM    9  C   UNK N   1      33.328  17.247   8.804  0.00  0.00     0.016 C 
HETATM   10  C   UNK N   1      31.247  15.950   9.060  0.00  0.00     0.016 C 
HETATM   11  C   UNK N   1      31.146  18.293   8.555  0.00  0.00     0.016 C 
ENDBRANCH   4   8
ENDBRANCH   1   4
BRANCH   1  12
HETATM   12  N   UNK N   1      29.783  17.244   5.610  0.00  0.00    -0.260 N 
HETATM   13  C   UNK N   1      28.644  17.549   6.282  0.00  0.00     0.270 C 
HETATM   14  O   UNK N   1      28.355  16.934   7.292  0.00  0.00    -0.266 OA
HETATM   15  H   UNK N   1      29.987  17.738   4.783  0.00  0.00     0.190 HD
BRANCH  13  16
HETATM   16  C   UNK N   1      27.851  18.756   5.949  0.00  0.00     0.042 A 
HETATM   17  C   UNK N   1      28.089  19.932   6.669  0.00  0.00     0.018 A 
HETATM   18  C   UNK N   1      27.260  21.039   6.520  0.00  0.00     0.004 A 
HETATM   19  C   UNK N   1      26.184  20.989   5.640  0.00  0.00     0.037 A 
HETATM   20  C   UNK N   1      25.936  19.850   4.865  0.00  0.00     0.075 A 
HETATM   21  C   UNK N   1      26.783  18.710   5.015  0.00  0.00    -0.009 A 
BRANCH  20  22
HETATM   22  O   UNK N   1      24.879  19.913   4.010  0.00  0.00    -0.355 OA
HETATM   23  C   UNK N   1      24.868  20.474   2.755  0.00  0.00     0.210 C 
ENDBRANCH  20  22
BRANCH  21  24
HETATM   24  C   UNK N   1      26.627  17.496   4.134  0.00  0.00     0.038 C 
HETATM   25  C   UNK N   1      25.376  16.695   4.423  0.00  0.00     0.010 C 
ENDBRANCH  21  24
ENDBRANCH  13  16
ENDBRANCH   1  12
BRANCH   2  26
HETATM   26  C   UNK N   1      29.203  14.592   4.854  0.00  0.00     0.034 A 
HETATM   27  C   UNK N   1      28.090  13.972   5.442  0.00  0.00     0.024 A 
HETATM   28  C   UNK N   1      27.006  13.567   4.657  0.00  0.00    -0.061 A 
HETATM   29  C   UNK N   1      27.046  13.724   3.271  0.00  0.00     0.013 A 
HETATM   30  C   UNK N   1      25.812  12.959   5.297  0.00  0.00     0.048 C 
HETATM   31  C   UNK N   1      28.159  14.306   2.668  0.00  0.00    -0.061 A 
HETATM   32  C   UNK N   1      29.226  14.749   3.457  0.00  0.00     0.024 A 
HETATM   33  C   UNK N   1      28.224  14.417   1.187  0.00  0.00     0.048 C 
ENDBRANCH   2  26
TORSDOF 9
ENDMDL
MODEL 7
REMARK VINA RESULT:      -5.9     11.831     15.116
REMARK  9 active torsions:
REMARK  status: ('A' for Active; 'I' for Inactive)
REMARK    1  A    between atoms: C_2  and  C_3 
REMARK    2  A    between atoms: C_3  and  C_4 
REMARK    3  A    between atoms: C_4  and  C_5 
REMARK    4  A    between atoms: C_4  and  N_9 
REMARK       I    between atoms: N_9  and  C_10 
REMARK    5  A    between atoms: N_9  and  N_20 
REMARK    6  A    between atoms: C_10  and  C_12 
REMARK       I    between atoms: N_20  and  C_21 
REMARK    7  A    between atoms: C_21  and  C_23 
REMARK    8  A    between atoms: C_27  and  O_31 
REMARK    9  A    between atoms: C_28  and  C_29 
ROOT
HETATM    1  N   UNK N   1      29.028  16.758   5.606  0.00  0.00    -0.248 N 
HETATM    2  C   UNK N   1      29.164  17.978   4.978  0.00  0.00     0.272 C 
HETATM    3  O   UNK N   1      30.219  18.293   4.461  0.00  0.00    -0.266 OA
ENDROOT
BRANCH   1   4
HETATM    4  C   UNK N   1      30.209  15.845   5.762  0.00  0.00     0.119 C 
BRANCH   4   5
HETATM    5  C   UNK N   1      30.896  15.393   4.448  0.00  0.00     0.028 C 
BRANCH   5   6
HETATM    6  C   UNK N   1      30.218  14.251   3.706  0.00  0.00    -0.002 C 
HETATM    7  C   UNK N   1      29.672  13.268   4.723  0.00  0.00     0.005 C 
ENDBRANCH   5   6
ENDBRANCH   4   5
BRANCH   4   8
HETATM    8  C   UNK N   1      31.280  16.137   6.879  0.00  0.00    -0.029 C 
HETATM    9  C   UNK N   1      30.734  17.027   7.978  0.00  0.00     0.016 C 
HETATM   10  C   UNK N   1      32.475  16.840   6.243  0.00  0.00     0.016 C 
HETATM   11  C   UNK N   1      31.872  14.920   7.550  0.00  0.00     0.016 C 
ENDBRANCH   4   8
ENDBRANCH   1   4
BRANCH   1  12
HETATM   12  N   UNK N   1      27.791  16.464   6.159  0.00  0.00    -0.260 N 
HETATM   13  C   UNK N   1      26.812  15.813   5.479  0.00  0.00     0.270 C 
HETATM   14  O   UNK N   1      26.996  15.486   4.321  0.00  0.00    -0.266 OA
HETATM   15  H   UNK N   1      27.614  16.739   7.087  0.00  0.00     0.190 HD
BRANCH  13  16
HETATM   16  C   UNK N   1      25.608  15.292   6.168  0.00  0.00     0.042 A 
HETATM   17  C   UNK N   1      25.727  14.126   6.932  0.00  0.00     0.018 A 
HETATM   18  C   UNK N   1      24.601  13.498   7.456  0.00  0.00     0.004 A 
HETATM   19  C   UNK N   1      23.338  14.035   7.230  0.00  0.00     0.037 A 
HETATM   20  C   UNK N   1      23.176  15.225   6.512  0.00  0.00     0.075 A 
HETATM   21  C   UNK N   1      24.328  15.873   5.971  0.00  0.00    -0.009 A 
BRANCH  20  22
HETATM   22  O   UNK N   1      21.902  15.685   6.374  0.00  0.00    -0.355 OA
HETATM   23  C   UNK N   1      21.173  16.383   7.309  0.00  0.00     0.210 C 
ENDBRANCH  20  22
BRANCH  21  24
HETATM   24  C   UNK N   1      24.225  17.209   5.278  0.00  0.00     0.038 C 
HETATM   25  C   UNK N   1      23.785  17.109   3.833  0.00  0.00     0.010 C 
ENDBRANCH  21  24
ENDBRANCH  13  16
ENDBRANCH   1  12
BRANCH   2  26
HETATM   26  C   UNK N   1      28.066  18.998   4.959  0.00  0.00     0.034 A 
HETATM   27  C   UNK N   1      27.731  19.674   6.143  0.00  0.00     0.024 A 
HETATM   28  C   UNK N   1      26.674  20.588   6.163  0.00  0.00    -0.061 A 
HETATM   29  C   UNK N   1      25.903  20.795   5.019  0.00  0.00     0.013 A 
HETATM   30  C   UNK N   1      26.362  21.335   7.408  0.00  0.00     0.048 C 
HETATM   31  C   UNK N   1      26.201  20.106   3.845  0.00  0.00    -0.061 A 
HETATM   32  C   UNK N   1      27.285  19.223   3.812  0.00  0.00     0.024 A 
HETATM   33  C   UNK N   1      25.341  20.284   2.645  0.00  0.00     0.048 C 
ENDBRANCH   2  26
TORSDOF 9
ENDMDL
MODEL 8
REMARK VINA RESULT:      -5.7     12.717     15.571
REMARK  9 active torsions:
REMARK  status: ('A' for Active; 'I' for Inactive)
REMARK    1  A    between atoms: C_2  and  C_3 
REMARK    2  A    between atoms: C_3  and  C_4 
REMARK    3  A    between atoms: C_4  and  C_5 
REMARK    4  A    between atoms: C_4  and  N_9 
REMARK       I    between atoms: N_9  and  C_10 
REMARK    5  A    between atoms: N_9  and  N_20 
REMARK    6  A    between atoms: C_10  and  C_12 
REMARK       I    between atoms: N_20  and  C_21 
REMARK    7  A    between atoms: C_21  and  C_23 
REMARK    8  A    between atoms: C_27  and  O_31 
REMARK    9  A    between atoms: C_28  and  C_29 
ROOT
HETATM    1  N   UNK N   1      25.248  14.963   3.671  0.00  0.00    -0.248 N 
HETATM    2  C   UNK N   1      25.941  16.010   3.101  0.00  0.00     0.272 C 
HETATM    3  O   UNK N   1      26.641  15.828   2.123  0.00  0.00    -0.266 OA
ENDROOT
BRANCH   1   4
HETATM    4  C   UNK N   1      25.431  13.562   3.164  0.00  0.00     0.119 C 
BRANCH   4   5
HETATM    5  C   UNK N   1      25.697  12.480   4.241  0.00  0.00     0.028 C 
BRANCH   5   6
HETATM    6  C   UNK N   1      27.066  12.528   4.903  0.00  0.00    -0.002 C 
HETATM    7  C   UNK N   1      28.102  12.870   3.850  0.00  0.00     0.005 C 
ENDBRANCH   5   6
ENDBRANCH   4   5
BRANCH   4   8
HETATM    8  C   UNK N   1      24.477  13.007   2.041  0.00  0.00    -0.029 C 
HETATM    9  C   UNK N   1      23.228  12.365   2.615  0.00  0.00     0.016 C 
HETATM   10  C   UNK N   1      25.228  11.953   1.234  0.00  0.00     0.016 C 
HETATM   11  C   UNK N   1      24.022  14.015   1.013  0.00  0.00     0.016 C 
ENDBRANCH   4   8
ENDBRANCH   1   4
BRANCH   1  12
HETATM   12  N   UNK N   1      24.461  15.250   4.776  0.00  0.00    -0.260 N 
HETATM   13  C   UNK N   1      23.134  15.525   4.688  0.00  0.00     0.270 C 
HETATM   14  O   UNK N   1      22.594  15.551   3.597  0.00  0.00    -0.266 OA
HETATM   15  H   UNK N   1      24.883  15.255   5.665  0.00  0.00     0.190 HD
BRANCH  13  16
HETATM   16  C   UNK N   1      22.274  15.576   5.894  0.00  0.00     0.042 A 
HETATM   17  C   UNK N   1      21.864  14.371   6.474  0.00  0.00     0.018 A 
HETATM   18  C   UNK N   1      20.921  14.357   7.497  0.00  0.00     0.004 A 
HETATM   19  C   UNK N   1      20.380  15.552   7.960  0.00  0.00     0.037 A 
HETATM   20  C   UNK N   1      20.795  16.783   7.441  0.00  0.00     0.075 A 
HETATM   21  C   UNK N   1      21.762  16.804   6.390  0.00  0.00    -0.009 A 
BRANCH  20  22
HETATM   22  O   UNK N   1      20.230  17.896   7.985  0.00  0.00    -0.355 OA
HETATM   23  C   UNK N   1      19.390  17.945   9.073  0.00  0.00     0.210 C 
ENDBRANCH  20  22
BRANCH  21  24
HETATM   24  C   UNK N   1      22.323  18.101   5.865  0.00  0.00     0.038 C 
HETATM   25  C   UNK N   1      21.473  18.733   4.782  0.00  0.00     0.010 C 
ENDBRANCH  21  24
ENDBRANCH  13  16
ENDBRANCH   1  12
BRANCH   2  26
HETATM   26  C   UNK N   1      25.934  17.390   3.685  0.00  0.00     0.034 A 
HETATM   27  C   UNK N   1      25.100  18.372   3.128  0.00  0.00     0.024 A 
HETATM   28  C   UNK N   1      25.118  19.681   3.619  0.00  0.00    -0.061 A 
HETATM   29  C   UNK N   1      26.009  20.038   4.632  0.00  0.00     0.013 A 
HETATM   30  C   UNK N   1      24.194  20.698   3.056  0.00  0.00     0.048 C 
HETATM   31  C   UNK N   1      26.868  19.083   5.172  0.00  0.00    -0.061 A 
HETATM   32  C   UNK N   1      26.821  17.764   4.710  0.00  0.00     0.024 A 
HETATM   33  C   UNK N   1      27.857  19.481   6.208  0.00  0.00     0.048 C 
ENDBRANCH   2  26
TORSDOF 9
ENDMDL
MODEL 9
REMARK VINA RESULT:      -5.7     11.381     14.617
REMARK  9 active torsions:
REMARK  status: ('A' for Active; 'I' for Inactive)
REMARK    1  A    between atoms: C_2  and  C_3 
REMARK    2  A    between atoms: C_3  and  C_4 
REMARK    3  A    between atoms: C_4  and  C_5 
REMARK    4  A    between atoms: C_4  and  N_9 
REMARK       I    between atoms: N_9  and  C_10 
REMARK    5  A    between atoms: N_9  and  N_20 
REMARK    6  A    between atoms: C_10  and  C_12 
REMARK       I    between atoms: N_20  and  C_21 
REMARK    7  A    between atoms: C_21  and  C_23 
REMARK    8  A    between atoms: C_27  and  O_31 
REMARK    9  A    between atoms: C_28  and  C_29 
ROOT
HETATM    1  N   UNK N   1      26.388  17.153   4.358  0.00  0.00    -0.248 N 
HETATM    2  C   UNK N   1      26.629  16.216   3.375  0.00  0.00     0.272 C 
HETATM    3  O   UNK N   1      26.004  16.240   2.332  0.00  0.00    -0.266 OA
ENDROOT
BRANCH   1   4
HETATM    4  C   UNK N   1      25.276  18.149   4.205  0.00  0.00     0.119 C 
BRANCH   4   5
HETATM    5  C   UNK N   1      24.049  17.944   5.129  0.00  0.00     0.028 C 
BRANCH   5   6
HETATM    6  C   UNK N   1      23.533  16.517   5.236  0.00  0.00    -0.002 C 
HETATM    7  C   UNK N   1      22.322  16.507   6.148  0.00  0.00     0.005 C 
ENDBRANCH   5   6
ENDBRANCH   4   5
BRANCH   4   8
HETATM    8  C   UNK N   1      25.613  19.681   4.059  0.00  0.00    -0.029 C 
HETATM    9  C   UNK N   1      25.839  20.348   5.402  0.00  0.00     0.016 C 
HETATM   10  C   UNK N   1      24.446  20.378   3.369  0.00  0.00     0.016 C 
HETATM   11  C   UNK N   1      26.810  20.007   3.198  0.00  0.00     0.016 C 
ENDBRANCH   4   8
ENDBRANCH   1   4
BRANCH   1  12
HETATM   12  N   UNK N   1      27.150  17.070   5.514  0.00  0.00    -0.260 N 
HETATM   13  C   UNK N   1      28.351  17.685   5.654  0.00  0.00     0.270 C 
HETATM   14  O   UNK N   1      28.815  18.324   4.727  0.00  0.00    -0.266 OA
HETATM   15  H   UNK N   1      26.803  16.540   6.268  0.00  0.00     0.190 HD
BRANCH  13  16
HETATM   16  C   UNK N   1      29.017  17.789   6.974  0.00  0.00     0.042 A 
HETATM   17  C   UNK N   1      28.340  18.434   8.015  0.00  0.00     0.018 A 
HETATM   18  C   UNK N   1      28.982  18.713   9.218  0.00  0.00     0.004 A 
HETATM   19  C   UNK N   1      30.309  18.340   9.400  0.00  0.00     0.037 A 
HETATM   20  C   UNK N   1      31.010  17.651   8.404  0.00  0.00     0.075 A 
HETATM   21  C   UNK N   1      30.357  17.364   7.167  0.00  0.00    -0.009 A 
BRANCH  20  22
HETATM   22  O   UNK N   1      32.294  17.302   8.693  0.00  0.00    -0.355 OA
HETATM   23  C   UNK N   1      33.433  17.987   8.338  0.00  0.00     0.210 C 
ENDBRANCH  20  22
BRANCH  21  24
HETATM   24  C   UNK N   1      31.028  16.536   6.100  0.00  0.00     0.038 C 
HETATM   25  C   UNK N   1      31.090  15.060   6.429  0.00  0.00     0.010 C 
ENDBRANCH  21  24
ENDBRANCH  13  16
ENDBRANCH   1  12
BRANCH   2  26
HETATM   26  C   UNK N   1      27.602  15.090   3.560  0.00  0.00     0.034 A 
HETATM   27  C   UNK N   1      28.915  15.228   3.085  0.00  0.00     0.024 A 
HETATM   28  C   UNK N   1      29.824  14.171   3.195  0.00  0.00    -0.061 A 
HETATM   29  C   UNK N   1      29.416  12.947   3.726  0.00  0.00     0.013 A 
HETATM   30  C   UNK N   1      31.225  14.346   2.736  0.00  0.00     0.048 C 
HETATM   31  C   UNK N   1      28.105  12.784   4.170  0.00  0.00    -0.061 A 
HETATM   32  C   UNK N   1      27.207  13.854   4.099  0.00  0.00     0.024 A 
HETATM   33  C   UNK N   1      27.657  11.461   4.680  0.00  0.00     0.048 C 
ENDBRANCH   2  26
TORSDOF 9
ENDMDL
