MODEL 1
REMARK VINA RESULT:      -7.2      0.000      0.000
REMARK  15 active torsions:
REMARK  status: ('A' for Active; 'I' for Inactive)
REMARK    1  A    between atoms: C_2  and  C_4 
REMARK    2  A    between atoms: C_4  and  O_6 
REMARK    3  A    between atoms: O_6  and  C_7 
REMARK    4  A    between atoms: C_8  and  C_7 
REMARK    5  A    between atoms: C_8  and  N_34 
REMARK    6  A    between atoms: C_9  and  O_28 
REMARK    7  A    between atoms: C_10  and  O_22 
REMARK    8  A    between atoms: C_11  and  N_13 
REMARK    9  A    between atoms: C_16  and  N_21 
REMARK   10  A    between atoms: O_22  and  C_23 
REMARK   11  A    between atoms: C_23  and  C_25 
REMARK   12  A    between atoms: O_28  and  C_29 
REMARK   13  A    between atoms: C_29  and  C_31 
REMARK   14  A    between atoms: N_34  and  N_36 
REMARK   15  A    between atoms: N_36  and  N_37 
ROOT
HETATM    1  C   UNK N   1      20.542  16.300   5.686  0.00  0.00     0.213 C 
HETATM    2  C   UNK N   1      20.521  15.129   6.722  0.00  0.00     0.225 C 
HETATM    3  C   UNK N   1      21.011  15.841   7.976  0.00  0.00     0.215 C 
HETATM    4  C   UNK N   1      19.955  16.840   7.705  0.00  0.00     0.267 C 
HETATM    5  O   UNK N   1      20.237  17.413   6.477  0.00  0.00    -0.326 OA
ENDROOT
BRANCH   1   6
HETATM    6  C   UNK N   1      19.503  16.295   4.543  0.00  0.00     0.245 C 
BRANCH   6   7
HETATM    7  O   UNK N   1      20.138  16.323   3.288  0.00  0.00    -0.316 OA
BRANCH   7   8
HETATM    8  C   UNK N   1      20.428  15.251   2.471  0.00  0.00     0.262 C 
HETATM    9  O   UNK N   1      20.992  14.260   2.902  0.00  0.00    -0.265 OA
BRANCH   8  10
HETATM   10  C   UNK N   1      20.035  15.252   1.016  0.00  0.00     0.077 C 
HETATM   11  C   UNK N   1      18.982  14.231   0.653  0.00  0.00     0.020 C 
HETATM   12  C   UNK N   1      19.794  16.629   0.396  0.00  0.00     0.020 C 
ENDBRANCH   8  10
ENDBRANCH   7   8
ENDBRANCH   6   7
ENDBRANCH   1   6
BRANCH   1  13
HETATM   13  N   UNK N   1      21.883  16.480   5.163  0.00  0.00    -0.212 N 
ATOM     14  HN  UNK N   1      22.292  15.758   4.569  1.00  0.00     0.201 HD
BRANCH  13  15
HETATM   15  N   UNK N   1      22.530  17.483   5.420  0.00  0.00    -0.245 NA
BRANCH  15  16
HETATM   16  N   UNK N   1      23.171  18.488   5.659  0.00  0.00    -0.261 N 
HETATM   17  H   UNK N   1      22.977  19.050   6.445  0.00  0.00     0.193 HD
ATOM     18  HN  UNK N   1      23.928  18.757   5.031  1.00  0.00     0.193 HD
ENDBRANCH  15  16
ENDBRANCH  13  15
ENDBRANCH   1  13
BRANCH   2  19
HETATM   19  O   UNK N   1      21.082  13.911   6.403  0.00  0.00    -0.308 OA
BRANCH  19  20
HETATM   20  C   UNK N   1      20.437  12.759   6.120  0.00  0.00     0.262 C 
HETATM   21  O   UNK N   1      19.347  12.752   5.567  0.00  0.00    -0.265 OA
BRANCH  20  22
HETATM   22  C   UNK N   1      21.118  11.482   6.443  0.00  0.00     0.077 C 
HETATM   23  C   UNK N   1      20.712  10.401   5.465  0.00  0.00     0.020 C 
HETATM   24  C   UNK N   1      22.620  11.695   6.422  0.00  0.00     0.020 C 
ENDBRANCH  20  22
ENDBRANCH  19  20
ENDBRANCH   2  19
BRANCH   3  25
HETATM   25  O   UNK N   1      20.903  15.320   9.248  0.00  0.00    -0.308 OA
BRANCH  25  26
HETATM   26  C   UNK N   1      20.315  14.194   9.698  0.00  0.00     0.262 C 
HETATM   27  O   UNK N   1      19.117  14.151   9.929  0.00  0.00    -0.265 OA
BRANCH  26  28
HETATM   28  C   UNK N   1      21.190  12.992   9.900  0.00  0.00     0.077 C 
HETATM   29  C   UNK N   1      20.920  12.262  11.201  0.00  0.00     0.020 C 
HETATM   30  C   UNK N   1      22.649  13.406   9.837  0.00  0.00     0.020 C 
ENDBRANCH  26  28
ENDBRANCH  25  26
ENDBRANCH   3  25
BRANCH   4  31
HETATM   31  N   UNK N   1      19.186  17.647   8.655  0.00  0.00    -0.280 N 
HETATM   32  C   UNK N   1      19.808  18.610   9.390  0.00  0.00     0.102 A 
HETATM   33  C   UNK N   1      19.127  19.258  10.421  0.00  0.00     0.065 A 
HETATM   34  C   UNK N   1      17.811  18.888  10.691  0.00  0.00     0.103 A 
HETATM   35  N   UNK N   1      17.217  17.928   9.956  0.00  0.00    -0.295 N 
HETATM   36  C   UNK N   1      17.884  17.298   8.956  0.00  0.00     0.330 A 
ATOM     37  HN  UNK N   1      16.249  17.670  10.156  1.00  0.00     0.172 HD
HETATM   38  O   UNK N   1      17.333  16.393   8.374  0.00  0.00    -0.246 OA
BRANCH  34  39
HETATM   39  N   UNK N   1      17.108  19.475  11.757  0.00  0.00    -0.385 N 
HETATM   40  H   UNK N   1      16.295  19.049  12.110  0.00  0.00     0.157 HD
HETATM   41  H   UNK N   1      17.432  20.316  12.152  0.00  0.00     0.157 HD
ENDBRANCH  34  39
ENDBRANCH   4  31
TORSDOF 15
ENDMDL
MODEL 2
REMARK VINA RESULT:      -6.5     14.613     17.461
REMARK  15 active torsions:
REMARK  status: ('A' for Active; 'I' for Inactive)
REMARK    1  A    between atoms: C_2  and  C_4 
REMARK    2  A    between atoms: C_4  and  O_6 
REMARK    3  A    between atoms: O_6  and  C_7 
REMARK    4  A    between atoms: C_8  and  C_7 
REMARK    5  A    between atoms: C_8  and  N_34 
REMARK    6  A    between atoms: C_9  and  O_28 
REMARK    7  A    between atoms: C_10  and  O_22 
REMARK    8  A    between atoms: C_11  and  N_13 
REMARK    9  A    between atoms: C_16  and  N_21 
REMARK   10  A    between atoms: O_22  and  C_23 
REMARK   11  A    between atoms: C_23  and  C_25 
REMARK   12  A    between atoms: O_28  and  C_29 
REMARK   13  A    between atoms: C_29  and  C_31 
REMARK   14  A    between atoms: N_34  and  N_36 
REMARK   15  A    between atoms: N_36  and  N_37 
ROOT
HETATM    1  C   UNK N   1      35.133  15.282  10.649  0.00  0.00     0.213 C 
HETATM    2  C   UNK N   1      36.152  14.616  11.630  0.00  0.00     0.225 C 
HETATM    3  C   UNK N   1      36.258  13.218  11.033  0.00  0.00     0.215 C 
HETATM    4  C   UNK N   1      36.536  13.893   9.747  0.00  0.00     0.267 C 
HETATM    5  O   UNK N   1      35.422  14.654   9.433  0.00  0.00    -0.326 OA
ENDROOT
BRANCH   1   6
HETATM    6  C   UNK N   1      35.251  16.799  10.380  0.00  0.00     0.245 C 
BRANCH   6   7
HETATM    7  O   UNK N   1      35.219  17.066   8.998  0.00  0.00    -0.316 OA
BRANCH   7   8
HETATM    8  C   UNK N   1      34.712  18.186   8.372  0.00  0.00     0.262 C 
HETATM    9  O   UNK N   1      35.266  19.268   8.465  0.00  0.00    -0.265 OA
BRANCH   8  10
HETATM   10  C   UNK N   1      33.468  18.109   7.526  0.00  0.00     0.077 C 
HETATM   11  C   UNK N   1      33.650  17.388   6.212  0.00  0.00     0.020 C 
HETATM   12  C   UNK N   1      32.187  17.721   8.267  0.00  0.00     0.020 C 
ENDBRANCH   8  10
ENDBRANCH   7   8
ENDBRANCH   6   7
ENDBRANCH   1   6
BRANCH   1  13
HETATM   13  N   UNK N   1      33.777  14.928  11.021  0.00  0.00    -0.212 N 
ATOM     14  HN  UNK N   1      33.480  15.028  11.992  1.00  0.00     0.201 HD
BRANCH  13  15
HETATM   15  N   UNK N   1      32.984  14.514  10.191  0.00  0.00    -0.245 NA
BRANCH  15  16
HETATM   16  N   UNK N   1      32.179  14.109   9.373  0.00  0.00    -0.261 N 
HETATM   17  H   UNK N   1      31.706  13.254   9.494  0.00  0.00     0.193 HD
ATOM     18  HN  UNK N   1      31.990  14.669   8.542  1.00  0.00     0.193 HD
ENDBRANCH  15  16
ENDBRANCH  13  15
ENDBRANCH   1  13
BRANCH   2  19
HETATM   19  O   UNK N   1      35.980  14.731  12.992  0.00  0.00    -0.308 OA
BRANCH  19  20
HETATM   20  C   UNK N   1      35.644  13.755  13.862  0.00  0.00     0.262 C 
HETATM   21  O   UNK N   1      34.580  13.159  13.779  0.00  0.00    -0.265 OA
BRANCH  20  22
HETATM   22  C   UNK N   1      36.635  13.373  14.898  0.00  0.00     0.077 C 
HETATM   23  C   UNK N   1      37.120  14.595  15.646  0.00  0.00     0.020 C 
HETATM   24  C   UNK N   1      36.008  12.370  15.847  0.00  0.00     0.020 C 
ENDBRANCH  20  22
ENDBRANCH  19  20
ENDBRANCH   2  19
BRANCH   3  25
HETATM   25  O   UNK N   1      37.250  12.317  11.358  0.00  0.00    -0.308 OA
BRANCH  25  26
HETATM   26  C   UNK N   1      37.232  10.972  11.444  0.00  0.00     0.262 C 
HETATM   27  O   UNK N   1      37.390  10.270  10.458  0.00  0.00    -0.265 OA
BRANCH  26  28
HETATM   28  C   UNK N   1      37.015  10.370  12.801  0.00  0.00     0.077 C 
HETATM   29  C   UNK N   1      37.990   9.255  13.128  0.00  0.00     0.020 C 
HETATM   30  C   UNK N   1      35.591   9.855  12.908  0.00  0.00     0.020 C 
ENDBRANCH  26  28
ENDBRANCH  25  26
ENDBRANCH   3  25
BRANCH   4  31
HETATM   31  N   UNK N   1      37.367  13.439   8.630  0.00  0.00    -0.280 N 
HETATM   32  C   UNK N   1      36.882  12.521   7.749  0.00  0.00     0.102 A 
HETATM   33  C   UNK N   1      37.723  11.950   6.793  0.00  0.00     0.065 A 
HETATM   34  C   UNK N   1      39.064  12.325   6.771  0.00  0.00     0.103 A 
HETATM   35  N   UNK N   1      39.526  13.230   7.656  0.00  0.00    -0.295 N 
HETATM   36  C   UNK N   1      38.704  13.780   8.586  0.00  0.00     0.330 A 
ATOM     37  HN  UNK N   1      40.508  13.505   7.627  1.00  0.00     0.172 HD
HETATM   38  O   UNK N   1      39.181  14.532   9.406  0.00  0.00    -0.246 OA
BRANCH  34  39
HETATM   39  N   UNK N   1      39.957  11.732   5.862  0.00  0.00    -0.385 N 
HETATM   40  H   UNK N   1      40.005  10.753   5.781  0.00  0.00     0.157 HD
HETATM   41  H   UNK N   1      40.537  12.299   5.304  0.00  0.00     0.157 HD
ENDBRANCH  34  39
ENDBRANCH   4  31
TORSDOF 15
ENDMDL
MODEL 3
REMARK VINA RESULT:      -6.5      1.562      2.129
REMARK  15 active torsions:
REMARK  status: ('A' for Active; 'I' for Inactive)
REMARK    1  A    between atoms: C_2  and  C_4 
REMARK    2  A    between atoms: C_4  and  O_6 
REMARK    3  A    between atoms: O_6  and  C_7 
REMARK    4  A    between atoms: C_8  and  C_7 
REMARK    5  A    between atoms: C_8  and  N_34 
REMARK    6  A    between atoms: C_9  and  O_28 
REMARK    7  A    between atoms: C_10  and  O_22 
REMARK    8  A    between atoms: C_11  and  N_13 
REMARK    9  A    between atoms: C_16  and  N_21 
REMARK   10  A    between atoms: O_22  and  C_23 
REMARK   11  A    between atoms: C_23  and  C_25 
REMARK   12  A    between atoms: O_28  and  C_29 
REMARK   13  A    between atoms: C_29  and  C_31 
REMARK   14  A    between atoms: N_34  and  N_36 
REMARK   15  A    between atoms: N_36  and  N_37 
ROOT
HETATM    1  C   UNK N   1      20.843  16.542   5.877  0.00  0.00     0.213 C 
HETATM    2  C   UNK N   1      20.710  15.316   6.837  0.00  0.00     0.225 C 
HETATM    3  C   UNK N   1      21.102  15.945   8.168  0.00  0.00     0.215 C 
HETATM    4  C   UNK N   1      20.092  16.982   7.866  0.00  0.00     0.267 C 
HETATM    5  O   UNK N   1      20.491  17.617   6.701  0.00  0.00    -0.326 OA
ENDROOT
BRANCH   1   6
HETATM    6  C   UNK N   1      19.907  16.626   4.651  0.00  0.00     0.245 C 
BRANCH   6   7
HETATM    7  O   UNK N   1      20.014  17.881   4.023  0.00  0.00    -0.316 OA
BRANCH   7   8
HETATM    8  C   UNK N   1      20.365  18.137   2.714  0.00  0.00     0.262 C 
HETATM    9  O   UNK N   1      19.943  17.450   1.800  0.00  0.00    -0.265 OA
BRANCH   8  10
HETATM   10  C   UNK N   1      21.263  19.294   2.361  0.00  0.00     0.077 C 
HETATM   11  C   UNK N   1      20.533  20.530   1.889  0.00  0.00     0.020 C 
HETATM   12  C   UNK N   1      22.387  19.587   3.356  0.00  0.00     0.020 C 
ENDBRANCH   8  10
ENDBRANCH   7   8
ENDBRANCH   6   7
ENDBRANCH   1   6
BRANCH   1  13
HETATM   13  N   UNK N   1      22.227  16.721   5.483  0.00  0.00    -0.212 N 
ATOM     14  HN  UNK N   1      22.750  17.525   5.831  1.00  0.00     0.201 HD
BRANCH  13  15
HETATM   15  N   UNK N   1      22.778  15.924   4.740  0.00  0.00    -0.245 NA
BRANCH  15  16
HETATM   16  N   UNK N   1      23.310  15.124   3.993  0.00  0.00    -0.261 N 
HETATM   17  H   UNK N   1      24.286  15.110   3.863  0.00  0.00     0.193 HD
ATOM     18  HN  UNK N   1      22.732  14.451   3.490  1.00  0.00     0.193 HD
ENDBRANCH  15  16
ENDBRANCH  13  15
ENDBRANCH   1  13
BRANCH   2  19
HETATM   19  O   UNK N   1      21.274  14.106   6.498  0.00  0.00    -0.308 OA
BRANCH  19  20
HETATM   20  C   UNK N   1      20.685  13.078   5.851  0.00  0.00     0.262 C 
HETATM   21  O   UNK N   1      19.473  12.921   5.864  0.00  0.00    -0.265 OA
BRANCH  20  22
HETATM   22  C   UNK N   1      21.547  12.167   5.059  0.00  0.00     0.077 C 
HETATM   23  C   UNK N   1      21.810  10.887   5.822  0.00  0.00     0.020 C 
HETATM   24  C   UNK N   1      20.882  11.877   3.727  0.00  0.00     0.020 C 
ENDBRANCH  20  22
ENDBRANCH  19  20
ENDBRANCH   2  19
BRANCH   3  25
HETATM   25  O   UNK N   1      20.873  15.356   9.394  0.00  0.00    -0.308 OA
BRANCH  25  26
HETATM   26  C   UNK N   1      20.732  14.063   9.744  0.00  0.00     0.262 C 
HETATM   27  O   UNK N   1      19.640  13.518   9.735  0.00  0.00    -0.265 OA
BRANCH  26  28
HETATM   28  C   UNK N   1      21.971  13.315  10.140  0.00  0.00     0.077 C 
HETATM   29  C   UNK N   1      22.661  12.632   8.974  0.00  0.00     0.020 C 
HETATM   30  C   UNK N   1      21.629  12.292  11.206  0.00  0.00     0.020 C 
ENDBRANCH  26  28
ENDBRANCH  25  26
ENDBRANCH   3  25
BRANCH   4  31
HETATM   31  N   UNK N   1      19.258  17.752   8.791  0.00  0.00    -0.280 N 
HETATM   32  C   UNK N   1      19.800  18.776   9.506  0.00  0.00     0.102 A 
HETATM   33  C   UNK N   1      19.065  19.396  10.517  0.00  0.00     0.065 A 
HETATM   34  C   UNK N   1      17.778  18.936  10.787  0.00  0.00     0.103 A 
HETATM   35  N   UNK N   1      17.262  17.917  10.073  0.00  0.00    -0.295 N 
HETATM   36  C   UNK N   1      17.983  17.315   9.092  0.00  0.00     0.330 A 
ATOM     37  HN  UNK N   1      16.315  17.592  10.272  1.00  0.00     0.172 HD
HETATM   38  O   UNK N   1      17.505  16.357   8.529  0.00  0.00    -0.246 OA
BRANCH  34  39
HETATM   39  N   UNK N   1      17.025  19.494  11.834  0.00  0.00    -0.385 N 
HETATM   40  H   UNK N   1      16.159  19.101  12.088  0.00  0.00     0.157 HD
HETATM   41  H   UNK N   1      17.366  20.282  12.317  0.00  0.00     0.157 HD
ENDBRANCH  34  39
ENDBRANCH   4  31
TORSDOF 15
ENDMDL
MODEL 4
REMARK VINA RESULT:      -6.5      2.972      5.431
REMARK  15 active torsions:
REMARK  status: ('A' for Active; 'I' for Inactive)
REMARK    1  A    between atoms: C_2  and  C_4 
REMARK    2  A    between atoms: C_4  and  O_6 
REMARK    3  A    between atoms: O_6  and  C_7 
REMARK    4  A    between atoms: C_8  and  C_7 
REMARK    5  A    between atoms: C_8  and  N_34 
REMARK    6  A    between atoms: C_9  and  O_28 
REMARK    7  A    between atoms: C_10  and  O_22 
REMARK    8  A    between atoms: C_11  and  N_13 
REMARK    9  A    between atoms: C_16  and  N_21 
REMARK   10  A    between atoms: O_22  and  C_23 
REMARK   11  A    between atoms: C_23  and  C_25 
REMARK   12  A    between atoms: O_28  and  C_29 
REMARK   13  A    between atoms: C_29  and  C_31 
REMARK   14  A    between atoms: N_34  and  N_36 
REMARK   15  A    between atoms: N_36  and  N_37 
ROOT
HETATM    1  C   UNK N   1      20.690  14.415   5.627  0.00  0.00     0.213 C 
HETATM    2  C   UNK N   1      20.883  15.828   6.267  0.00  0.00     0.225 C 
HETATM    3  C   UNK N   1      20.141  15.653   7.586  0.00  0.00     0.215 C 
HETATM    4  C   UNK N   1      20.967  14.442   7.780  0.00  0.00     0.267 C 
HETATM    5  O   UNK N   1      20.670  13.572   6.744  0.00  0.00    -0.326 OA
ENDROOT
BRANCH   1   6
HETATM    6  C   UNK N   1      21.798  13.864   4.702  0.00  0.00     0.245 C 
BRANCH   6   7
HETATM    7  O   UNK N   1      22.714  14.877   4.361  0.00  0.00    -0.316 OA
BRANCH   7   8
HETATM    8  C   UNK N   1      23.046  15.317   3.097  0.00  0.00     0.262 C 
HETATM    9  O   UNK N   1      22.194  15.488   2.243  0.00  0.00    -0.265 OA
BRANCH   8  10
HETATM   10  C   UNK N   1      24.474  15.629   2.731  0.00  0.00     0.077 C 
HETATM   11  C   UNK N   1      25.302  16.185   3.865  0.00  0.00     0.020 C 
HETATM   12  C   UNK N   1      25.196  14.559   1.910  0.00  0.00     0.020 C 
ENDBRANCH   8  10
ENDBRANCH   7   8
ENDBRANCH   6   7
ENDBRANCH   1   6
BRANCH   1  13
HETATM   13  N   UNK N   1      19.392  14.330   4.984  0.00  0.00    -0.212 N 
ATOM     14  HN  UNK N   1      18.565  14.128   5.546  1.00  0.00     0.201 HD
BRANCH  13  15
HETATM   15  N   UNK N   1      19.274  14.499   3.781  0.00  0.00    -0.245 NA
BRANCH  15  16
HETATM   16  N   UNK N   1      19.161  14.684   2.584  0.00  0.00    -0.261 N 
HETATM   17  H   UNK N   1      19.547  15.477   2.146  0.00  0.00     0.193 HD
ATOM     18  HN  UNK N   1      18.654  14.003   2.020  1.00  0.00     0.193 HD
ENDBRANCH  15  16
ENDBRANCH  13  15
ENDBRANCH   1  13
BRANCH   2  19
HETATM   19  O   UNK N   1      20.637  16.963   5.527  0.00  0.00    -0.308 OA
BRANCH  19  20
HETATM   20  C   UNK N   1      21.347  18.112   5.527  0.00  0.00     0.262 C 
HETATM   21  O   UNK N   1      22.007  18.461   6.494  0.00  0.00    -0.265 OA
BRANCH  20  22
HETATM   22  C   UNK N   1      21.360  18.922   4.284  0.00  0.00     0.077 C 
HETATM   23  C   UNK N   1      22.763  19.013   3.723  0.00  0.00     0.020 C 
HETATM   24  C   UNK N   1      20.411  18.307   3.274  0.00  0.00     0.020 C 
ENDBRANCH  20  22
ENDBRANCH  19  20
ENDBRANCH   2  19
BRANCH   3  25
HETATM   25  O   UNK N   1      20.254  16.520   8.653  0.00  0.00    -0.308 OA
BRANCH  25  26
HETATM   26  C   UNK N   1      19.501  17.575   9.021  0.00  0.00     0.262 C 
HETATM   27  O   UNK N   1      19.908  18.719   8.902  0.00  0.00    -0.265 OA
BRANCH  26  28
HETATM   28  C   UNK N   1      18.137  17.289   9.579  0.00  0.00     0.077 C 
HETATM   29  C   UNK N   1      17.068  17.149   8.513  0.00  0.00     0.020 C 
HETATM   30  C   UNK N   1      17.748  18.381  10.558  0.00  0.00     0.020 C 
ENDBRANCH  26  28
ENDBRANCH  25  26
ENDBRANCH   3  25
BRANCH   4  31
HETATM   31  N   UNK N   1      21.453  13.849   9.028  0.00  0.00    -0.280 N 
HETATM   32  C   UNK N   1      22.759  13.478   9.143  0.00  0.00     0.102 A 
HETATM   33  C   UNK N   1      23.189  12.752  10.253  0.00  0.00     0.065 A 
HETATM   34  C   UNK N   1      22.257  12.403  11.228  0.00  0.00     0.103 A 
HETATM   35  N   UNK N   1      20.969  12.774  11.092  0.00  0.00    -0.295 N 
HETATM   36  C   UNK N   1      20.554  13.477  10.008  0.00  0.00     0.330 A 
ATOM     37  HN  UNK N   1      20.295  12.520  11.816  1.00  0.00     0.172 HD
HETATM   38  O   UNK N   1      19.375  13.723   9.895  0.00  0.00    -0.246 OA
BRANCH  34  39
HETATM   39  N   UNK N   1      22.637  11.623  12.333  0.00  0.00    -0.385 N 
HETATM   40  H   UNK N   1      23.325  10.926  12.236  0.00  0.00     0.157 HD
HETATM   41  H   UNK N   1      22.214  11.776  13.209  0.00  0.00     0.157 HD
ENDBRANCH  34  39
ENDBRANCH   4  31
TORSDOF 15
ENDMDL
MODEL 5
REMARK VINA RESULT:      -6.4      2.357      5.604
REMARK  15 active torsions:
REMARK  status: ('A' for Active; 'I' for Inactive)
REMARK    1  A    between atoms: C_2  and  C_4 
REMARK    2  A    between atoms: C_4  and  O_6 
REMARK    3  A    between atoms: O_6  and  C_7 
REMARK    4  A    between atoms: C_8  and  C_7 
REMARK    5  A    between atoms: C_8  and  N_34 
REMARK    6  A    between atoms: C_9  and  O_28 
REMARK    7  A    between atoms: C_10  and  O_22 
REMARK    8  A    between atoms: C_11  and  N_13 
REMARK    9  A    between atoms: C_16  and  N_21 
REMARK   10  A    between atoms: O_22  and  C_23 
REMARK   11  A    between atoms: C_23  and  C_25 
REMARK   12  A    between atoms: O_28  and  C_29 
REMARK   13  A    between atoms: C_29  and  C_31 
REMARK   14  A    between atoms: N_34  and  N_36 
REMARK   15  A    between atoms: N_36  and  N_37 
ROOT
HETATM    1  C   UNK N   1      21.296  16.247   6.475  0.00  0.00     0.213 C 
HETATM    2  C   UNK N   1      20.258  15.110   6.203  0.00  0.00     0.225 C 
HETATM    3  C   UNK N   1      21.126  13.873   6.393  0.00  0.00     0.215 C 
HETATM    4  C   UNK N   1      21.515  14.462   7.692  0.00  0.00     0.267 C 
HETATM    5  O   UNK N   1      22.144  15.667   7.424  0.00  0.00    -0.326 OA
ENDROOT
BRANCH   1   6
HETATM    6  C   UNK N   1      20.797  17.567   7.104  0.00  0.00     0.245 C 
BRANCH   6   7
HETATM    7  O   UNK N   1      19.772  17.322   8.037  0.00  0.00    -0.316 OA
BRANCH   7   8
HETATM    8  C   UNK N   1      19.381  18.129   9.084  0.00  0.00     0.262 C 
HETATM    9  O   UNK N   1      20.021  19.119   9.394  0.00  0.00    -0.265 OA
BRANCH   8  10
HETATM   10  C   UNK N   1      18.131  17.833   9.871  0.00  0.00     0.077 C 
HETATM   11  C   UNK N   1      17.764  18.891  10.884  0.00  0.00     0.020 C 
HETATM   12  C   UNK N   1      16.940  17.325   9.056  0.00  0.00     0.020 C 
ENDBRANCH   8  10
ENDBRANCH   7   8
ENDBRANCH   6   7
ENDBRANCH   1   6
BRANCH   1  13
HETATM   13  N   UNK N   1      22.077  16.507   5.281  0.00  0.00    -0.212 N 
ATOM     14  HN  UNK N   1      21.626  16.469   4.367  1.00  0.00     0.201 HD
BRANCH  13  15
HETATM   15  N   UNK N   1      23.266  16.774   5.352  0.00  0.00    -0.245 NA
BRANCH  15  16
HETATM   16  N   UNK N   1      24.448  17.056   5.415  0.00  0.00    -0.261 N 
HETATM   17  H   UNK N   1      25.088  16.492   5.907  0.00  0.00     0.193 HD
ATOM     18  HN  UNK N   1      24.785  17.897   4.947  1.00  0.00     0.193 HD
ENDBRANCH  15  16
ENDBRANCH  13  15
ENDBRANCH   1  13
BRANCH   2  19
HETATM   19  O   UNK N   1      19.441  15.168   5.095  0.00  0.00    -0.308 OA
BRANCH  19  20
HETATM   20  C   UNK N   1      19.087  14.150   4.281  0.00  0.00     0.262 C 
HETATM   21  O   UNK N   1      18.249  13.324   4.612  0.00  0.00    -0.265 OA
BRANCH  20  22
HETATM   22  C   UNK N   1      19.700  14.091   2.932  0.00  0.00     0.077 C 
HETATM   23  C   UNK N   1      19.933  15.486   2.393  0.00  0.00     0.020 C 
HETATM   24  C   UNK N   1      21.001  13.314   3.005  0.00  0.00     0.020 C 
ENDBRANCH  20  22
ENDBRANCH  19  20
ENDBRANCH   2  19
BRANCH   3  25
HETATM   25  O   UNK N   1      20.625  12.597   6.544  0.00  0.00    -0.308 OA
BRANCH  25  26
HETATM   26  C   UNK N   1      21.061  11.412   6.075  0.00  0.00     0.262 C 
HETATM   27  O   UNK N   1      20.281  10.541   5.726  0.00  0.00    -0.265 OA
BRANCH  26  28
HETATM   28  C   UNK N   1      22.545  11.205   5.994  0.00  0.00     0.077 C 
HETATM   29  C   UNK N   1      23.003  10.643   4.662  0.00  0.00     0.020 C 
HETATM   30  C   UNK N   1      22.994  10.291   7.119  0.00  0.00     0.020 C 
ENDBRANCH  26  28
ENDBRANCH  25  26
ENDBRANCH   3  25
BRANCH   4  31
HETATM   31  N   UNK N   1      21.877  13.785   8.939  0.00  0.00    -0.280 N 
HETATM   32  C   UNK N   1      23.129  13.274   9.098  0.00  0.00     0.102 A 
HETATM   33  C   UNK N   1      23.427  12.474  10.201  0.00  0.00     0.065 A 
HETATM   34  C   UNK N   1      22.419  12.199  11.122  0.00  0.00     0.103 A 
HETATM   35  N   UNK N   1      21.185  12.709  10.943  0.00  0.00    -0.295 N 
HETATM   36  C   UNK N   1      20.899  13.484   9.866  0.00  0.00     0.330 A 
ATOM     37  HN  UNK N   1      20.455  12.509  11.627  1.00  0.00     0.172 HD
HETATM   38  O   UNK N   1      19.759  13.858   9.710  0.00  0.00    -0.246 OA
BRANCH  34  39
HETATM   39  N   UNK N   1      22.662  11.351  12.216  0.00  0.00    -0.385 N 
HETATM   40  H   UNK N   1      23.356  11.579  12.876  0.00  0.00     0.157 HD
HETATM   41  H   UNK N   1      22.136  10.526  12.322  0.00  0.00     0.157 HD
ENDBRANCH  34  39
ENDBRANCH   4  31
TORSDOF 15
ENDMDL
MODEL 6
REMARK VINA RESULT:      -6.2      2.986      4.879
REMARK  15 active torsions:
REMARK  status: ('A' for Active; 'I' for Inactive)
REMARK    1  A    between atoms: C_2  and  C_4 
REMARK    2  A    between atoms: C_4  and  O_6 
REMARK    3  A    between atoms: O_6  and  C_7 
REMARK    4  A    between atoms: C_8  and  C_7 
REMARK    5  A    between atoms: C_8  and  N_34 
REMARK    6  A    between atoms: C_9  and  O_28 
REMARK    7  A    between atoms: C_10  and  O_22 
REMARK    8  A    between atoms: C_11  and  N_13 
REMARK    9  A    between atoms: C_16  and  N_21 
REMARK   10  A    between atoms: O_22  and  C_23 
REMARK   11  A    between atoms: C_23  and  C_25 
REMARK   12  A    between atoms: O_28  and  C_29 
REMARK   13  A    between atoms: C_29  and  C_31 
REMARK   14  A    between atoms: N_34  and  N_36 
REMARK   15  A    between atoms: N_36  and  N_37 
ROOT
HETATM    1  C   UNK N   1      23.851  14.662   5.985  0.00  0.00     0.213 C 
HETATM    2  C   UNK N   1      22.608  14.546   6.926  0.00  0.00     0.225 C 
HETATM    3  C   UNK N   1      22.129  15.992   6.952  0.00  0.00     0.215 C 
HETATM    4  C   UNK N   1      22.166  15.931   5.476  0.00  0.00     0.267 C 
HETATM    5  O   UNK N   1      23.478  15.685   5.108  0.00  0.00    -0.326 OA
ENDROOT
BRANCH   1   6
HETATM    6  C   UNK N   1      24.219  13.454   5.095  0.00  0.00     0.245 C 
BRANCH   6   7
HETATM    7  O   UNK N   1      24.130  13.791   3.731  0.00  0.00    -0.316 OA
BRANCH   7   8
HETATM    8  C   UNK N   1      23.125  13.456   2.849  0.00  0.00     0.262 C 
HETATM    9  O   UNK N   1      22.075  12.975   3.239  0.00  0.00    -0.265 OA
BRANCH   8  10
HETATM   10  C   UNK N   1      23.275  13.696   1.369  0.00  0.00     0.077 C 
HETATM   11  C   UNK N   1      24.478  14.528   0.991  0.00  0.00     0.020 C 
HETATM   12  C   UNK N   1      23.071  12.471   0.476  0.00  0.00     0.020 C 
ENDBRANCH   8  10
ENDBRANCH   7   8
ENDBRANCH   6   7
ENDBRANCH   1   6
BRANCH   1  13
HETATM   13  N   UNK N   1      25.005  15.119   6.736  0.00  0.00    -0.212 N 
ATOM     14  HN  UNK N   1      25.228  14.682   7.631  1.00  0.00     0.201 HD
BRANCH  13  15
HETATM   15  N   UNK N   1      25.715  16.018   6.314  0.00  0.00    -0.245 NA
BRANCH  15  16
HETATM   16  N   UNK N   1      26.409  16.926   5.897  0.00  0.00    -0.261 N 
HETATM   17  H   UNK N   1      26.200  17.389   5.054  0.00  0.00     0.193 HD
ATOM     18  HN  UNK N   1      27.226  17.215   6.434  1.00  0.00     0.193 HD
ENDBRANCH  15  16
ENDBRANCH  13  15
ENDBRANCH   1  13
BRANCH   2  19
HETATM   19  O   UNK N   1      22.704  13.869   8.122  0.00  0.00    -0.308 OA
BRANCH  19  20
HETATM   20  C   UNK N   1      21.701  13.306   8.829  0.00  0.00     0.262 C 
HETATM   21  O   UNK N   1      20.677  12.913   8.291  0.00  0.00    -0.265 OA
BRANCH  20  22
HETATM   22  C   UNK N   1      21.899  13.113  10.286  0.00  0.00     0.077 C 
HETATM   23  C   UNK N   1      20.668  12.496  10.913  0.00  0.00     0.020 C 
HETATM   24  C   UNK N   1      23.119  12.243  10.517  0.00  0.00     0.020 C 
ENDBRANCH  20  22
ENDBRANCH  19  20
ENDBRANCH   2  19
BRANCH   3  25
HETATM   25  O   UNK N   1      20.889  16.383   7.414  0.00  0.00    -0.308 OA
BRANCH  25  26
HETATM   26  C   UNK N   1      20.454  17.563   7.895  0.00  0.00     0.262 C 
HETATM   27  O   UNK N   1      20.799  18.621   7.391  0.00  0.00    -0.265 OA
BRANCH  26  28
HETATM   28  C   UNK N   1      19.524  17.529   9.072  0.00  0.00     0.077 C 
HETATM   29  C   UNK N   1      18.109  17.120   8.709  0.00  0.00     0.020 C 
HETATM   30  C   UNK N   1      19.509  18.887   9.748  0.00  0.00     0.020 C 
ENDBRANCH  26  28
ENDBRANCH  25  26
ENDBRANCH   3  25
BRANCH   4  31
HETATM   31  N   UNK N   1      21.322  16.630   4.504  0.00  0.00    -0.280 N 
HETATM   32  C   UNK N   1      21.650  17.888   4.097  0.00  0.00     0.102 A 
HETATM   33  C   UNK N   1      20.764  18.629   3.316  0.00  0.00     0.065 A 
HETATM   34  C   UNK N   1      19.536  18.063   2.977  0.00  0.00     0.103 A 
HETATM   35  N   UNK N   1      19.228  16.821   3.395  0.00  0.00    -0.295 N 
HETATM   36  C   UNK N   1      20.093  16.105   4.158  0.00  0.00     0.330 A 
ATOM     37  HN  UNK N   1      18.330  16.412   3.135  1.00  0.00     0.172 HD
HETATM   38  O   UNK N   1      19.741  15.023   4.570  0.00  0.00    -0.246 OA
BRANCH  34  39
HETATM   39  N   UNK N   1      18.592  18.797   2.240  0.00  0.00    -0.385 N 
HETATM   40  H   UNK N   1      17.932  18.333   1.676  0.00  0.00     0.157 HD
HETATM   41  H   UNK N   1      18.589  19.781   2.288  0.00  0.00     0.157 HD
ENDBRANCH  34  39
ENDBRANCH   4  31
TORSDOF 15
ENDMDL
MODEL 7
REMARK VINA RESULT:      -6.1      5.030      8.262
REMARK  15 active torsions:
REMARK  status: ('A' for Active; 'I' for Inactive)
REMARK    1  A    between atoms: C_2  and  C_4 
REMARK    2  A    between atoms: C_4  and  O_6 
REMARK    3  A    between atoms: O_6  and  C_7 
REMARK    4  A    between atoms: C_8  and  C_7 
REMARK    5  A    between atoms: C_8  and  N_34 
REMARK    6  A    between atoms: C_9  and  O_28 
REMARK    7  A    between atoms: C_10  and  O_22 
REMARK    8  A    between atoms: C_11  and  N_13 
REMARK    9  A    between atoms: C_16  and  N_21 
REMARK   10  A    between atoms: O_22  and  C_23 
REMARK   11  A    between atoms: C_23  and  C_25 
REMARK   12  A    between atoms: O_28  and  C_29 
REMARK   13  A    between atoms: C_29  and  C_31 
REMARK   14  A    between atoms: N_34  and  N_36 
REMARK   15  A    between atoms: N_36  and  N_37 
ROOT
HETATM    1  C   UNK N   1      22.542  17.003   4.655  0.00  0.00     0.213 C 
HETATM    2  C   UNK N   1      23.041  18.322   3.982  0.00  0.00     0.225 C 
HETATM    3  C   UNK N   1      24.441  18.437   4.570  0.00  0.00     0.215 C 
HETATM    4  C   UNK N   1      24.644  17.045   4.114  0.00  0.00     0.267 C 
HETATM    5  O   UNK N   1      23.719  16.257   4.778  0.00  0.00    -0.326 OA
ENDROOT
BRANCH   1   6
HETATM    6  C   UNK N   1      21.551  16.106   3.880  0.00  0.00     0.245 C 
BRANCH   6   7
HETATM    7  O   UNK N   1      21.445  16.520   2.539  0.00  0.00    -0.316 OA
BRANCH   7   8
HETATM    8  C   UNK N   1      21.207  15.731   1.433  0.00  0.00     0.262 C 
HETATM    9  O   UNK N   1      20.591  16.157   0.472  0.00  0.00    -0.265 OA
BRANCH   8  10
HETATM   10  C   UNK N   1      21.724  14.317   1.361  0.00  0.00     0.077 C 
HETATM   11  C   UNK N   1      20.735  13.319   0.807  0.00  0.00     0.020 C 
HETATM   12  C   UNK N   1      23.137  14.157   0.800  0.00  0.00     0.020 C 
ENDBRANCH   8  10
ENDBRANCH   7   8
ENDBRANCH   6   7
ENDBRANCH   1   6
BRANCH   1  13
HETATM   13  N   UNK N   1      22.050  17.279   5.992  0.00  0.00    -0.212 N 
ATOM     14  HN  UNK N   1      21.886  18.244   6.278  1.00  0.00     0.201 HD
BRANCH  13  15
HETATM   15  N   UNK N   1      21.826  16.374   6.780  0.00  0.00    -0.245 NA
BRANCH  15  16
HETATM   16  N   UNK N   1      21.594  15.462   7.552  0.00  0.00    -0.261 N 
HETATM   17  H   UNK N   1      20.872  14.814   7.383  0.00  0.00     0.193 HD
ATOM     18  HN  UNK N   1      22.161  15.367   8.394  1.00  0.00     0.193 HD
ENDBRANCH  15  16
ENDBRANCH  13  15
ENDBRANCH   1  13
BRANCH   2  19
HETATM   19  O   UNK N   1      22.241  19.444   3.979  0.00  0.00    -0.308 OA
BRANCH  19  20
HETATM   20  C   UNK N   1      21.966  20.254   2.933  0.00  0.00     0.262 C 
HETATM   21  O   UNK N   1      22.582  21.292   2.746  0.00  0.00    -0.265 OA
BRANCH  20  22
HETATM   22  C   UNK N   1      20.929  19.816   1.968  0.00  0.00     0.077 C 
HETATM   23  C   UNK N   1      19.651  19.450   2.690  0.00  0.00     0.020 C 
HETATM   24  C   UNK N   1      20.684  20.921   0.958  0.00  0.00     0.020 C 
ENDBRANCH  20  22
ENDBRANCH  19  20
ENDBRANCH   2  19
BRANCH   3  25
HETATM   25  O   UNK N   1      25.415  19.280   4.078  0.00  0.00    -0.308 OA
BRANCH  25  26
HETATM   26  C   UNK N   1      26.619  19.629   4.573  0.00  0.00     0.262 C 
HETATM   27  O   UNK N   1      27.630  19.561   3.893  0.00  0.00    -0.265 OA
BRANCH  26  28
HETATM   28  C   UNK N   1      26.668  20.110   5.994  0.00  0.00     0.077 C 
HETATM   29  C   UNK N   1      26.799  21.616   6.115  0.00  0.00     0.020 C 
HETATM   30  C   UNK N   1      27.815  19.434   6.721  0.00  0.00     0.020 C 
ENDBRANCH  26  28
ENDBRANCH  25  26
ENDBRANCH   3  25
BRANCH   4  31
HETATM   31  N   UNK N   1      25.876  16.393   3.668  0.00  0.00    -0.280 N 
HETATM   32  C   UNK N   1      26.005  15.993   2.372  0.00  0.00     0.102 A 
HETATM   33  C   UNK N   1      27.094  15.215   1.980  0.00  0.00     0.065 A 
HETATM   34  C   UNK N   1      28.032  14.844   2.941  0.00  0.00     0.103 A 
HETATM   35  N   UNK N   1      27.883  15.244   4.218  0.00  0.00    -0.295 N 
HETATM   36  C   UNK N   1      26.820  15.999   4.595  0.00  0.00     0.330 A 
ATOM     37  HN  UNK N   1      28.581  14.975   4.913  1.00  0.00     0.172 HD
HETATM   38  O   UNK N   1      26.691  16.272   5.767  0.00  0.00    -0.246 OA
BRANCH  34  39
HETATM   39  N   UNK N   1      29.113  14.013   2.600  0.00  0.00    -0.385 N 
HETATM   40  H   UNK N   1      28.961  13.184   2.093  0.00  0.00     0.157 HD
HETATM   41  H   UNK N   1      30.027  14.262   2.870  0.00  0.00     0.157 HD
ENDBRANCH  34  39
ENDBRANCH   4  31
TORSDOF 15
ENDMDL
MODEL 8
REMARK VINA RESULT:      -6.1     14.137     17.272
REMARK  15 active torsions:
REMARK  status: ('A' for Active; 'I' for Inactive)
REMARK    1  A    between atoms: C_2  and  C_4 
REMARK    2  A    between atoms: C_4  and  O_6 
REMARK    3  A    between atoms: O_6  and  C_7 
REMARK    4  A    between atoms: C_8  and  C_7 
REMARK    5  A    between atoms: C_8  and  N_34 
REMARK    6  A    between atoms: C_9  and  O_28 
REMARK    7  A    between atoms: C_10  and  O_22 
REMARK    8  A    between atoms: C_11  and  N_13 
REMARK    9  A    between atoms: C_16  and  N_21 
REMARK   10  A    between atoms: O_22  and  C_23 
REMARK   11  A    between atoms: C_23  and  C_25 
REMARK   12  A    between atoms: O_28  and  C_29 
REMARK   13  A    between atoms: C_29  and  C_31 
REMARK   14  A    between atoms: N_34  and  N_36 
REMARK   15  A    between atoms: N_36  and  N_37 
ROOT
HETATM    1  C   UNK N   1      35.915  13.361  12.310  0.00  0.00     0.213 C 
HETATM    2  C   UNK N   1      36.870  13.625  11.100  0.00  0.00     0.225 C 
HETATM    3  C   UNK N   1      35.910  13.454   9.930  0.00  0.00     0.215 C 
HETATM    4  C   UNK N   1      35.036  14.419  10.630  0.00  0.00     0.267 C 
HETATM    5  O   UNK N   1      34.690  13.853  11.846  0.00  0.00    -0.326 OA
ENDROOT
BRANCH   1   6
HETATM    6  C   UNK N   1      36.188  14.096  13.641  0.00  0.00     0.245 C 
BRANCH   6   7
HETATM    7  O   UNK N   1      36.248  13.185  14.712  0.00  0.00    -0.316 OA
BRANCH   7   8
HETATM    8  C   UNK N   1      35.257  12.903  15.630  0.00  0.00     0.262 C 
HETATM    9  O   UNK N   1      34.089  12.815  15.293  0.00  0.00    -0.265 OA
BRANCH   8  10
HETATM   10  C   UNK N   1      35.584  12.667  17.081  0.00  0.00     0.077 C 
HETATM   11  C   UNK N   1      35.158  13.782  18.007  0.00  0.00     0.020 C 
HETATM   12  C   UNK N   1      35.262  11.270  17.614  0.00  0.00     0.020 C 
ENDBRANCH   8  10
ENDBRANCH   7   8
ENDBRANCH   6   7
ENDBRANCH   1   6
BRANCH   1  13
HETATM   13  N   UNK N   1      35.767  11.935  12.529  0.00  0.00    -0.212 N 
ATOM     14  HN  UNK N   1      36.543  11.404  12.924  1.00  0.00     0.201 HD
BRANCH  13  15
HETATM   15  N   UNK N   1      34.727  11.359  12.248  0.00  0.00    -0.245 NA
BRANCH  15  16
HETATM   16  N   UNK N   1      33.692  10.793  11.951  0.00  0.00    -0.261 N 
HETATM   17  H   UNK N   1      33.168  11.057  11.161  0.00  0.00     0.193 HD
ATOM     18  HN  UNK N   1      33.359  10.026  12.535  1.00  0.00     0.193 HD
ENDBRANCH  15  16
ENDBRANCH  13  15
ENDBRANCH   1  13
BRANCH   2  19
HETATM   19  O   UNK N   1      38.095  12.997  11.035  0.00  0.00    -0.308 OA
BRANCH  19  20
HETATM   20  C   UNK N   1      38.367  11.781  10.515  0.00  0.00     0.262 C 
HETATM   21  O   UNK N   1      37.978  10.752  11.046  0.00  0.00    -0.265 OA
BRANCH  20  22
HETATM   22  C   UNK N   1      39.107  11.724   9.230  0.00  0.00     0.077 C 
HETATM   23  C   UNK N   1      38.273  11.042   8.167  0.00  0.00     0.020 C 
HETATM   24  C   UNK N   1      39.484  13.130   8.804  0.00  0.00     0.020 C 
ENDBRANCH  20  22
ENDBRANCH  19  20
ENDBRANCH   2  19
BRANCH   3  25
HETATM   25  O   UNK N   1      36.188  13.862   8.642  0.00  0.00    -0.308 OA
BRANCH  25  26
HETATM   26  C   UNK N   1      35.552  13.620   7.479  0.00  0.00     0.262 C 
HETATM   27  O   UNK N   1      34.780  12.682   7.359  0.00  0.00    -0.265 OA
BRANCH  26  28
HETATM   28  C   UNK N   1      35.825  14.553   6.336  0.00  0.00     0.077 C 
HETATM   29  C   UNK N   1      34.681  15.506   6.049  0.00  0.00     0.020 C 
HETATM   30  C   UNK N   1      36.150  13.751   5.090  0.00  0.00     0.020 C 
ENDBRANCH  26  28
ENDBRANCH  25  26
ENDBRANCH   3  25
BRANCH   4  31
HETATM   31  N   UNK N   1      34.106  15.398  10.063  0.00  0.00    -0.280 N 
HETATM   32  C   UNK N   1      32.922  14.985   9.531  0.00  0.00     0.102 A 
HETATM   33  C   UNK N   1      32.114  15.881   8.831  0.00  0.00     0.065 A 
HETATM   34  C   UNK N   1      32.550  17.195   8.674  0.00  0.00     0.103 A 
HETATM   35  N   UNK N   1      33.728  17.581   9.202  0.00  0.00    -0.295 N 
HETATM   36  C   UNK N   1      34.512  16.705   9.880  0.00  0.00     0.330 A 
ATOM     37  HN  UNK N   1      34.035  18.548   9.089  1.00  0.00     0.172 HD
HETATM   38  O   UNK N   1      35.593  17.081  10.272  0.00  0.00    -0.246 OA
BRANCH  34  39
HETATM   39  N   UNK N   1      31.794  18.114   7.927  0.00  0.00    -0.385 N 
HETATM   40  H   UNK N   1      32.175  18.531   7.122  0.00  0.00     0.157 HD
HETATM   41  H   UNK N   1      30.879  18.340   8.211  0.00  0.00     0.157 HD
ENDBRANCH  34  39
ENDBRANCH   4  31
TORSDOF 15
ENDMDL
MODEL 9
REMARK VINA RESULT:      -6.0      3.810      7.000
REMARK  15 active torsions:
REMARK  status: ('A' for Active; 'I' for Inactive)
REMARK    1  A    between atoms: C_2  and  C_4 
REMARK    2  A    between atoms: C_4  and  O_6 
REMARK    3  A    between atoms: O_6  and  C_7 
REMARK    4  A    between atoms: C_8  and  C_7 
REMARK    5  A    between atoms: C_8  and  N_34 
REMARK    6  A    between atoms: C_9  and  O_28 
REMARK    7  A    between atoms: C_10  and  O_22 
REMARK    8  A    between atoms: C_11  and  N_13 
REMARK    9  A    between atoms: C_16  and  N_21 
REMARK   10  A    between atoms: O_22  and  C_23 
REMARK   11  A    between atoms: C_23  and  C_25 
REMARK   12  A    between atoms: O_28  and  C_29 
REMARK   13  A    between atoms: C_29  and  C_31 
REMARK   14  A    between atoms: N_34  and  N_36 
REMARK   15  A    between atoms: N_36  and  N_37 
ROOT
HETATM    1  C   UNK N   1      21.014  17.647   4.050  0.00  0.00     0.213 C 
HETATM    2  C   UNK N   1      21.228  16.829   5.365  0.00  0.00     0.225 C 
HETATM    3  C   UNK N   1      21.602  15.464   4.801  0.00  0.00     0.215 C 
HETATM    4  C   UNK N   1      22.614  16.181   3.995  0.00  0.00     0.267 C 
HETATM    5  O   UNK N   1      21.934  17.064   3.173  0.00  0.00    -0.326 OA
ENDROOT
BRANCH   1   6
HETATM    6  C   UNK N   1      21.336  19.158   4.059  0.00  0.00     0.245 C 
BRANCH   6   7
HETATM    7  O   UNK N   1      22.214  19.488   3.009  0.00  0.00    -0.316 OA
BRANCH   7   8
HETATM    8  C   UNK N   1      23.291  20.348   3.057  0.00  0.00     0.262 C 
HETATM    9  O   UNK N   1      23.152  21.547   2.887  0.00  0.00    -0.265 OA
BRANCH   8  10
HETATM   10  C   UNK N   1      24.680  19.842   3.348  0.00  0.00     0.077 C 
HETATM   11  C   UNK N   1      25.784  20.628   2.682  0.00  0.00     0.020 C 
HETATM   12  C   UNK N   1      24.967  19.499   4.811  0.00  0.00     0.020 C 
ENDBRANCH   8  10
ENDBRANCH   7   8
ENDBRANCH   6   7
ENDBRANCH   1   6
BRANCH   1  13
HETATM   13  N   UNK N   1      19.684  17.407   3.523  0.00  0.00    -0.212 N 
ATOM     14  HN  UNK N   1      18.911  17.235   4.167  1.00  0.00     0.201 HD
BRANCH  13  15
HETATM   15  N   UNK N   1      19.473  17.407   2.321  0.00  0.00    -0.245 NA
BRANCH  15  16
HETATM   16  N   UNK N   1      19.275  17.392   1.121  0.00  0.00    -0.261 N 
HETATM   17  H   UNK N   1      18.364  17.346   0.749  0.00  0.00     0.193 HD
ATOM     18  HN  UNK N   1      20.070  17.429   0.484  1.00  0.00     0.193 HD
ENDBRANCH  15  16
ENDBRANCH  13  15
ENDBRANCH   1  13
BRANCH   2  19
HETATM   19  O   UNK N   1      20.292  16.883   6.375  0.00  0.00    -0.308 OA
BRANCH  19  20
HETATM   20  C   UNK N   1      20.370  17.578   7.530  0.00  0.00     0.262 C 
HETATM   21  O   UNK N   1      20.710  18.752   7.552  0.00  0.00    -0.265 OA
BRANCH  20  22
HETATM   22  C   UNK N   1      19.966  16.895   8.783  0.00  0.00     0.077 C 
HETATM   23  C   UNK N   1      18.459  16.898   8.928  0.00  0.00     0.020 C 
HETATM   24  C   UNK N   1      20.508  15.479   8.780  0.00  0.00     0.020 C 
ENDBRANCH  20  22
ENDBRANCH  19  20
ENDBRANCH   2  19
BRANCH   3  25
HETATM   25  O   UNK N   1      22.169  14.453   5.547  0.00  0.00    -0.308 OA
BRANCH  25  26
HETATM   26  C   UNK N   1      22.517  13.195   5.215  0.00  0.00     0.262 C 
HETATM   27  O   UNK N   1      21.840  12.529   4.447  0.00  0.00    -0.265 OA
BRANCH  26  28
HETATM   28  C   UNK N   1      23.775  12.643   5.820  0.00  0.00     0.077 C 
HETATM   29  C   UNK N   1      24.416  13.575   6.830  0.00  0.00     0.020 C 
HETATM   30  C   UNK N   1      24.768  12.314   4.721  0.00  0.00     0.020 C 
ENDBRANCH  26  28
ENDBRANCH  25  26
ENDBRANCH   3  25
BRANCH   4  31
HETATM   31  N   UNK N   1      23.921  15.712   3.533  0.00  0.00    -0.280 N 
HETATM   32  C   UNK N   1      25.057  16.141   4.152  0.00  0.00     0.102 A 
HETATM   33  C   UNK N   1      26.308  15.846   3.611  0.00  0.00     0.065 A 
HETATM   34  C   UNK N   1      26.370  15.123   2.422  0.00  0.00     0.103 A 
HETATM   35  N   UNK N   1      25.236  14.715   1.821  0.00  0.00    -0.295 N 
HETATM   36  C   UNK N   1      24.020  15.006   2.350  0.00  0.00     0.330 A 
ATOM     37  HN  UNK N   1      25.291  14.178   0.955  1.00  0.00     0.172 HD
HETATM   38  O   UNK N   1      23.030  14.681   1.736  0.00  0.00    -0.246 OA
BRANCH  34  39
HETATM   39  N   UNK N   1      27.608  14.855   1.813  0.00  0.00    -0.385 N 
HETATM   40  H   UNK N   1      28.233  15.588   1.615  0.00  0.00     0.157 HD
HETATM   41  H   UNK N   1      27.850  13.928   1.583  0.00  0.00     0.157 HD
ENDBRANCH  34  39
ENDBRANCH   4  31
TORSDOF 15
ENDMDL
