MODEL 1
REMARK VINA RESULT:      -5.9      0.000      0.000
REMARK  29 active torsions:
REMARK  status: ('A' for Active; 'I' for Inactive)
REMARK    1  A    between atoms: C_2  and  C_3 
REMARK    2  A    between atoms: C_3  and  C_4 
REMARK    3  A    between atoms: C_4  and  C_5 
REMARK    4  A    between atoms: C_5  and  C_6 
REMARK    5  A    between atoms: C_6  and  C_7 
REMARK    6  A    between atoms: C_7  and  C_8 
REMARK    7  A    between atoms: C_8  and  C_9 
REMARK    8  A    between atoms: C_9  and  C_10 
REMARK    9  A    between atoms: C_10  and  C_11 
REMARK   10  A    between atoms: C_11  and  C_12 
REMARK   11  A    between atoms: C_12  and  C_13 
REMARK   12  A    between atoms: C_13  and  C_14 
REMARK   13  A    between atoms: C_14  and  C_15 
REMARK   14  A    between atoms: C_15  and  C_16 
REMARK   15  A    between atoms: C_16  and  O_17 
REMARK   16  A    between atoms: O_17  and  C_18 
REMARK   17  A    between atoms: C_18  and  C_19 
REMARK   18  A    between atoms: C_19  and  C_20 
REMARK   19  A    between atoms: C_20  and  O_21 
REMARK   20  A    between atoms: O_21  and  P_22 
REMARK   21  A    between atoms: P_22  and  C_24 
REMARK   22  A    between atoms: P_22  and  O_39 
REMARK   23  A    between atoms: C_24  and  O_25 
REMARK   24  A    between atoms: C_26  and  O_25 
REMARK   25  A    between atoms: C_26  and  C_27 
REMARK   26  A    between atoms: C_26  and  C_37 
REMARK   27  A    between atoms: C_27  and  N_28 
REMARK   28  A    between atoms: C_31  and  N_36 
REMARK   29  A    between atoms: C_37  and  O_38 
ROOT
HETATM    1  P   UNK N   1      33.982  15.698   9.043  0.00  0.00     0.262 P 
HETATM    2  O   UNK N   1      34.711  17.054   9.246  0.00  0.00    -0.652 OA
ENDROOT
BRANCH   1   3
HETATM    3  O   UNK N   1      34.164  15.578  10.782  0.00  0.00    -0.317 OA
BRANCH   3   4
HETATM    4  C   UNK N   1      35.450  15.993  11.167  0.00  0.00     0.180 C 
BRANCH   4   5
HETATM    5  C   UNK N   1      36.104  14.946  12.084  0.00  0.00     0.053 C 
BRANCH   5   6
HETATM    6  C   UNK N   1      35.215  13.720  12.335  0.00  0.00     0.169 C 
BRANCH   6   7
HETATM    7  O   UNK N   1      34.929  13.576  13.695  0.00  0.00    -0.391 OA
BRANCH   7   8
HETATM    8  C   UNK N   1      36.074  13.988  14.392  0.00  0.00     0.167 C 
BRANCH   8   9
HETATM    9  C   UNK N   1      36.397  13.009  15.519  0.00  0.00     0.026 C 
BRANCH   9  10
HETATM   10  C   UNK N   1      35.190  12.718  16.403  0.00  0.00     0.002 C 
BRANCH  10  11
HETATM   11  C   UNK N   1      35.084  13.745  17.521  0.00  0.00     0.000 C 
BRANCH  11  12
HETATM   12  C   UNK N   1      35.206  13.077  18.875  0.00  0.00     0.000 C 
BRANCH  12  13
HETATM   13  C   UNK N   1      35.277  11.564  18.720  0.00  0.00     0.000 C 
BRANCH  13  14
HETATM   14  C   UNK N   1      35.299  10.853  20.068  0.00  0.00     0.000 C 
BRANCH  14  15
HETATM   15  C   UNK N   1      35.594   9.365  19.925  0.00  0.00     0.000 C 
BRANCH  15  16
HETATM   16  C   UNK N   1      34.516   8.645  19.125  0.00  0.00     0.000 C 
BRANCH  16  17
HETATM   17  C   UNK N   1      33.591   7.860  20.041  0.00  0.00     0.000 C 
BRANCH  17  18
HETATM   18  C   UNK N   1      32.145   8.128  19.680  0.00  0.00     0.000 C 
BRANCH  18  19
HETATM   19  C   UNK N   1      31.472   8.894  20.803  0.00  0.00     0.000 C 
BRANCH  19  20
HETATM   20  C   UNK N   1      32.332   8.844  22.052  0.00  0.00     0.000 C 
BRANCH  20  21
HETATM   21  C   UNK N   1      32.576  10.247  22.587  0.00  0.00    -0.000 C 
BRANCH  21  22
HETATM   22  C   UNK N   1      32.992  10.190  24.046  0.00  0.00    -0.005 C 
HETATM   23  C   UNK N   1      31.775  10.178  24.951  0.00  0.00     0.005 C 
ENDBRANCH  21  22
ENDBRANCH  20  21
ENDBRANCH  19  20
ENDBRANCH  18  19
ENDBRANCH  17  18
ENDBRANCH  16  17
ENDBRANCH  15  16
ENDBRANCH  14  15
ENDBRANCH  13  14
ENDBRANCH  12  13
ENDBRANCH  11  12
ENDBRANCH  10  11
ENDBRANCH   9  10
ENDBRANCH   8   9
ENDBRANCH   7   8
ENDBRANCH   6   7
ENDBRANCH   5   6
ENDBRANCH   4   5
ENDBRANCH   3   4
ENDBRANCH   1   3
BRANCH   1  24
HETATM   24  C   UNK N   1      32.810  17.034   8.476  0.00  0.00     0.293 C 
BRANCH  24  25
HETATM   25  O   UNK N   1      31.507  16.556   8.329  0.00  0.00    -0.371 OA
BRANCH  25  26
HETATM   26  C   UNK N   1      31.010  17.240   7.220  0.00  0.00     0.164 C 
BRANCH  26  27
HETATM   27  C   UNK N   1      29.528  16.889   7.014  0.00  0.00     0.167 C 
BRANCH  27  28
HETATM   28  N   UNK N   1      28.669  18.067   6.961  0.00  0.00    -0.307 N 
HETATM   29  C   UNK N   1      28.448  18.651   5.754  0.00  0.00     0.099 A 
HETATM   30  C   UNK N   1      27.671  19.802   5.663  0.00  0.00     0.065 A 
HETATM   31  C   UNK N   1      27.124  20.337   6.826  0.00  0.00     0.103 A 
HETATM   32  N   UNK N   1      27.340  19.731   8.022  0.00  0.00    -0.295 N 
HETATM   33  C   UNK N   1      28.105  18.599   8.104  0.00  0.00     0.328 A 
ATOM     34  HN  UNK N   1      26.928  20.124   8.868  1.00  0.00     0.172 HD
HETATM   35  O   UNK N   1      28.290  18.074   9.189  0.00  0.00    -0.246 OA
BRANCH  31  36
HETATM   36  N   UNK N   1      26.348  21.510   6.762  0.00  0.00    -0.385 N 
HETATM   37  H   UNK N   1      25.567  21.667   7.340  0.00  0.00     0.157 HD
HETATM   38  H   UNK N   1      26.599  22.205   6.111  0.00  0.00     0.157 HD
ENDBRANCH  31  36
ENDBRANCH  27  28
ENDBRANCH  26  27
BRANCH  26  39
HETATM   39  C   UNK N   1      31.918  16.983   6.023  0.00  0.00     0.197 C 
BRANCH  39  40
HETATM   40  O   UNK N   1      31.163  16.500   4.957  0.00  0.00    -0.398 OA
HETATM   41  H   UNK N   1      31.582  15.969   4.262  0.00  0.00     0.209 HD
ENDBRANCH  39  40
ENDBRANCH  26  39
ENDBRANCH  25  26
ENDBRANCH  24  25
ENDBRANCH   1  24
BRANCH   1  42
HETATM   42  O   UNK N   1      32.297  15.911   9.418  0.00  0.00    -0.328 OA
HETATM   43  H   UNK N   1      31.362  15.999   9.176  0.00  0.00     0.220 HD
ENDBRANCH   1  42
TORSDOF 29
ENDMDL
MODEL 2
REMARK VINA RESULT:      -5.8      5.290     13.222
REMARK  29 active torsions:
REMARK  status: ('A' for Active; 'I' for Inactive)
REMARK    1  A    between atoms: C_2  and  C_3 
REMARK    2  A    between atoms: C_3  and  C_4 
REMARK    3  A    between atoms: C_4  and  C_5 
REMARK    4  A    between atoms: C_5  and  C_6 
REMARK    5  A    between atoms: C_6  and  C_7 
REMARK    6  A    between atoms: C_7  and  C_8 
REMARK    7  A    between atoms: C_8  and  C_9 
REMARK    8  A    between atoms: C_9  and  C_10 
REMARK    9  A    between atoms: C_10  and  C_11 
REMARK   10  A    between atoms: C_11  and  C_12 
REMARK   11  A    between atoms: C_12  and  C_13 
REMARK   12  A    between atoms: C_13  and  C_14 
REMARK   13  A    between atoms: C_14  and  C_15 
REMARK   14  A    between atoms: C_15  and  C_16 
REMARK   15  A    between atoms: C_16  and  O_17 
REMARK   16  A    between atoms: O_17  and  C_18 
REMARK   17  A    between atoms: C_18  and  C_19 
REMARK   18  A    between atoms: C_19  and  C_20 
REMARK   19  A    between atoms: C_20  and  O_21 
REMARK   20  A    between atoms: O_21  and  P_22 
REMARK   21  A    between atoms: P_22  and  C_24 
REMARK   22  A    between atoms: P_22  and  O_39 
REMARK   23  A    between atoms: C_24  and  O_25 
REMARK   24  A    between atoms: C_26  and  O_25 
REMARK   25  A    between atoms: C_26  and  C_27 
REMARK   26  A    between atoms: C_26  and  C_37 
REMARK   27  A    between atoms: C_27  and  N_28 
REMARK   28  A    between atoms: C_31  and  N_36 
REMARK   29  A    between atoms: C_37  and  O_38 
ROOT
HETATM    1  P   UNK N   1      35.971  11.897  12.667  0.00  0.00     0.262 P 
HETATM    2  O   UNK N   1      34.555  12.533  12.629  0.00  0.00    -0.652 OA
ENDROOT
BRANCH   1   3
HETATM    3  O   UNK N   1      36.037  12.450  11.005  0.00  0.00    -0.317 OA
BRANCH   3   4
HETATM    4  C   UNK N   1      37.356  12.778  10.653  0.00  0.00     0.180 C 
BRANCH   4   5
HETATM    5  C   UNK N   1      37.381  14.033   9.763  0.00  0.00     0.053 C 
BRANCH   5   6
HETATM    6  C   UNK N   1      36.066  14.824   9.794  0.00  0.00     0.169 C 
BRANCH   6   7
HETATM    7  O   UNK N   1      35.914  15.499  11.009  0.00  0.00    -0.391 OA
BRANCH   7   8
HETATM    8  C   UNK N   1      35.380  16.759  10.705  0.00  0.00     0.167 C 
BRANCH   8   9
HETATM    9  C   UNK N   1      34.593  16.707   9.396  0.00  0.00     0.026 C 
BRANCH   9  10
HETATM   10  C   UNK N   1      34.723  17.991   8.587  0.00  0.00     0.002 C 
BRANCH  10  11
HETATM   11  C   UNK N   1      33.474  18.226   7.749  0.00  0.00     0.000 C 
BRANCH  11  12
HETATM   12  C   UNK N   1      32.390  17.233   8.112  0.00  0.00     0.000 C 
BRANCH  12  13
HETATM   13  C   UNK N   1      31.764  16.643   6.855  0.00  0.00     0.000 C 
BRANCH  13  14
HETATM   14  C   UNK N   1      32.579  16.963   5.607  0.00  0.00     0.000 C 
BRANCH  14  15
HETATM   15  C   UNK N   1      31.723  17.581   4.509  0.00  0.00     0.000 C 
BRANCH  15  16
HETATM   16  C   UNK N   1      30.882  16.537   3.786  0.00  0.00     0.000 C 
BRANCH  16  17
HETATM   17  C   UNK N   1      29.407  16.901   3.825  0.00  0.00     0.000 C 
BRANCH  17  18
HETATM   18  C   UNK N   1      28.597  15.750   4.382  0.00  0.00     0.000 C 
BRANCH  18  19
HETATM   19  C   UNK N   1      27.616  16.268   5.416  0.00  0.00     0.000 C 
BRANCH  19  20
HETATM   20  C   UNK N   1      28.368  16.827   6.609  0.00  0.00     0.000 C 
BRANCH  20  21
HETATM   21  C   UNK N   1      28.015  18.290   6.823  0.00  0.00    -0.000 C 
BRANCH  21  22
HETATM   22  C   UNK N   1      28.510  18.760   8.180  0.00  0.00    -0.005 C 
HETATM   23  C   UNK N   1      28.206  17.727   9.248  0.00  0.00     0.005 C 
ENDBRANCH  21  22
ENDBRANCH  20  21
ENDBRANCH  19  20
ENDBRANCH  18  19
ENDBRANCH  17  18
ENDBRANCH  16  17
ENDBRANCH  15  16
ENDBRANCH  14  15
ENDBRANCH  13  14
ENDBRANCH  12  13
ENDBRANCH  11  12
ENDBRANCH  10  11
ENDBRANCH   9  10
ENDBRANCH   8   9
ENDBRANCH   7   8
ENDBRANCH   6   7
ENDBRANCH   5   6
ENDBRANCH   4   5
ENDBRANCH   3   4
ENDBRANCH   1   3
BRANCH   1  24
HETATM   24  C   UNK N   1      35.955  13.262  13.939  0.00  0.00     0.293 C 
BRANCH  24  25
HETATM   25  O   UNK N   1      37.200  13.424  14.545  0.00  0.00    -0.371 OA
BRANCH  25  26
HETATM   26  C   UNK N   1      36.911  13.999  15.783  0.00  0.00     0.164 C 
BRANCH  26  27
HETATM   27  C   UNK N   1      35.473  13.647  16.196  0.00  0.00     0.167 C 
BRANCH  27  28
HETATM   28  N   UNK N   1      35.407  12.944  17.472  0.00  0.00    -0.307 N 
HETATM   29  C   UNK N   1      35.471  11.586  17.466  0.00  0.00     0.099 A 
HETATM   30  C   UNK N   1      35.369  10.872  18.655  0.00  0.00     0.065 A 
HETATM   31  C   UNK N   1      35.204  11.572  19.847  0.00  0.00     0.103 A 
HETATM   32  N   UNK N   1      35.159  12.930  19.839  0.00  0.00    -0.295 N 
HETATM   33  C   UNK N   1      35.262  13.626  18.664  0.00  0.00     0.328 A 
ATOM     34  HN  UNK N   1      35.048  13.436  20.718  1.00  0.00     0.172 HD
HETATM   35  O   UNK N   1      35.214  14.845  18.680  0.00  0.00    -0.246 OA
BRANCH  31  36
HETATM   36  N   UNK N   1      35.080  10.872  21.062  0.00  0.00    -0.385 N 
HETATM   37  H   UNK N   1      34.876  11.316  21.917  0.00  0.00     0.157 HD
HETATM   38  H   UNK N   1      35.203   9.895  21.057  0.00  0.00     0.157 HD
ENDBRANCH  31  36
ENDBRANCH  27  28
ENDBRANCH  26  27
BRANCH  26  39
HETATM   39  C   UNK N   1      37.234  15.488  15.733  0.00  0.00     0.197 C 
BRANCH  39  40
HETATM   40  O   UNK N   1      37.238  16.011  17.024  0.00  0.00    -0.398 OA
HETATM   41  H   UNK N   1      37.327  16.967  17.164  0.00  0.00     0.209 HD
ENDBRANCH  39  40
ENDBRANCH  26  39
ENDBRANCH  25  26
ENDBRANCH  24  25
ENDBRANCH   1  24
BRANCH   1  42
HETATM   42  O   UNK N   1      37.139  13.157  12.940  0.00  0.00    -0.328 OA
HETATM   43  H   UNK N   1      37.410  14.086  13.006  0.00  0.00     0.220 HD
ENDBRANCH   1  42
TORSDOF 29
ENDMDL
MODEL 3
REMARK VINA RESULT:      -5.8      5.172     13.705
REMARK  29 active torsions:
REMARK  status: ('A' for Active; 'I' for Inactive)
REMARK    1  A    between atoms: C_2  and  C_3 
REMARK    2  A    between atoms: C_3  and  C_4 
REMARK    3  A    between atoms: C_4  and  C_5 
REMARK    4  A    between atoms: C_5  and  C_6 
REMARK    5  A    between atoms: C_6  and  C_7 
REMARK    6  A    between atoms: C_7  and  C_8 
REMARK    7  A    between atoms: C_8  and  C_9 
REMARK    8  A    between atoms: C_9  and  C_10 
REMARK    9  A    between atoms: C_10  and  C_11 
REMARK   10  A    between atoms: C_11  and  C_12 
REMARK   11  A    between atoms: C_12  and  C_13 
REMARK   12  A    between atoms: C_13  and  C_14 
REMARK   13  A    between atoms: C_14  and  C_15 
REMARK   14  A    between atoms: C_15  and  C_16 
REMARK   15  A    between atoms: C_16  and  O_17 
REMARK   16  A    between atoms: O_17  and  C_18 
REMARK   17  A    between atoms: C_18  and  C_19 
REMARK   18  A    between atoms: C_19  and  C_20 
REMARK   19  A    between atoms: C_20  and  O_21 
REMARK   20  A    between atoms: O_21  and  P_22 
REMARK   21  A    between atoms: P_22  and  C_24 
REMARK   22  A    between atoms: P_22  and  O_39 
REMARK   23  A    between atoms: C_24  and  O_25 
REMARK   24  A    between atoms: C_26  and  O_25 
REMARK   25  A    between atoms: C_26  and  C_27 
REMARK   26  A    between atoms: C_26  and  C_37 
REMARK   27  A    between atoms: C_27  and  N_28 
REMARK   28  A    between atoms: C_31  and  N_36 
REMARK   29  A    between atoms: C_37  and  O_38 
ROOT
HETATM    1  P   UNK N   1      35.532  14.200  11.360  0.00  0.00     0.262 P 
HETATM    2  O   UNK N   1      36.822  13.339  11.289  0.00  0.00    -0.652 OA
ENDROOT
BRANCH   1   3
HETATM    3  O   UNK N   1      35.091  13.281   9.934  0.00  0.00    -0.317 OA
BRANCH   3   4
HETATM    4  C   UNK N   1      34.559  14.133   8.952  0.00  0.00     0.180 C 
BRANCH   4   5
HETATM    5  C   UNK N   1      33.112  13.733   8.616  0.00  0.00     0.053 C 
BRANCH   5   6
HETATM    6  C   UNK N   1      32.908  13.385   7.134  0.00  0.00     0.169 C 
BRANCH   6   7
HETATM    7  O   UNK N   1      34.108  13.483   6.425  0.00  0.00    -0.391 OA
BRANCH   7   8
HETATM    8  C   UNK N   1      33.788  13.326   5.070  0.00  0.00     0.167 C 
BRANCH   8   9
HETATM    9  C   UNK N   1      34.480  14.396   4.228  0.00  0.00     0.026 C 
BRANCH   9  10
HETATM   10  C   UNK N   1      33.498  15.195   3.380  0.00  0.00     0.002 C 
BRANCH  10  11
HETATM   11  C   UNK N   1      32.414  15.812   4.252  0.00  0.00     0.000 C 
BRANCH  11  12
HETATM   12  C   UNK N   1      32.538  17.321   4.273  0.00  0.00     0.000 C 
BRANCH  12  13
HETATM   13  C   UNK N   1      33.463  17.766   5.398  0.00  0.00     0.000 C 
BRANCH  13  14
HETATM   14  C   UNK N   1      33.264  16.938   6.662  0.00  0.00     0.000 C 
BRANCH  14  15
HETATM   15  C   UNK N   1      32.846  17.797   7.848  0.00  0.00     0.000 C 
BRANCH  15  16
HETATM   16  C   UNK N   1      31.592  17.260   8.526  0.00  0.00     0.000 C 
BRANCH  16  17
HETATM   17  C   UNK N   1      30.630  16.673   7.506  0.00  0.00     0.000 C 
BRANCH  17  18
HETATM   18  C   UNK N   1      29.701  17.747   6.982  0.00  0.00     0.000 C 
BRANCH  18  19
HETATM   19  C   UNK N   1      28.678  17.128   6.048  0.00  0.00     0.000 C 
BRANCH  19  20
HETATM   20  C   UNK N   1      28.890  17.640   4.636  0.00  0.00     0.000 C 
BRANCH  20  21
HETATM   21  C   UNK N   1      27.753  18.564   4.228  0.00  0.00    -0.000 C 
BRANCH  21  22
HETATM   22  C   UNK N   1      28.038  19.985   4.681  0.00  0.00    -0.005 C 
HETATM   23  C   UNK N   1      26.979  20.458   5.659  0.00  0.00     0.005 C 
ENDBRANCH  21  22
ENDBRANCH  20  21
ENDBRANCH  19  20
ENDBRANCH  18  19
ENDBRANCH  17  18
ENDBRANCH  16  17
ENDBRANCH  15  16
ENDBRANCH  14  15
ENDBRANCH  13  14
ENDBRANCH  12  13
ENDBRANCH  11  12
ENDBRANCH  10  11
ENDBRANCH   9  10
ENDBRANCH   8   9
ENDBRANCH   7   8
ENDBRANCH   6   7
ENDBRANCH   5   6
ENDBRANCH   4   5
ENDBRANCH   3   4
ENDBRANCH   1   3
BRANCH   1  24
HETATM   24  C   UNK N   1      35.604  13.201  12.934  0.00  0.00     0.293 C 
BRANCH  24  25
HETATM   25  O   UNK N   1      35.182  13.939  14.040  0.00  0.00    -0.371 OA
BRANCH  25  26
HETATM   26  C   UNK N   1      35.634  13.207  15.139  0.00  0.00     0.164 C 
BRANCH  26  27
HETATM   27  C   UNK N   1      34.571  13.227  16.249  0.00  0.00     0.167 C 
BRANCH  27  28
HETATM   28  N   UNK N   1      35.040  12.626  17.492  0.00  0.00    -0.307 N 
HETATM   29  C   UNK N   1      35.267  11.286  17.517  0.00  0.00     0.099 A 
HETATM   30  C   UNK N   1      35.673  10.664  18.693  0.00  0.00     0.065 A 
HETATM   31  C   UNK N   1      35.847  11.438  19.837  0.00  0.00     0.103 A 
HETATM   32  N   UNK N   1      35.633  12.778  19.792  0.00  0.00    -0.295 N 
HETATM   33  C   UNK N   1      35.234  13.384  18.631  0.00  0.00     0.328 A 
ATOM     34  HN  UNK N   1      35.771  13.340  20.633  1.00  0.00     0.172 HD
HETATM   35  O   UNK N   1      35.042  14.589  18.614  0.00  0.00    -0.246 OA
BRANCH  31  36
HETATM   36  N   UNK N   1      36.241  10.829  21.044  0.00  0.00    -0.385 N 
HETATM   37  H   UNK N   1      37.103  10.366  21.152  0.00  0.00     0.157 HD
HETATM   38  H   UNK N   1      35.627  10.867  21.813  0.00  0.00     0.157 HD
ENDBRANCH  31  36
ENDBRANCH  27  28
ENDBRANCH  26  27
BRANCH  26  39
HETATM   39  C   UNK N   1      37.014  13.710  15.543  0.00  0.00     0.197 C 
BRANCH  39  40
HETATM   40  O   UNK N   1      37.182  15.023  15.110  0.00  0.00    -0.398 OA
HETATM   41  H   UNK N   1      36.540  15.424  14.504  0.00  0.00     0.209 HD
ENDBRANCH  39  40
ENDBRANCH  26  39
ENDBRANCH  25  26
ENDBRANCH  24  25
ENDBRANCH   1  24
BRANCH   1  42
HETATM   42  O   UNK N   1      34.281  13.264  12.126  0.00  0.00    -0.328 OA
HETATM   43  H   UNK N   1      33.627  13.101  12.823  0.00  0.00     0.220 HD
ENDBRANCH   1  42
TORSDOF 29
ENDMDL
MODEL 4
REMARK VINA RESULT:      -5.8      5.529     14.285
REMARK  29 active torsions:
REMARK  status: ('A' for Active; 'I' for Inactive)
REMARK    1  A    between atoms: C_2  and  C_3 
REMARK    2  A    between atoms: C_3  and  C_4 
REMARK    3  A    between atoms: C_4  and  C_5 
REMARK    4  A    between atoms: C_5  and  C_6 
REMARK    5  A    between atoms: C_6  and  C_7 
REMARK    6  A    between atoms: C_7  and  C_8 
REMARK    7  A    between atoms: C_8  and  C_9 
REMARK    8  A    between atoms: C_9  and  C_10 
REMARK    9  A    between atoms: C_10  and  C_11 
REMARK   10  A    between atoms: C_11  and  C_12 
REMARK   11  A    between atoms: C_12  and  C_13 
REMARK   12  A    between atoms: C_13  and  C_14 
REMARK   13  A    between atoms: C_14  and  C_15 
REMARK   14  A    between atoms: C_15  and  C_16 
REMARK   15  A    between atoms: C_16  and  O_17 
REMARK   16  A    between atoms: O_17  and  C_18 
REMARK   17  A    between atoms: C_18  and  C_19 
REMARK   18  A    between atoms: C_19  and  C_20 
REMARK   19  A    between atoms: C_20  and  O_21 
REMARK   20  A    between atoms: O_21  and  P_22 
REMARK   21  A    between atoms: P_22  and  C_24 
REMARK   22  A    between atoms: P_22  and  O_39 
REMARK   23  A    between atoms: C_24  and  O_25 
REMARK   24  A    between atoms: C_26  and  O_25 
REMARK   25  A    between atoms: C_26  and  C_27 
REMARK   26  A    between atoms: C_26  and  C_37 
REMARK   27  A    between atoms: C_27  and  N_28 
REMARK   28  A    between atoms: C_31  and  N_36 
REMARK   29  A    between atoms: C_37  and  O_38 
ROOT
HETATM    1  P   UNK N   1      35.309  16.200  11.071  0.00  0.00     0.262 P 
HETATM    2  O   UNK N   1      36.768  16.025  10.571  0.00  0.00    -0.652 OA
ENDROOT
BRANCH   1   3
HETATM    3  O   UNK N   1      34.912  15.752   9.423  0.00  0.00    -0.317 OA
BRANCH   3   4
HETATM    4  C   UNK N   1      33.537  15.917   9.191  0.00  0.00     0.180 C 
BRANCH   4   5
HETATM    5  C   UNK N   1      33.280  17.175   8.343  0.00  0.00     0.053 C 
BRANCH   5   6
HETATM    6  C   UNK N   1      34.259  17.324   7.170  0.00  0.00     0.169 C 
BRANCH   6   7
HETATM    7  O   UNK N   1      33.625  17.878   6.054  0.00  0.00    -0.391 OA
BRANCH   7   8
HETATM    8  C   UNK N   1      33.662  16.904   5.047  0.00  0.00     0.167 C 
BRANCH   8   9
HETATM    9  C   UNK N   1      32.663  17.238   3.940  0.00  0.00     0.026 C 
BRANCH   9  10
HETATM   10  C   UNK N   1      31.327  17.723   4.488  0.00  0.00     0.002 C 
BRANCH  10  11
HETATM   11  C   UNK N   1      30.209  16.764   4.105  0.00  0.00     0.000 C 
BRANCH  11  12
HETATM   12  C   UNK N   1      29.319  16.475   5.295  0.00  0.00     0.000 C 
BRANCH  12  13
HETATM   13  C   UNK N   1      30.066  16.733   6.597  0.00  0.00     0.000 C 
BRANCH  13  14
HETATM   14  C   UNK N   1      29.349  17.752   7.475  0.00  0.00     0.000 C 
BRANCH  14  15
HETATM   15  C   UNK N   1      28.086  18.288   6.813  0.00  0.00     0.000 C 
BRANCH  15  16
HETATM   16  C   UNK N   1      27.803  19.731   7.211  0.00  0.00     0.000 C 
BRANCH  16  17
HETATM   17  C   UNK N   1      27.528  20.590   5.987  0.00  0.00     0.000 C 
BRANCH  17  18
HETATM   18  C   UNK N   1      28.110  19.941   4.749  0.00  0.00     0.000 C 
BRANCH  18  19
HETATM   19  C   UNK N   1      27.060  19.888   3.656  0.00  0.00     0.000 C 
BRANCH  19  20
HETATM   20  C   UNK N   1      25.712  20.302   4.215  0.00  0.00     0.000 C 
BRANCH  20  21
HETATM   21  C   UNK N   1      24.598  19.485   3.579  0.00  0.00    -0.000 C 
BRANCH  21  22
HETATM   22  C   UNK N   1      23.962  18.567   4.608  0.00  0.00    -0.005 C 
HETATM   23  C   UNK N   1      22.861  17.736   3.978  0.00  0.00     0.005 C 
ENDBRANCH  21  22
ENDBRANCH  20  21
ENDBRANCH  19  20
ENDBRANCH  18  19
ENDBRANCH  17  18
ENDBRANCH  16  17
ENDBRANCH  15  16
ENDBRANCH  14  15
ENDBRANCH  13  14
ENDBRANCH  12  13
ENDBRANCH  11  12
ENDBRANCH  10  11
ENDBRANCH   9  10
ENDBRANCH   8   9
ENDBRANCH   7   8
ENDBRANCH   6   7
ENDBRANCH   5   6
ENDBRANCH   4   5
ENDBRANCH   3   4
ENDBRANCH   1   3
BRANCH   1  24
HETATM   24  C   UNK N   1      36.069  14.831  12.086  0.00  0.00     0.293 C 
BRANCH  24  25
HETATM   25  O   UNK N   1      35.116  14.162  12.854  0.00  0.00    -0.371 OA
BRANCH  25  26
HETATM   26  C   UNK N   1      35.836  13.657  13.937  0.00  0.00     0.164 C 
BRANCH  26  27
HETATM   27  C   UNK N   1      34.892  12.890  14.877  0.00  0.00     0.167 C 
BRANCH  27  28
HETATM   28  N   UNK N   1      35.289  11.499  15.064  0.00  0.00    -0.307 N 
HETATM   29  C   UNK N   1      36.257  11.220  15.976  0.00  0.00     0.099 A 
HETATM   30  C   UNK N   1      36.697   9.913  16.156  0.00  0.00     0.065 A 
HETATM   31  C   UNK N   1      36.126   8.900  15.391  0.00  0.00     0.103 A 
HETATM   32  N   UNK N   1      35.147   9.192  14.496  0.00  0.00    -0.295 N 
HETATM   33  C   UNK N   1      34.718  10.481  14.325  0.00  0.00     0.328 A 
ATOM     34  HN  UNK N   1      34.726   8.443  13.946  1.00  0.00     0.172 HD
HETATM   35  O   UNK N   1      33.841  10.722  13.512  0.00  0.00    -0.246 OA
BRANCH  31  36
HETATM   36  N   UNK N   1      36.566   7.571  15.543  0.00  0.00    -0.385 N 
HETATM   37  H   UNK N   1      37.264   7.171  14.975  0.00  0.00     0.157 HD
HETATM   38  H   UNK N   1      36.158   7.018  16.248  0.00  0.00     0.157 HD
ENDBRANCH  31  36
ENDBRANCH  27  28
ENDBRANCH  26  27
BRANCH  26  39
HETATM   39  C   UNK N   1      36.629  14.787  14.583  0.00  0.00     0.197 C 
BRANCH  39  40
HETATM   40  O   UNK N   1      37.607  14.254  15.421  0.00  0.00    -0.398 OA
HETATM   41  H   UNK N   1      37.355  13.794  16.237  0.00  0.00     0.209 HD
ENDBRANCH  39  40
ENDBRANCH  26  39
ENDBRANCH  25  26
ENDBRANCH  24  25
ENDBRANCH   1  24
BRANCH   1  42
HETATM   42  O   UNK N   1      34.662  14.633  11.459  0.00  0.00    -0.328 OA
HETATM   43  H   UNK N   1      34.023  13.911  11.355  0.00  0.00     0.220 HD
ENDBRANCH   1  42
TORSDOF 29
ENDMDL
MODEL 5
REMARK VINA RESULT:      -5.7      1.144      1.899
REMARK  29 active torsions:
REMARK  status: ('A' for Active; 'I' for Inactive)
REMARK    1  A    between atoms: C_2  and  C_3 
REMARK    2  A    between atoms: C_3  and  C_4 
REMARK    3  A    between atoms: C_4  and  C_5 
REMARK    4  A    between atoms: C_5  and  C_6 
REMARK    5  A    between atoms: C_6  and  C_7 
REMARK    6  A    between atoms: C_7  and  C_8 
REMARK    7  A    between atoms: C_8  and  C_9 
REMARK    8  A    between atoms: C_9  and  C_10 
REMARK    9  A    between atoms: C_10  and  C_11 
REMARK   10  A    between atoms: C_11  and  C_12 
REMARK   11  A    between atoms: C_12  and  C_13 
REMARK   12  A    between atoms: C_13  and  C_14 
REMARK   13  A    between atoms: C_14  and  C_15 
REMARK   14  A    between atoms: C_15  and  C_16 
REMARK   15  A    between atoms: C_16  and  O_17 
REMARK   16  A    between atoms: O_17  and  C_18 
REMARK   17  A    between atoms: C_18  and  C_19 
REMARK   18  A    between atoms: C_19  and  C_20 
REMARK   19  A    between atoms: C_20  and  O_21 
REMARK   20  A    between atoms: O_21  and  P_22 
REMARK   21  A    between atoms: P_22  and  C_24 
REMARK   22  A    between atoms: P_22  and  O_39 
REMARK   23  A    between atoms: C_24  and  O_25 
REMARK   24  A    between atoms: C_26  and  O_25 
REMARK   25  A    between atoms: C_26  and  C_27 
REMARK   26  A    between atoms: C_26  and  C_37 
REMARK   27  A    between atoms: C_27  and  N_28 
REMARK   28  A    between atoms: C_31  and  N_36 
REMARK   29  A    between atoms: C_37  and  O_38 
ROOT
HETATM    1  P   UNK N   1      34.059  15.480   9.232  0.00  0.00     0.262 P 
HETATM    2  O   UNK N   1      34.791  16.843   9.365  0.00  0.00    -0.652 OA
ENDROOT
BRANCH   1   3
HETATM    3  O   UNK N   1      34.191  15.476  10.980  0.00  0.00    -0.317 OA
BRANCH   3   4
HETATM    4  C   UNK N   1      35.483  15.863  11.372  0.00  0.00     0.180 C 
BRANCH   4   5
HETATM    5  C   UNK N   1      36.087  14.830  12.338  0.00  0.00     0.053 C 
BRANCH   5   6
HETATM    6  C   UNK N   1      35.201  13.592  12.532  0.00  0.00     0.169 C 
BRANCH   6   7
HETATM    7  O   UNK N   1      34.849  13.430  13.875  0.00  0.00    -0.391 OA
BRANCH   7   8
HETATM    8  C   UNK N   1      36.005  13.682  14.626  0.00  0.00     0.167 C 
BRANCH   8   9
HETATM    9  C   UNK N   1      36.321  12.497  15.538  0.00  0.00     0.026 C 
BRANCH   9  10
HETATM   10  C   UNK N   1      35.248  12.274  16.596  0.00  0.00     0.002 C 
BRANCH  10  11
HETATM   11  C   UNK N   1      35.141  13.481  17.516  0.00  0.00     0.000 C 
BRANCH  11  12
HETATM   12  C   UNK N   1      35.201  13.056  18.968  0.00  0.00     0.000 C 
BRANCH  12  13
HETATM   13  C   UNK N   1      35.124  11.539  19.084  0.00  0.00     0.000 C 
BRANCH  13  14
HETATM   14  C   UNK N   1      36.061  11.001  20.160  0.00  0.00     0.000 C 
BRANCH  14  15
HETATM   15  C   UNK N   1      37.013   9.946  19.613  0.00  0.00     0.000 C 
BRANCH  15  16
HETATM   16  C   UNK N   1      36.471   9.289  18.350  0.00  0.00     0.000 C 
BRANCH  16  17
HETATM   17  C   UNK N   1      36.415   7.777  18.502  0.00  0.00     0.000 C 
BRANCH  17  18
HETATM   18  C   UNK N   1      35.427   7.188  17.518  0.00  0.00     0.000 C 
BRANCH  18  19
HETATM   19  C   UNK N   1      34.613   6.104  18.199  0.00  0.00     0.000 C 
BRANCH  19  20
HETATM   20  C   UNK N   1      34.194   6.564  19.582  0.00  0.00     0.000 C 
BRANCH  20  21
HETATM   21  C   UNK N   1      32.801   7.173  19.542  0.00  0.00    -0.000 C 
BRANCH  21  22
HETATM   22  C   UNK N   1      32.879   8.681  19.710  0.00  0.00    -0.005 C 
HETATM   23  C   UNK N   1      32.058   9.129  20.905  0.00  0.00     0.005 C 
ENDBRANCH  21  22
ENDBRANCH  20  21
ENDBRANCH  19  20
ENDBRANCH  18  19
ENDBRANCH  17  18
ENDBRANCH  16  17
ENDBRANCH  15  16
ENDBRANCH  14  15
ENDBRANCH  13  14
ENDBRANCH  12  13
ENDBRANCH  11  12
ENDBRANCH  10  11
ENDBRANCH   9  10
ENDBRANCH   8   9
ENDBRANCH   7   8
ENDBRANCH   6   7
ENDBRANCH   5   6
ENDBRANCH   4   5
ENDBRANCH   3   4
ENDBRANCH   1   3
BRANCH   1  24
HETATM   24  C   UNK N   1      32.911  16.781   8.544  0.00  0.00     0.293 C 
BRANCH  24  25
HETATM   25  O   UNK N   1      31.652  16.260   8.248  0.00  0.00    -0.371 OA
BRANCH  25  26
HETATM   26  C   UNK N   1      31.222  17.000   7.145  0.00  0.00     0.164 C 
BRANCH  26  27
HETATM   27  C   UNK N   1      29.771  16.625   6.802  0.00  0.00     0.167 C 
BRANCH  27  28
HETATM   28  N   UNK N   1      28.849  17.747   6.940  0.00  0.00    -0.307 N 
HETATM   29  C   UNK N   1      28.549  18.477   5.834  0.00  0.00     0.099 A 
HETATM   30  C   UNK N   1      27.709  19.582   5.927  0.00  0.00     0.065 A 
HETATM   31  C   UNK N   1      27.181  19.921   7.170  0.00  0.00     0.103 A 
HETATM   32  N   UNK N   1      27.477  19.171   8.263  0.00  0.00    -0.295 N 
HETATM   33  C   UNK N   1      28.303  18.085   8.163  0.00  0.00     0.328 A 
ATOM     34  HN  UNK N   1      27.078  19.421   9.169  1.00  0.00     0.172 HD
HETATM   35  O   UNK N   1      28.560  17.428   9.159  0.00  0.00    -0.246 OA
BRANCH  31  36
HETATM   36  N   UNK N   1      26.342  21.044   7.294  0.00  0.00    -0.385 N 
HETATM   37  H   UNK N   1      26.365  21.646   8.073  0.00  0.00     0.157 HD
HETATM   38  H   UNK N   1      25.703  21.238   6.570  0.00  0.00     0.157 HD
ENDBRANCH  31  36
ENDBRANCH  27  28
ENDBRANCH  26  27
BRANCH  26  39
HETATM   39  C   UNK N   1      32.227  16.841   6.011  0.00  0.00     0.197 C 
BRANCH  39  40
HETATM   40  O   UNK N   1      31.805  17.573   4.904  0.00  0.00    -0.398 OA
HETATM   41  H   UNK N   1      32.103  17.329   4.013  0.00  0.00     0.209 HD
ENDBRANCH  39  40
ENDBRANCH  26  39
ENDBRANCH  25  26
ENDBRANCH  24  25
ENDBRANCH   1  24
BRANCH   1  42
HETATM   42  O   UNK N   1      32.365  15.726   9.544  0.00  0.00    -0.328 OA
HETATM   43  H   UNK N   1      31.544  15.568  10.035  0.00  0.00     0.220 HD
ENDBRANCH   1  42
TORSDOF 29
ENDMDL
MODEL 6
REMARK VINA RESULT:      -5.7     10.668     14.703
REMARK  29 active torsions:
REMARK  status: ('A' for Active; 'I' for Inactive)
REMARK    1  A    between atoms: C_2  and  C_3 
REMARK    2  A    between atoms: C_3  and  C_4 
REMARK    3  A    between atoms: C_4  and  C_5 
REMARK    4  A    between atoms: C_5  and  C_6 
REMARK    5  A    between atoms: C_6  and  C_7 
REMARK    6  A    between atoms: C_7  and  C_8 
REMARK    7  A    between atoms: C_8  and  C_9 
REMARK    8  A    between atoms: C_9  and  C_10 
REMARK    9  A    between atoms: C_10  and  C_11 
REMARK   10  A    between atoms: C_11  and  C_12 
REMARK   11  A    between atoms: C_12  and  C_13 
REMARK   12  A    between atoms: C_13  and  C_14 
REMARK   13  A    between atoms: C_14  and  C_15 
REMARK   14  A    between atoms: C_15  and  C_16 
REMARK   15  A    between atoms: C_16  and  O_17 
REMARK   16  A    between atoms: O_17  and  C_18 
REMARK   17  A    between atoms: C_18  and  C_19 
REMARK   18  A    between atoms: C_19  and  C_20 
REMARK   19  A    between atoms: C_20  and  O_21 
REMARK   20  A    between atoms: O_21  and  P_22 
REMARK   21  A    between atoms: P_22  and  C_24 
REMARK   22  A    between atoms: P_22  and  O_39 
REMARK   23  A    between atoms: C_24  and  O_25 
REMARK   24  A    between atoms: C_26  and  O_25 
REMARK   25  A    between atoms: C_26  and  C_27 
REMARK   26  A    between atoms: C_26  and  C_37 
REMARK   27  A    between atoms: C_27  and  N_28 
REMARK   28  A    between atoms: C_31  and  N_36 
REMARK   29  A    between atoms: C_37  and  O_38 
ROOT
HETATM    1  P   UNK N   1      21.135  16.280   3.556  0.00  0.00     0.262 P 
HETATM    2  O   UNK N   1      20.641  17.045   4.814  0.00  0.00    -0.652 OA
ENDROOT
BRANCH   1   3
HETATM    3  O   UNK N   1      21.467  17.895   2.961  0.00  0.00    -0.317 OA
BRANCH   3   4
HETATM    4  C   UNK N   1      20.602  18.823   3.565  0.00  0.00     0.180 C 
BRANCH   4   5
HETATM    5  C   UNK N   1      21.074  20.261   3.287  0.00  0.00     0.053 C 
BRANCH   5   6
HETATM    6  C   UNK N   1      22.326  20.327   2.401  0.00  0.00     0.169 C 
BRANCH   6   7
HETATM    7  O   UNK N   1      23.365  21.003   3.047  0.00  0.00    -0.391 OA
BRANCH   7   8
HETATM    8  C   UNK N   1      24.198  20.022   3.602  0.00  0.00     0.167 C 
BRANCH   8   9
HETATM    9  C   UNK N   1      25.667  20.395   3.411  0.00  0.00     0.026 C 
BRANCH   9  10
HETATM   10  C   UNK N   1      26.606  19.226   3.683  0.00  0.00     0.002 C 
BRANCH  10  11
HETATM   11  C   UNK N   1      27.856  19.699   4.411  0.00  0.00     0.000 C 
BRANCH  11  12
HETATM   12  C   UNK N   1      28.310  18.668   5.422  0.00  0.00     0.000 C 
BRANCH  12  13
HETATM   13  C   UNK N   1      27.958  19.114   6.835  0.00  0.00     0.000 C 
BRANCH  13  14
HETATM   14  C   UNK N   1      28.156  17.996   7.852  0.00  0.00     0.000 C 
BRANCH  14  15
HETATM   15  C   UNK N   1      28.840  18.491   9.120  0.00  0.00     0.000 C 
BRANCH  15  16
HETATM   16  C   UNK N   1      30.358  18.430   9.008  0.00  0.00     0.000 C 
BRANCH  16  17
HETATM   17  C   UNK N   1      30.804  17.147   8.325  0.00  0.00     0.000 C 
BRANCH  17  18
HETATM   18  C   UNK N   1      31.892  17.442   7.315  0.00  0.00     0.000 C 
BRANCH  18  19
HETATM   19  C   UNK N   1      31.576  16.745   6.005  0.00  0.00     0.000 C 
BRANCH  19  20
HETATM   20  C   UNK N   1      32.274  17.455   4.860  0.00  0.00     0.000 C 
BRANCH  20  21
HETATM   21  C   UNK N   1      31.755  16.949   3.524  0.00  0.00    -0.000 C 
BRANCH  21  22
HETATM   22  C   UNK N   1      30.552  16.045   3.732  0.00  0.00    -0.005 C 
HETATM   23  C   UNK N   1      29.436  16.408   2.770  0.00  0.00     0.005 C 
ENDBRANCH  21  22
ENDBRANCH  20  21
ENDBRANCH  19  20
ENDBRANCH  18  19
ENDBRANCH  17  18
ENDBRANCH  16  17
ENDBRANCH  15  16
ENDBRANCH  14  15
ENDBRANCH  13  14
ENDBRANCH  12  13
ENDBRANCH  11  12
ENDBRANCH  10  11
ENDBRANCH   9  10
ENDBRANCH   8   9
ENDBRANCH   7   8
ENDBRANCH   6   7
ENDBRANCH   5   6
ENDBRANCH   4   5
ENDBRANCH   3   4
ENDBRANCH   1   3
BRANCH   1  24
HETATM   24  C   UNK N   1      22.216  15.740   4.978  0.00  0.00     0.293 C 
BRANCH  24  25
HETATM   25  O   UNK N   1      21.981  14.413   5.336  0.00  0.00    -0.371 OA
BRANCH  25  26
HETATM   26  C   UNK N   1      22.301  14.358   6.693  0.00  0.00     0.164 C 
BRANCH  26  27
HETATM   27  C   UNK N   1      22.023  12.947   7.236  0.00  0.00     0.167 C 
BRANCH  27  28
HETATM   28  N   UNK N   1      22.451  12.779   8.620  0.00  0.00    -0.307 N 
HETATM   29  C   UNK N   1      23.771  12.571   8.869  0.00  0.00     0.099 A 
HETATM   30  C   UNK N   1      24.217  12.362  10.170  0.00  0.00     0.065 A 
HETATM   31  C   UNK N   1      23.290  12.375  11.208  0.00  0.00     0.103 A 
HETATM   32  N   UNK N   1      21.976  12.602  10.945  0.00  0.00    -0.295 N 
HETATM   33  C   UNK N   1      21.545  12.807   9.663  0.00  0.00     0.328 A 
ATOM     34  HN  UNK N   1      21.304  12.619  11.713  1.00  0.00     0.172 HD
HETATM   35  O   UNK N   1      20.360  13.004   9.449  0.00  0.00    -0.246 OA
BRANCH  31  36
HETATM   36  N   UNK N   1      23.713  12.150  12.531  0.00  0.00    -0.385 N 
HETATM   37  H   UNK N   1      24.249  11.367  12.795  0.00  0.00     0.157 HD
HETATM   38  H   UNK N   1      23.464  12.804  13.224  0.00  0.00     0.157 HD
ENDBRANCH  31  36
ENDBRANCH  27  28
ENDBRANCH  26  27
BRANCH  26  39
HETATM   39  C   UNK N   1      21.594  15.493   7.423  0.00  0.00     0.197 C 
BRANCH  39  40
HETATM   40  O   UNK N   1      20.220  15.262   7.430  0.00  0.00    -0.398 OA
HETATM   41  H   UNK N   1      19.608  15.957   7.720  0.00  0.00     0.209 HD
ENDBRANCH  39  40
ENDBRANCH  26  39
ENDBRANCH  25  26
ENDBRANCH  24  25
ENDBRANCH   1  24
BRANCH   1  42
HETATM   42  O   UNK N   1      22.868  16.149   3.630  0.00  0.00    -0.328 OA
HETATM   43  H   UNK N   1      23.768  16.464   3.452  0.00  0.00     0.220 HD
ENDBRANCH   1  42
TORSDOF 29
ENDMDL
MODEL 7
REMARK VINA RESULT:      -5.7      3.096      5.207
REMARK  29 active torsions:
REMARK  status: ('A' for Active; 'I' for Inactive)
REMARK    1  A    between atoms: C_2  and  C_3 
REMARK    2  A    between atoms: C_3  and  C_4 
REMARK    3  A    between atoms: C_4  and  C_5 
REMARK    4  A    between atoms: C_5  and  C_6 
REMARK    5  A    between atoms: C_6  and  C_7 
REMARK    6  A    between atoms: C_7  and  C_8 
REMARK    7  A    between atoms: C_8  and  C_9 
REMARK    8  A    between atoms: C_9  and  C_10 
REMARK    9  A    between atoms: C_10  and  C_11 
REMARK   10  A    between atoms: C_11  and  C_12 
REMARK   11  A    between atoms: C_12  and  C_13 
REMARK   12  A    between atoms: C_13  and  C_14 
REMARK   13  A    between atoms: C_14  and  C_15 
REMARK   14  A    between atoms: C_15  and  C_16 
REMARK   15  A    between atoms: C_16  and  O_17 
REMARK   16  A    between atoms: O_17  and  C_18 
REMARK   17  A    between atoms: C_18  and  C_19 
REMARK   18  A    between atoms: C_19  and  C_20 
REMARK   19  A    between atoms: C_20  and  O_21 
REMARK   20  A    between atoms: O_21  and  P_22 
REMARK   21  A    between atoms: P_22  and  C_24 
REMARK   22  A    between atoms: P_22  and  O_39 
REMARK   23  A    between atoms: C_24  and  O_25 
REMARK   24  A    between atoms: C_26  and  O_25 
REMARK   25  A    between atoms: C_26  and  C_27 
REMARK   26  A    between atoms: C_26  and  C_37 
REMARK   27  A    between atoms: C_27  and  N_28 
REMARK   28  A    between atoms: C_31  and  N_36 
REMARK   29  A    between atoms: C_37  and  O_38 
ROOT
HETATM    1  P   UNK N   1      35.275  10.736  10.944  0.00  0.00     0.262 P 
HETATM    2  O   UNK N   1      36.491  10.652  11.906  0.00  0.00    -0.652 OA
ENDROOT
BRANCH   1   3
HETATM    3  O   UNK N   1      34.441   9.940  12.264  0.00  0.00    -0.317 OA
BRANCH   3   4
HETATM    4  C   UNK N   1      35.361   9.526  13.241  0.00  0.00     0.180 C 
BRANCH   4   5
HETATM    5  C   UNK N   1      34.825   9.832  14.651  0.00  0.00     0.053 C 
BRANCH   5   6
HETATM    6  C   UNK N   1      33.675  10.848  14.655  0.00  0.00     0.169 C 
BRANCH   6   7
HETATM    7  O   UNK N   1      34.142  12.136  14.379  0.00  0.00    -0.391 OA
BRANCH   7   8
HETATM    8  C   UNK N   1      35.084  12.443  15.369  0.00  0.00     0.167 C 
BRANCH   8   9
HETATM    9  C   UNK N   1      34.502  13.435  16.376  0.00  0.00     0.026 C 
BRANCH   9  10
HETATM   10  C   UNK N   1      35.065  13.239  17.778  0.00  0.00     0.002 C 
BRANCH  10  11
HETATM   11  C   UNK N   1      35.369  11.770  18.035  0.00  0.00     0.000 C 
BRANCH  11  12
HETATM   12  C   UNK N   1      35.387  11.478  19.520  0.00  0.00     0.000 C 
BRANCH  12  13
HETATM   13  C   UNK N   1      36.212  10.231  19.810  0.00  0.00     0.000 C 
BRANCH  13  14
HETATM   14  C   UNK N   1      35.640   8.996  19.122  0.00  0.00     0.000 C 
BRANCH  14  15
HETATM   15  C   UNK N   1      34.155   8.817  19.411  0.00  0.00     0.000 C 
BRANCH  15  16
HETATM   16  C   UNK N   1      33.897   8.478  20.874  0.00  0.00     0.000 C 
BRANCH  16  17
HETATM   17  C   UNK N   1      32.447   8.741  21.246  0.00  0.00     0.000 C 
BRANCH  17  18
HETATM   18  C   UNK N   1      31.569   8.677  20.015  0.00  0.00     0.000 C 
BRANCH  18  19
HETATM   19  C   UNK N   1      30.488   7.631  20.211  0.00  0.00     0.000 C 
BRANCH  19  20
HETATM   20  C   UNK N   1      31.119   6.262  20.388  0.00  0.00     0.000 C 
BRANCH  20  21
HETATM   21  C   UNK N   1      31.767   5.803  19.091  0.00  0.00    -0.000 C 
BRANCH  21  22
HETATM   22  C   UNK N   1      32.117   4.327  19.169  0.00  0.00    -0.005 C 
HETATM   23  C   UNK N   1      30.906   3.471  18.849  0.00  0.00     0.005 C 
ENDBRANCH  21  22
ENDBRANCH  20  21
ENDBRANCH  19  20
ENDBRANCH  18  19
ENDBRANCH  17  18
ENDBRANCH  16  17
ENDBRANCH  15  16
ENDBRANCH  14  15
ENDBRANCH  13  14
ENDBRANCH  12  13
ENDBRANCH  11  12
ENDBRANCH  10  11
ENDBRANCH   9  10
ENDBRANCH   8   9
ENDBRANCH   7   8
ENDBRANCH   6   7
ENDBRANCH   5   6
ENDBRANCH   4   5
ENDBRANCH   3   4
ENDBRANCH   1   3
BRANCH   1  24
HETATM   24  C   UNK N   1      35.804  12.489  11.305  0.00  0.00     0.293 C 
BRANCH  24  25
HETATM   25  O   UNK N   1      36.092  13.197  10.138  0.00  0.00    -0.371 OA
BRANCH  25  26
HETATM   26  C   UNK N   1      35.449  14.424  10.309  0.00  0.00     0.164 C 
BRANCH  26  27
HETATM   27  C   UNK N   1      35.311  15.132   8.952  0.00  0.00     0.167 C 
BRANCH  27  28
HETATM   28  N   UNK N   1      34.059  15.869   8.824  0.00  0.00    -0.307 N 
HETATM   29  C   UNK N   1      32.920  15.170   8.575  0.00  0.00     0.099 A 
HETATM   30  C   UNK N   1      31.711  15.836   8.402  0.00  0.00     0.065 A 
HETATM   31  C   UNK N   1      31.690  17.225   8.492  0.00  0.00     0.103 A 
HETATM   32  N   UNK N   1      32.833  17.908   8.758  0.00  0.00    -0.295 N 
HETATM   33  C   UNK N   1      34.019  17.246   8.929  0.00  0.00     0.328 A 
ATOM     34  HN  UNK N   1      32.808  18.925   8.832  1.00  0.00     0.172 HD
HETATM   35  O   UNK N   1      35.036  17.879   9.162  0.00  0.00    -0.246 OA
BRANCH  31  36
HETATM   36  N   UNK N   1      30.482  17.923   8.304  0.00  0.00    -0.385 N 
HETATM   37  H   UNK N   1      29.873  18.147   9.044  0.00  0.00     0.157 HD
HETATM   38  H   UNK N   1      30.235  18.199   7.392  0.00  0.00     0.157 HD
ENDBRANCH  31  36
ENDBRANCH  27  28
ENDBRANCH  26  27
BRANCH  26  39
HETATM   39  C   UNK N   1      36.165  15.218  11.394  0.00  0.00     0.197 C 
BRANCH  39  40
HETATM   40  O   UNK N   1      36.918  16.236  10.812  0.00  0.00    -0.398 OA
HETATM   41  H   UNK N   1      37.883  16.155  10.748  0.00  0.00     0.209 HD
ENDBRANCH  39  40
ENDBRANCH  26  39
ENDBRANCH  25  26
ENDBRANCH  24  25
ENDBRANCH   1  24
BRANCH   1  42
HETATM   42  O   UNK N   1      34.302  12.105  11.397  0.00  0.00    -0.328 OA
HETATM   43  H   UNK N   1      34.174  12.984  11.785  0.00  0.00     0.220 HD
ENDBRANCH   1  42
TORSDOF 29
ENDMDL
MODEL 8
REMARK VINA RESULT:      -5.7      2.591      4.386
REMARK  29 active torsions:
REMARK  status: ('A' for Active; 'I' for Inactive)
REMARK    1  A    between atoms: C_2  and  C_3 
REMARK    2  A    between atoms: C_3  and  C_4 
REMARK    3  A    between atoms: C_4  and  C_5 
REMARK    4  A    between atoms: C_5  and  C_6 
REMARK    5  A    between atoms: C_6  and  C_7 
REMARK    6  A    between atoms: C_7  and  C_8 
REMARK    7  A    between atoms: C_8  and  C_9 
REMARK    8  A    between atoms: C_9  and  C_10 
REMARK    9  A    between atoms: C_10  and  C_11 
REMARK   10  A    between atoms: C_11  and  C_12 
REMARK   11  A    between atoms: C_12  and  C_13 
REMARK   12  A    between atoms: C_13  and  C_14 
REMARK   13  A    between atoms: C_14  and  C_15 
REMARK   14  A    between atoms: C_15  and  C_16 
REMARK   15  A    between atoms: C_16  and  O_17 
REMARK   16  A    between atoms: O_17  and  C_18 
REMARK   17  A    between atoms: C_18  and  C_19 
REMARK   18  A    between atoms: C_19  and  C_20 
REMARK   19  A    between atoms: C_20  and  O_21 
REMARK   20  A    between atoms: O_21  and  P_22 
REMARK   21  A    between atoms: P_22  and  C_24 
REMARK   22  A    between atoms: P_22  and  O_39 
REMARK   23  A    between atoms: C_24  and  O_25 
REMARK   24  A    between atoms: C_26  and  O_25 
REMARK   25  A    between atoms: C_26  and  C_27 
REMARK   26  A    between atoms: C_26  and  C_37 
REMARK   27  A    between atoms: C_27  and  N_28 
REMARK   28  A    between atoms: C_31  and  N_36 
REMARK   29  A    between atoms: C_37  and  O_38 
ROOT
HETATM    1  P   UNK N   1      34.833  14.815  10.203  0.00  0.00     0.262 P 
HETATM    2  O   UNK N   1      34.859  16.236  10.830  0.00  0.00    -0.652 OA
ENDROOT
BRANCH   1   3
HETATM    3  O   UNK N   1      34.433  14.329  11.839  0.00  0.00    -0.317 OA
BRANCH   3   4
HETATM    4  C   UNK N   1      35.070  13.118  12.157  0.00  0.00     0.180 C 
BRANCH   4   5
HETATM    5  C   UNK N   1      36.446  13.383  12.794  0.00  0.00     0.053 C 
BRANCH   5   6
HETATM    6  C   UNK N   1      36.369  14.233  14.070  0.00  0.00     0.169 C 
BRANCH   6   7
HETATM    7  O   UNK N   1      35.340  13.792  14.906  0.00  0.00    -0.391 OA
BRANCH   7   8
HETATM    8  C   UNK N   1      35.902  13.619  16.179  0.00  0.00     0.167 C 
BRANCH   8   9
HETATM    9  C   UNK N   1      34.869  13.048  17.149  0.00  0.00     0.026 C 
BRANCH   9  10
HETATM   10  C   UNK N   1      35.030  13.596  18.561  0.00  0.00     0.002 C 
BRANCH  10  11
HETATM   11  C   UNK N   1      35.629  12.543  19.481  0.00  0.00     0.000 C 
BRANCH  11  12
HETATM   12  C   UNK N   1      35.239  11.151  19.028  0.00  0.00     0.000 C 
BRANCH  12  13
HETATM   13  C   UNK N   1      36.306  10.141  19.429  0.00  0.00     0.000 C 
BRANCH  13  14
HETATM   14  C   UNK N   1      36.175   8.835  18.653  0.00  0.00     0.000 C 
BRANCH  14  15
HETATM   15  C   UNK N   1      37.530   8.291  18.218  0.00  0.00     0.000 C 
BRANCH  15  16
HETATM   16  C   UNK N   1      37.397   7.243  17.120  0.00  0.00     0.000 C 
BRANCH  16  17
HETATM   17  C   UNK N   1      38.713   7.055  16.383  0.00  0.00     0.000 C 
BRANCH  17  18
HETATM   18  C   UNK N   1      38.872   8.116  15.315  0.00  0.00     0.000 C 
BRANCH  18  19
HETATM   19  C   UNK N   1      37.586   8.238  14.519  0.00  0.00     0.000 C 
BRANCH  19  20
HETATM   20  C   UNK N   1      37.363   9.683  14.114  0.00  0.00     0.000 C 
BRANCH  20  21
HETATM   21  C   UNK N   1      36.521  10.403  15.155  0.00  0.00    -0.000 C 
BRANCH  21  22
HETATM   22  C   UNK N   1      35.166   9.733  15.296  0.00  0.00    -0.005 C 
HETATM   23  C   UNK N   1      34.112  10.484  14.504  0.00  0.00     0.005 C 
ENDBRANCH  21  22
ENDBRANCH  20  21
ENDBRANCH  19  20
ENDBRANCH  18  19
ENDBRANCH  17  18
ENDBRANCH  16  17
ENDBRANCH  15  16
ENDBRANCH  14  15
ENDBRANCH  13  14
ENDBRANCH  12  13
ENDBRANCH  11  12
ENDBRANCH  10  11
ENDBRANCH   9  10
ENDBRANCH   8   9
ENDBRANCH   7   8
ENDBRANCH   6   7
ENDBRANCH   5   6
ENDBRANCH   4   5
ENDBRANCH   3   4
ENDBRANCH   1   3
BRANCH   1  24
HETATM   24  C   UNK N   1      33.509  15.811   9.344  0.00  0.00     0.293 C 
BRANCH  24  25
HETATM   25  O   UNK N   1      33.635  15.756   7.956  0.00  0.00    -0.371 OA
BRANCH  25  26
HETATM   26  C   UNK N   1      32.799  16.772   7.492  0.00  0.00     0.164 C 
BRANCH  26  27
HETATM   27  C   UNK N   1      31.414  16.194   7.158  0.00  0.00     0.167 C 
BRANCH  27  28
HETATM   28  N   UNK N   1      30.334  17.149   7.381  0.00  0.00    -0.307 N 
HETATM   29  C   UNK N   1      30.173  17.662   8.629  0.00  0.00     0.099 A 
HETATM   30  C   UNK N   1      29.129  18.542   8.898  0.00  0.00     0.065 A 
HETATM   31  C   UNK N   1      28.261  18.889   7.867  0.00  0.00     0.103 A 
HETATM   32  N   UNK N   1      28.446  18.381   6.620  0.00  0.00    -0.295 N 
HETATM   33  C   UNK N   1      29.476  17.516   6.364  0.00  0.00     0.328 A 
ATOM     34  HN  UNK N   1      27.811  18.647   5.868  1.00  0.00     0.172 HD
HETATM   35  O   UNK N   1      29.620  17.068   5.238  0.00  0.00    -0.246 OA
BRANCH  31  36
HETATM   36  N   UNK N   1      27.187  19.764   8.117  0.00  0.00    -0.385 N 
HETATM   37  H   UNK N   1      26.255  19.457   8.200  0.00  0.00     0.157 HD
HETATM   38  H   UNK N   1      27.376  20.725   8.213  0.00  0.00     0.157 HD
ENDBRANCH  31  36
ENDBRANCH  27  28
ENDBRANCH  26  27
BRANCH  26  39
HETATM   39  C   UNK N   1      33.493  17.512   6.355  0.00  0.00     0.197 C 
BRANCH  39  40
HETATM   40  O   UNK N   1      34.724  17.995   6.792  0.00  0.00    -0.398 OA
HETATM   41  H   UNK N   1      35.471  18.058   6.176  0.00  0.00     0.209 HD
ENDBRANCH  39  40
ENDBRANCH  26  39
ENDBRANCH  25  26
ENDBRANCH  24  25
ENDBRANCH   1  24
BRANCH   1  42
HETATM   42  O   UNK N   1      33.181  14.386   9.867  0.00  0.00    -0.328 OA
HETATM   43  H   UNK N   1      32.302  14.557   9.496  0.00  0.00     0.220 HD
ENDBRANCH   1  42
TORSDOF 29
ENDMDL
MODEL 9
REMARK VINA RESULT:      -5.7      1.497      2.568
REMARK  29 active torsions:
REMARK  status: ('A' for Active; 'I' for Inactive)
REMARK    1  A    between atoms: C_2  and  C_3 
REMARK    2  A    between atoms: C_3  and  C_4 
REMARK    3  A    between atoms: C_4  and  C_5 
REMARK    4  A    between atoms: C_5  and  C_6 
REMARK    5  A    between atoms: C_6  and  C_7 
REMARK    6  A    between atoms: C_7  and  C_8 
REMARK    7  A    between atoms: C_8  and  C_9 
REMARK    8  A    between atoms: C_9  and  C_10 
REMARK    9  A    between atoms: C_10  and  C_11 
REMARK   10  A    between atoms: C_11  and  C_12 
REMARK   11  A    between atoms: C_12  and  C_13 
REMARK   12  A    between atoms: C_13  and  C_14 
REMARK   13  A    between atoms: C_14  and  C_15 
REMARK   14  A    between atoms: C_15  and  C_16 
REMARK   15  A    between atoms: C_16  and  O_17 
REMARK   16  A    between atoms: O_17  and  C_18 
REMARK   17  A    between atoms: C_18  and  C_19 
REMARK   18  A    between atoms: C_19  and  C_20 
REMARK   19  A    between atoms: C_20  and  O_21 
REMARK   20  A    between atoms: O_21  and  P_22 
REMARK   21  A    between atoms: P_22  and  C_24 
REMARK   22  A    between atoms: P_22  and  O_39 
REMARK   23  A    between atoms: C_24  and  O_25 
REMARK   24  A    between atoms: C_26  and  O_25 
REMARK   25  A    between atoms: C_26  and  C_27 
REMARK   26  A    between atoms: C_26  and  C_37 
REMARK   27  A    between atoms: C_27  and  N_28 
REMARK   28  A    between atoms: C_31  and  N_36 
REMARK   29  A    between atoms: C_37  and  O_38 
ROOT
HETATM    1  P   UNK N   1      34.071  16.037   8.311  0.00  0.00     0.262 P 
HETATM    2  O   UNK N   1      34.754  16.809   7.149  0.00  0.00    -0.652 OA
ENDROOT
BRANCH   1   3
HETATM    3  O   UNK N   1      35.237  16.902   9.293  0.00  0.00    -0.317 OA
BRANCH   3   4
HETATM    4  C   UNK N   1      35.182  16.453  10.623  0.00  0.00     0.180 C 
BRANCH   4   5
HETATM    5  C   UNK N   1      35.299  14.920  10.679  0.00  0.00     0.053 C 
BRANCH   5   6
HETATM    6  C   UNK N   1      35.962  14.410  11.966  0.00  0.00     0.169 C 
BRANCH   6   7
HETATM    7  O   UNK N   1      35.004  14.014  12.903  0.00  0.00    -0.391 OA
BRANCH   7   8
HETATM    8  C   UNK N   1      35.689  13.774  14.102  0.00  0.00     0.167 C 
BRANCH   8   9
HETATM    9  C   UNK N   1      35.773  12.274  14.380  0.00  0.00     0.026 C 
BRANCH   9  10
HETATM   10  C   UNK N   1      34.488  11.541  14.017  0.00  0.00     0.002 C 
BRANCH  10  11
HETATM   11  C   UNK N   1      34.737  10.044  13.906  0.00  0.00     0.000 C 
BRANCH  11  12
HETATM   12  C   UNK N   1      35.903   9.628  14.778  0.00  0.00     0.000 C 
BRANCH  12  13
HETATM   13  C   UNK N   1      35.443   8.660  15.860  0.00  0.00     0.000 C 
BRANCH  13  14
HETATM   14  C   UNK N   1      34.873   9.387  17.072  0.00  0.00     0.000 C 
BRANCH  14  15
HETATM   15  C   UNK N   1      35.899  10.306  17.723  0.00  0.00     0.000 C 
BRANCH  15  16
HETATM   16  C   UNK N   1      35.320  11.682  18.027  0.00  0.00     0.000 C 
BRANCH  16  17
HETATM   17  C   UNK N   1      35.376  11.980  19.516  0.00  0.00     0.000 C 
BRANCH  17  18
HETATM   18  C   UNK N   1      35.221  10.702  20.313  0.00  0.00     0.000 C 
BRANCH  18  19
HETATM   19  C   UNK N   1      33.932  10.751  21.111  0.00  0.00     0.000 C 
BRANCH  19  20
HETATM   20  C   UNK N   1      33.445   9.341  21.392  0.00  0.00     0.000 C 
BRANCH  20  21
HETATM   21  C   UNK N   1      33.782   8.420  20.230  0.00  0.00    -0.000 C 
BRANCH  21  22
HETATM   22  C   UNK N   1      32.523   7.756  19.701  0.00  0.00    -0.005 C 
HETATM   23  C   UNK N   1      31.288   8.524  20.135  0.00  0.00     0.005 C 
ENDBRANCH  21  22
ENDBRANCH  20  21
ENDBRANCH  19  20
ENDBRANCH  18  19
ENDBRANCH  17  18
ENDBRANCH  16  17
ENDBRANCH  15  16
ENDBRANCH  14  15
ENDBRANCH  13  14
ENDBRANCH  12  13
ENDBRANCH  11  12
ENDBRANCH  10  11
ENDBRANCH   9  10
ENDBRANCH   8   9
ENDBRANCH   7   8
ENDBRANCH   6   7
ENDBRANCH   5   6
ENDBRANCH   4   5
ENDBRANCH   3   4
ENDBRANCH   1   3
BRANCH   1  24
HETATM   24  C   UNK N   1      32.762  17.115   7.531  0.00  0.00     0.293 C 
BRANCH  24  25
HETATM   25  O   UNK N   1      31.633  16.382   7.167  0.00  0.00    -0.371 OA
BRANCH  25  26
HETATM   26  C   UNK N   1      31.052  17.127   6.141  0.00  0.00     0.164 C 
BRANCH  26  27
HETATM   27  C   UNK N   1      29.550  16.811   6.055  0.00  0.00     0.167 C 
BRANCH  27  28
HETATM   28  N   UNK N   1      28.713  17.997   6.198  0.00  0.00    -0.307 N 
HETATM   29  C   UNK N   1      28.491  18.767   5.100  0.00  0.00     0.099 A 
HETATM   30  C   UNK N   1      27.735  19.930   5.200  0.00  0.00     0.065 A 
HETATM   31  C   UNK N   1      27.210  20.287   6.439  0.00  0.00     0.103 A 
HETATM   32  N   UNK N   1      27.426  19.497   7.523  0.00  0.00    -0.295 N 
HETATM   33  C   UNK N   1      28.170  18.353   7.417  0.00  0.00     0.328 A 
ATOM     34  HN  UNK N   1      27.030  19.761   8.425  1.00  0.00     0.172 HD
HETATM   35  O   UNK N   1      28.357  17.662   8.405  0.00  0.00    -0.246 OA
BRANCH  31  36
HETATM   36  N   UNK N   1      26.456  21.468   6.569  0.00  0.00    -0.385 N 
HETATM   37  H   UNK N   1      26.654  22.157   7.244  0.00  0.00     0.157 HD
HETATM   38  H   UNK N   1      25.697  21.613   5.958  0.00  0.00     0.157 HD
ENDBRANCH  31  36
ENDBRANCH  27  28
ENDBRANCH  26  27
BRANCH  26  39
HETATM   39  C   UNK N   1      31.842  16.913   4.856  0.00  0.00     0.197 C 
BRANCH  39  40
HETATM   40  O   UNK N   1      31.660  18.002   4.006  0.00  0.00    -0.398 OA
HETATM   41  H   UNK N   1      31.257  17.879   3.132  0.00  0.00     0.209 HD
ENDBRANCH  39  40
ENDBRANCH  26  39
ENDBRANCH  25  26
ENDBRANCH  24  25
ENDBRANCH   1  24
BRANCH   1  42
HETATM   42  O   UNK N   1      32.918  17.091   9.076  0.00  0.00    -0.328 OA
HETATM   43  H   UNK N   1      32.635  17.943   9.442  0.00  0.00     0.220 HD
ENDBRANCH   1  42
TORSDOF 29
ENDMDL
