MODEL 1
REMARK VINA RESULT:      -9.2      0.000      0.000
REMARK  7 active torsions:
REMARK  status: ('A' for Active; 'I' for Inactive)
REMARK    1  A    between atoms: C_2  and  C_5 
REMARK    2  A    between atoms: C_5  and  C_7 
REMARK    3  A    between atoms: C_7  and  N_8 
REMARK    4  A    between atoms: C_15  and  C_33 
REMARK    5  A    between atoms: C_18  and  N_21 
REMARK       I    between atoms: N_21  and  C_22 
REMARK       I    between atoms: C_22  and  N_24 
REMARK    6  A    between atoms: N_24  and  C_25 
REMARK    7  A    between atoms: C_29  and  N_31 
ROOT
HETATM    1  N   UNK N   1      20.949  16.516   3.475  0.00  0.00    -0.307 N 
HETATM    2  C   UNK N   1      21.238  17.904   3.168  0.00  0.00     0.050 A 
HETATM    3  C   UNK N   1      20.287  18.579   2.367  0.00  0.00     0.031 A 
HETATM    4  C   UNK N   1      20.463  19.879   1.917  0.00  0.00     0.002 A 
HETATM    5  C   UNK N   1      21.611  20.564   2.249  0.00  0.00     0.001 A 
HETATM    6  C   UNK N   1      22.570  19.947   3.036  0.00  0.00     0.016 A 
HETATM    7  C   UNK N   1      22.445  18.628   3.521  0.00  0.00     0.020 A 
HETATM    8  C   UNK N   1      23.625  18.135   4.342  0.00  0.00     0.069 C 
HETATM    9  N   UNK N   1      23.578  17.110   5.110  0.00  0.00    -0.358 N 
ATOM     10  HN  UNK N   1      24.469  16.810   5.504  1.00  0.00     0.162 HD
HETATM   11  C   UNK N   1      22.442  16.336   5.484  0.00  0.00     0.280 C 
HETATM   12  C   UNK N   1      21.570  15.770   4.435  0.00  0.00     0.267 C 
HETATM   13  O   UNK N   1      21.304  14.580   4.539  0.00  0.00    -0.269 OA
ENDROOT
BRANCH  11  14
HETATM   14  N   UNK N   1      21.721  16.937   6.585  0.00  0.00    -0.313 N 
HETATM   15  C   UNK N   1      21.466  16.229   7.716  0.00  0.00     0.322 C 
HETATM   16  O   UNK N   1      20.805  16.739   8.610  0.00  0.00    -0.247 OA
HETATM   17  N   UNK N   1      21.980  14.978   7.866  0.00  0.00    -0.309 N 
HETATM   18  H   UNK N   1      22.595  14.661   7.166  0.00  0.00     0.170 HD
HETATM   19  H   UNK N   1      21.412  17.869   6.515  0.00  0.00     0.166 HD
BRANCH  17  20
HETATM   20  C   UNK N   1      21.710  14.091   8.938  0.00  0.00     0.038 A 
HETATM   21  C   UNK N   1      20.383  13.891   9.324  0.00  0.00     0.029 A 
HETATM   22  C   UNK N   1      20.077  13.050  10.394  0.00  0.00     0.004 A 
HETATM   23  C   UNK N   1      21.105  12.436  11.112  0.00  0.00     0.029 A 
HETATM   24  C   UNK N   1      22.445  12.652  10.755  0.00  0.00     0.029 A 
HETATM   25  C   UNK N   1      22.745  13.474   9.661  0.00  0.00     0.058 A 
BRANCH  24  26
HETATM   26  N   UNK N   1      23.498  12.067  11.501  0.00  0.00    -0.394 N 
HETATM   27  C   UNK N   1      23.446  11.948  12.937  0.00  0.00     0.146 C 
HETATM   28  H   UNK N   1      24.290  11.729  11.023  0.00  0.00     0.159 HD
ENDBRANCH  24  26
ENDBRANCH  17  20
ENDBRANCH  11  14
BRANCH   8  29
HETATM   29  C   UNK N   1      24.879  18.952   4.477  0.00  0.00     0.059 A 
HETATM   30  C   UNK N   1      25.679  19.315   3.383  0.00  0.00     0.032 A 
HETATM   31  C   UNK N   1      26.771  20.163   3.572  0.00  0.00     0.004 A 
HETATM   32  C   UNK N   1      27.048  20.666   4.842  0.00  0.00     0.017 A 
HETATM   33  C   UNK N   1      26.242  20.285   5.913  0.00  0.00     0.088 A 
HETATM   34  N   UNK N   1      25.197  19.439   5.713  0.00  0.00    -0.364 N 
ATOM     35  HN  UNK N   1      24.631  19.159   6.514  1.00  0.00     0.165 HD
ENDBRANCH   8  29
BRANCH   1  36
HETATM   36  C   UNK N   1      19.848  15.848   2.776  0.00  0.00     0.211 C 
BRANCH  36  37
HETATM   37  C   UNK N   1      20.254  15.081   1.548  0.00  0.00     0.152 C 
HETATM   38  O   UNK N   1      21.188  15.485   0.872  0.00  0.00    -0.295 OA
BRANCH  37  39
HETATM   39  C   UNK N   1      19.546  13.793   1.168  0.00  0.00     0.011 C 
HETATM   40  C   UNK N   1      18.957  13.152   2.411  0.00  0.00     0.022 C 
HETATM   41  C   UNK N   1      18.409  14.022   0.180  0.00  0.00     0.022 C 
HETATM   42  C   UNK N   1      20.527  12.823   0.539  0.00  0.00     0.022 C 
ENDBRANCH  37  39
ENDBRANCH  36  37
ENDBRANCH   1  36
TORSDOF 7
ENDMDL
MODEL 2
REMARK VINA RESULT:      -8.7      9.742     13.420
REMARK  7 active torsions:
REMARK  status: ('A' for Active; 'I' for Inactive)
REMARK    1  A    between atoms: C_2  and  C_5 
REMARK    2  A    between atoms: C_5  and  C_7 
REMARK    3  A    between atoms: C_7  and  N_8 
REMARK    4  A    between atoms: C_15  and  C_33 
REMARK    5  A    between atoms: C_18  and  N_21 
REMARK       I    between atoms: N_21  and  C_22 
REMARK       I    between atoms: C_22  and  N_24 
REMARK    6  A    between atoms: N_24  and  C_25 
REMARK    7  A    between atoms: C_29  and  N_31 
ROOT
HETATM    1  N   UNK N   1      34.169  13.992   7.192  0.00  0.00    -0.307 N 
HETATM    2  C   UNK N   1      35.462  13.962   7.851  0.00  0.00     0.050 A 
HETATM    3  C   UNK N   1      36.594  13.930   7.004  0.00  0.00     0.031 A 
HETATM    4  C   UNK N   1      37.892  13.812   7.481  0.00  0.00     0.002 A 
HETATM    5  C   UNK N   1      38.112  13.717   8.838  0.00  0.00     0.001 A 
HETATM    6  C   UNK N   1      37.034  13.747   9.707  0.00  0.00     0.016 A 
HETATM    7  C   UNK N   1      35.695  13.865   9.280  0.00  0.00     0.020 A 
HETATM    8  C   UNK N   1      34.665  13.851  10.397  0.00  0.00     0.069 C 
HETATM    9  N   UNK N   1      33.454  14.245  10.252  0.00  0.00    -0.358 N 
ATOM     10  HN  UNK N   1      32.831  14.064  11.039  1.00  0.00     0.162 HD
HETATM   11  C   UNK N   1      32.865  14.901   9.133  0.00  0.00     0.280 C 
HETATM   12  C   UNK N   1      32.981  14.297   7.791  0.00  0.00     0.267 C 
HETATM   13  O   UNK N   1      31.942  14.198   7.152  0.00  0.00    -0.269 OA
ENDROOT
BRANCH  11  14
HETATM   14  N   UNK N   1      33.107  16.328   9.158  0.00  0.00    -0.313 N 
HETATM   15  C   UNK N   1      32.200  17.195   8.639  0.00  0.00     0.322 C 
HETATM   16  O   UNK N   1      32.453  18.392   8.619  0.00  0.00    -0.247 OA
HETATM   17  N   UNK N   1      31.003  16.736   8.185  0.00  0.00    -0.309 N 
HETATM   18  H   UNK N   1      30.807  15.781   8.328  0.00  0.00     0.170 HD
HETATM   19  H   UNK N   1      33.939  16.673   9.555  0.00  0.00     0.166 HD
BRANCH  17  20
HETATM   20  C   UNK N   1      30.011  17.506   7.527  0.00  0.00     0.038 A 
HETATM   21  C   UNK N   1      29.169  18.313   8.297  0.00  0.00     0.029 A 
HETATM   22  C   UNK N   1      28.161  19.062   7.691  0.00  0.00     0.004 A 
HETATM   23  C   UNK N   1      27.962  18.975   6.312  0.00  0.00     0.029 A 
HETATM   24  C   UNK N   1      28.780  18.145   5.530  0.00  0.00     0.029 A 
HETATM   25  C   UNK N   1      29.811  17.418   6.139  0.00  0.00     0.058 A 
BRANCH  24  26
HETATM   26  N   UNK N   1      28.562  18.017   4.135  0.00  0.00    -0.394 N 
HETATM   27  C   UNK N   1      28.893  16.813   3.415  0.00  0.00     0.146 C 
HETATM   28  H   UNK N   1      28.172  18.776   3.643  0.00  0.00     0.159 HD
ENDBRANCH  24  26
ENDBRANCH  17  20
ENDBRANCH  11  14
BRANCH   8  29
HETATM   29  C   UNK N   1      35.059  13.574  11.820  0.00  0.00     0.059 A 
HETATM   30  C   UNK N   1      35.823  14.464  12.591  0.00  0.00     0.032 A 
HETATM   31  C   UNK N   1      36.062  14.188  13.937  0.00  0.00     0.004 A 
HETATM   32  C   UNK N   1      35.522  13.041  14.518  0.00  0.00     0.017 A 
HETATM   33  C   UNK N   1      34.773  12.170  13.730  0.00  0.00     0.088 A 
HETATM   34  N   UNK N   1      34.571  12.445  12.413  0.00  0.00    -0.364 N 
ATOM     35  HN  UNK N   1      34.035  11.785  11.850  1.00  0.00     0.165 HD
ENDBRANCH   8  29
BRANCH   1  36
HETATM   36  C   UNK N   1      34.103  13.764   5.747  0.00  0.00     0.211 C 
BRANCH  36  37
HETATM   37  C   UNK N   1      34.008  15.014   4.915  0.00  0.00     0.152 C 
HETATM   38  O   UNK N   1      34.513  16.047   5.328  0.00  0.00    -0.295 OA
BRANCH  37  39
HETATM   39  C   UNK N   1      33.332  14.992   3.556  0.00  0.00     0.011 C 
HETATM   40  C   UNK N   1      33.062  16.415   3.101  0.00  0.00     0.022 C 
HETATM   41  C   UNK N   1      34.187  14.318   2.490  0.00  0.00     0.022 C 
HETATM   42  C   UNK N   1      32.013  14.250   3.640  0.00  0.00     0.022 C 
ENDBRANCH  37  39
ENDBRANCH  36  37
ENDBRANCH   1  36
TORSDOF 7
ENDMDL
MODEL 3
REMARK VINA RESULT:      -8.6      9.859     13.551
REMARK  7 active torsions:
REMARK  status: ('A' for Active; 'I' for Inactive)
REMARK    1  A    between atoms: C_2  and  C_5 
REMARK    2  A    between atoms: C_5  and  C_7 
REMARK    3  A    between atoms: C_7  and  N_8 
REMARK    4  A    between atoms: C_15  and  C_33 
REMARK    5  A    between atoms: C_18  and  N_21 
REMARK       I    between atoms: N_21  and  C_22 
REMARK       I    between atoms: C_22  and  N_24 
REMARK    6  A    between atoms: N_24  and  C_25 
REMARK    7  A    between atoms: C_29  and  N_31 
ROOT
HETATM    1  N   UNK N   1      34.366  13.832   7.271  0.00  0.00    -0.307 N 
HETATM    2  C   UNK N   1      35.633  13.864   7.977  0.00  0.00     0.050 A 
HETATM    3  C   UNK N   1      36.797  13.873   7.174  0.00  0.00     0.031 A 
HETATM    4  C   UNK N   1      38.080  13.816   7.699  0.00  0.00     0.002 A 
HETATM    5  C   UNK N   1      38.253  13.743   9.064  0.00  0.00     0.001 A 
HETATM    6  C   UNK N   1      37.143  13.736   9.893  0.00  0.00     0.016 A 
HETATM    7  C   UNK N   1      35.817  13.791   9.415  0.00  0.00     0.020 A 
HETATM    8  C   UNK N   1      34.747  13.743  10.493  0.00  0.00     0.069 C 
HETATM    9  N   UNK N   1      33.526  14.083  10.298  0.00  0.00    -0.358 N 
ATOM     10  HN  UNK N   1      32.883  13.883  11.064  1.00  0.00     0.162 HD
HETATM   11  C   UNK N   1      32.952  14.702   9.151  0.00  0.00     0.280 C 
HETATM   12  C   UNK N   1      33.145  14.090   7.821  0.00  0.00     0.267 C 
HETATM   13  O   UNK N   1      32.135  13.941   7.146  0.00  0.00    -0.269 OA
ENDROOT
BRANCH  11  14
HETATM   14  N   UNK N   1      33.132  16.138   9.169  0.00  0.00    -0.313 N 
HETATM   15  C   UNK N   1      32.261  16.955   8.522  0.00  0.00     0.322 C 
HETATM   16  O   UNK N   1      32.467  18.160   8.502  0.00  0.00    -0.247 OA
HETATM   17  N   UNK N   1      31.148  16.435   7.937  0.00  0.00    -0.309 N 
HETATM   18  H   UNK N   1      30.975  15.476   8.079  0.00  0.00     0.170 HD
HETATM   19  H   UNK N   1      33.894  16.527   9.656  0.00  0.00     0.166 HD
BRANCH  17  20
HETATM   20  C   UNK N   1      30.215  17.148   7.143  0.00  0.00     0.038 A 
HETATM   21  C   UNK N   1      30.344  17.101   5.753  0.00  0.00     0.029 A 
HETATM   22  C   UNK N   1      29.466  17.813   4.937  0.00  0.00     0.004 A 
HETATM   23  C   UNK N   1      28.477  18.614   5.511  0.00  0.00     0.029 A 
HETATM   24  C   UNK N   1      28.355  18.697   6.907  0.00  0.00     0.029 A 
HETATM   25  C   UNK N   1      29.221  17.955   7.722  0.00  0.00     0.058 A 
BRANCH  24  26
HETATM   26  N   UNK N   1      27.381  19.537   7.503  0.00  0.00    -0.394 N 
HETATM   27  C   UNK N   1      26.871  20.709   6.836  0.00  0.00     0.146 C 
HETATM   28  H   UNK N   1      27.042  19.312   8.400  0.00  0.00     0.159 HD
ENDBRANCH  24  26
ENDBRANCH  17  20
ENDBRANCH  11  14
BRANCH   8  29
HETATM   29  C   UNK N   1      35.099  13.498  11.933  0.00  0.00     0.059 A 
HETATM   30  C   UNK N   1      35.855  14.396  12.701  0.00  0.00     0.032 A 
HETATM   31  C   UNK N   1      36.055  14.151  14.060  0.00  0.00     0.004 A 
HETATM   32  C   UNK N   1      35.482  13.028  14.655  0.00  0.00     0.017 A 
HETATM   33  C   UNK N   1      34.741  12.147  13.869  0.00  0.00     0.088 A 
HETATM   34  N   UNK N   1      34.578  12.391  12.541  0.00  0.00    -0.364 N 
ATOM     35  HN  UNK N   1      34.048  11.724  11.980  1.00  0.00     0.165 HD
ENDBRANCH   8  29
BRANCH   1  36
HETATM   36  C   UNK N   1      34.365  13.587   5.826  0.00  0.00     0.211 C 
BRANCH  36  37
HETATM   37  C   UNK N   1      34.251  14.824   4.977  0.00  0.00     0.152 C 
HETATM   38  O   UNK N   1      34.776  15.860   5.357  0.00  0.00    -0.295 OA
BRANCH  37  39
HETATM   39  C   UNK N   1      33.531  14.785   3.641  0.00  0.00     0.011 C 
HETATM   40  C   UNK N   1      34.447  14.186   2.590  0.00  0.00     0.022 C 
HETATM   41  C   UNK N   1      32.263  13.942   3.687  0.00  0.00     0.022 C 
HETATM   42  C   UNK N   1      33.149  16.188   3.213  0.00  0.00     0.022 C 
ENDBRANCH  37  39
ENDBRANCH  36  37
ENDBRANCH   1  36
TORSDOF 7
ENDMDL
MODEL 4
REMARK VINA RESULT:      -8.4     10.508     14.030
REMARK  7 active torsions:
REMARK  status: ('A' for Active; 'I' for Inactive)
REMARK    1  A    between atoms: C_2  and  C_5 
REMARK    2  A    between atoms: C_5  and  C_7 
REMARK    3  A    between atoms: C_7  and  N_8 
REMARK    4  A    between atoms: C_15  and  C_33 
REMARK    5  A    between atoms: C_18  and  N_21 
REMARK       I    between atoms: N_21  and  C_22 
REMARK       I    between atoms: C_22  and  N_24 
REMARK    6  A    between atoms: N_24  and  C_25 
REMARK    7  A    between atoms: C_29  and  N_31 
ROOT
HETATM    1  N   UNK N   1      34.875  13.550   7.916  0.00  0.00    -0.307 N 
HETATM    2  C   UNK N   1      36.141  13.596   8.623  0.00  0.00     0.050 A 
HETATM    3  C   UNK N   1      37.304  13.430   7.835  0.00  0.00     0.031 A 
HETATM    4  C   UNK N   1      38.580  13.364   8.375  0.00  0.00     0.002 A 
HETATM    5  C   UNK N   1      38.748  13.457   9.739  0.00  0.00     0.001 A 
HETATM    6  C   UNK N   1      37.638  13.624  10.552  0.00  0.00     0.016 A 
HETATM    7  C   UNK N   1      36.318  13.698  10.060  0.00  0.00     0.020 A 
HETATM    8  C   UNK N   1      35.247  13.854  11.126  0.00  0.00     0.069 C 
HETATM    9  N   UNK N   1      34.050  14.240  10.879  0.00  0.00    -0.358 N 
ATOM     10  HN  UNK N   1      33.395  14.180  11.659  1.00  0.00     0.162 HD
HETATM   11  C   UNK N   1      33.515  14.740   9.657  0.00  0.00     0.280 C 
HETATM   12  C   UNK N   1      33.671  13.951   8.418  0.00  0.00     0.267 C 
HETATM   13  O   UNK N   1      32.654  13.778   7.759  0.00  0.00    -0.269 OA
ENDROOT
BRANCH  11  14
HETATM   14  N   UNK N   1      33.783  16.152   9.492  0.00  0.00    -0.313 N 
HETATM   15  C   UNK N   1      32.806  17.001   9.079  0.00  0.00     0.322 C 
HETATM   16  O   UNK N   1      33.071  18.180   8.891  0.00  0.00    -0.247 OA
HETATM   17  N   UNK N   1      31.534  16.546   8.919  0.00  0.00    -0.309 N 
HETATM   18  H   UNK N   1      31.353  15.616   9.191  0.00  0.00     0.170 HD
HETATM   19  H   UNK N   1      34.684  16.503   9.680  0.00  0.00     0.166 HD
BRANCH  17  20
HETATM   20  C   UNK N   1      30.445  17.287   8.396  0.00  0.00     0.038 A 
HETATM   21  C   UNK N   1      29.577  17.922   9.289  0.00  0.00     0.029 A 
HETATM   22  C   UNK N   1      28.476  18.635   8.817  0.00  0.00     0.004 A 
HETATM   23  C   UNK N   1      28.211  18.682   7.447  0.00  0.00     0.029 A 
HETATM   24  C   UNK N   1      29.056  18.022   6.541  0.00  0.00     0.029 A 
HETATM   25  C   UNK N   1      30.179  17.333   7.017  0.00  0.00     0.058 A 
BRANCH  24  26
HETATM   26  N   UNK N   1      28.776  18.029   5.151  0.00  0.00    -0.394 N 
HETATM   27  C   UNK N   1      29.412  17.113   4.237  0.00  0.00     0.146 C 
HETATM   28  H   UNK N   1      28.126  18.680   4.799  0.00  0.00     0.159 HD
ENDBRANCH  24  26
ENDBRANCH  17  20
ENDBRANCH  11  14
BRANCH   8  29
HETATM   29  C   UNK N   1      35.582  13.775  12.588  0.00  0.00     0.059 A 
HETATM   30  C   UNK N   1      35.370  12.624  13.363  0.00  0.00     0.032 A 
HETATM   31  C   UNK N   1      35.802  12.590  14.689  0.00  0.00     0.004 A 
HETATM   32  C   UNK N   1      36.466  13.689  15.232  0.00  0.00     0.017 A 
HETATM   33  C   UNK N   1      36.659  14.822  14.445  0.00  0.00     0.088 A 
HETATM   34  N   UNK N   1      36.209  14.845  13.162  0.00  0.00    -0.364 N 
ATOM     35  HN  UNK N   1      36.345  15.691  12.608  1.00  0.00     0.165 HD
ENDBRANCH   8  29
BRANCH   1  36
HETATM   36  C   UNK N   1      34.859  13.122   6.515  0.00  0.00     0.211 C 
BRANCH  36  37
HETATM   37  C   UNK N   1      34.719  14.238   5.516  0.00  0.00     0.152 C 
HETATM   38  O   UNK N   1      35.455  15.210   5.598  0.00  0.00    -0.295 OA
BRANCH  37  39
HETATM   39  C   UNK N   1      33.706  14.148   4.389  0.00  0.00     0.011 C 
HETATM   40  C   UNK N   1      34.422  14.255   3.055  0.00  0.00     0.022 C 
HETATM   41  C   UNK N   1      32.937  12.833   4.399  0.00  0.00     0.022 C 
HETATM   42  C   UNK N   1      32.704  15.281   4.495  0.00  0.00     0.022 C 
ENDBRANCH  37  39
ENDBRANCH  36  37
ENDBRANCH   1  36
TORSDOF 7
ENDMDL
MODEL 5
REMARK VINA RESULT:      -8.0     13.161     16.873
REMARK  7 active torsions:
REMARK  status: ('A' for Active; 'I' for Inactive)
REMARK    1  A    between atoms: C_2  and  C_5 
REMARK    2  A    between atoms: C_5  and  C_7 
REMARK    3  A    between atoms: C_7  and  N_8 
REMARK    4  A    between atoms: C_15  and  C_33 
REMARK    5  A    between atoms: C_18  and  N_21 
REMARK       I    between atoms: N_21  and  C_22 
REMARK       I    between atoms: C_22  and  N_24 
REMARK    6  A    between atoms: N_24  and  C_25 
REMARK    7  A    between atoms: C_29  and  N_31 
ROOT
HETATM    1  N   UNK N   1      36.037  14.494  10.392  0.00  0.00    -0.307 N 
HETATM    2  C   UNK N   1      37.153  13.656   9.997  0.00  0.00     0.050 A 
HETATM    3  C   UNK N   1      37.979  14.159   8.964  0.00  0.00     0.031 A 
HETATM    4  C   UNK N   1      39.031  13.440   8.417  0.00  0.00     0.002 A 
HETATM    5  C   UNK N   1      39.302  12.171   8.883  0.00  0.00     0.001 A 
HETATM    6  C   UNK N   1      38.523  11.637   9.896  0.00  0.00     0.016 A 
HETATM    7  C   UNK N   1      37.441  12.321  10.488  0.00  0.00     0.020 A 
HETATM    8  C   UNK N   1      36.703  11.541  11.563  0.00  0.00     0.069 C 
HETATM    9  N   UNK N   1      35.911  12.080  12.415  0.00  0.00    -0.358 N 
ATOM     10  HN  UNK N   1      35.381  11.433  12.999  1.00  0.00     0.162 HD
HETATM   11  C   UNK N   1      35.675  13.465  12.651  0.00  0.00     0.280 C 
HETATM   12  C   UNK N   1      35.292  14.340  11.525  0.00  0.00     0.267 C 
HETATM   13  O   UNK N   1      34.315  15.054  11.706  0.00  0.00    -0.269 OA
ENDROOT
BRANCH  11  14
HETATM   14  N   UNK N   1      36.674  14.038  13.528  0.00  0.00    -0.313 N 
HETATM   15  C   UNK N   1      36.654  13.784  14.862  0.00  0.00     0.322 C 
HETATM   16  O   UNK N   1      37.473  14.326  15.591  0.00  0.00    -0.247 OA
HETATM   17  N   UNK N   1      35.755  12.899  15.372  0.00  0.00    -0.309 N 
HETATM   18  H   UNK N   1      35.195  12.409  14.728  0.00  0.00     0.170 HD
HETATM   19  H   UNK N   1      37.375  14.619  13.153  0.00  0.00     0.166 HD
BRANCH  17  20
HETATM   20  C   UNK N   1      35.552  12.619  16.747  0.00  0.00     0.038 A 
HETATM   21  C   UNK N   1      35.277  13.679  17.614  0.00  0.00     0.029 A 
HETATM   22  C   UNK N   1      35.102  13.450  18.978  0.00  0.00     0.004 A 
HETATM   23  C   UNK N   1      35.243  12.160  19.491  0.00  0.00     0.029 A 
HETATM   24  C   UNK N   1      35.551  11.089  18.637  0.00  0.00     0.029 A 
HETATM   25  C   UNK N   1      35.696  11.319  17.262  0.00  0.00     0.058 A 
BRANCH  24  26
HETATM   26  N   UNK N   1      35.737   9.781  19.151  0.00  0.00    -0.394 N 
HETATM   27  C   UNK N   1      35.070   8.634  18.586  0.00  0.00     0.146 C 
HETATM   28  H   UNK N   1      36.341   9.652  19.917  0.00  0.00     0.159 HD
ENDBRANCH  24  26
ENDBRANCH  17  20
ENDBRANCH  11  14
BRANCH   8  29
HETATM   29  C   UNK N   1      37.023  10.100  11.841  0.00  0.00     0.059 A 
HETATM   30  C   UNK N   1      37.976   9.695  12.788  0.00  0.00     0.032 A 
HETATM   31  C   UNK N   1      38.146   8.338  13.067  0.00  0.00     0.004 A 
HETATM   32  C   UNK N   1      37.350   7.392  12.422  0.00  0.00     0.017 A 
HETATM   33  C   UNK N   1      36.416   7.819  11.481  0.00  0.00     0.088 A 
HETATM   34  N   UNK N   1      36.282   9.144  11.206  0.00  0.00    -0.364 N 
ATOM     35  HN  UNK N   1      35.605   9.434  10.500  1.00  0.00     0.165 HD
ENDBRANCH   8  29
BRANCH   1  36
HETATM   36  C   UNK N   1      35.703  15.664   9.576  0.00  0.00     0.211 C 
BRANCH  36  37
HETATM   37  C   UNK N   1      34.662  15.419   8.518  0.00  0.00     0.152 C 
HETATM   38  O   UNK N   1      34.349  14.271   8.242  0.00  0.00    -0.295 OA
BRANCH  37  39
HETATM   39  C   UNK N   1      33.970  16.580   7.827  0.00  0.00     0.011 C 
HETATM   40  C   UNK N   1      32.477  16.509   8.091  0.00  0.00     0.022 C 
HETATM   41  C   UNK N   1      34.466  17.933   8.320  0.00  0.00     0.022 C 
HETATM   42  C   UNK N   1      34.203  16.510   6.330  0.00  0.00     0.022 C 
ENDBRANCH  37  39
ENDBRANCH  36  37
ENDBRANCH   1  36
TORSDOF 7
ENDMDL
MODEL 6
REMARK VINA RESULT:      -7.9     12.405     16.963
REMARK  7 active torsions:
REMARK  status: ('A' for Active; 'I' for Inactive)
REMARK    1  A    between atoms: C_2  and  C_5 
REMARK    2  A    between atoms: C_5  and  C_7 
REMARK    3  A    between atoms: C_7  and  N_8 
REMARK    4  A    between atoms: C_15  and  C_33 
REMARK    5  A    between atoms: C_18  and  N_21 
REMARK       I    between atoms: N_21  and  C_22 
REMARK       I    between atoms: C_22  and  N_24 
REMARK    6  A    between atoms: N_24  and  C_25 
REMARK    7  A    between atoms: C_29  and  N_31 
ROOT
HETATM    1  N   UNK N   1      35.852  10.683  11.508  0.00  0.00    -0.307 N 
HETATM    2  C   UNK N   1      36.780  10.562  12.616  0.00  0.00     0.050 A 
HETATM    3  C   UNK N   1      37.642   9.440  12.590  0.00  0.00     0.031 A 
HETATM    4  C   UNK N   1      38.524   9.139  13.618  0.00  0.00     0.002 A 
HETATM    5  C   UNK N   1      38.577   9.953  14.729  0.00  0.00     0.001 A 
HETATM    6  C   UNK N   1      37.755  11.065  14.799  0.00  0.00     0.016 A 
HETATM    7  C   UNK N   1      36.840  11.420  13.785  0.00  0.00     0.020 A 
HETATM    8  C   UNK N   1      36.015  12.662  14.076  0.00  0.00     0.069 C 
HETATM    9  N   UNK N   1      35.368  13.311  13.180  0.00  0.00    -0.358 N 
ATOM     10  HN  UNK N   1      34.752  14.048  13.524  1.00  0.00     0.162 HD
HETATM   11  C   UNK N   1      35.397  13.137  11.766  0.00  0.00     0.280 C 
HETATM   12  C   UNK N   1      35.136  11.802  11.193  0.00  0.00     0.267 C 
HETATM   13  O   UNK N   1      34.313  11.756  10.288  0.00  0.00    -0.269 OA
ENDROOT
BRANCH  11  14
HETATM   14  N   UNK N   1      36.517  13.827  11.163  0.00  0.00    -0.313 N 
HETATM   15  C   UNK N   1      36.322  14.731  10.168  0.00  0.00     0.322 C 
HETATM   16  O   UNK N   1      37.287  15.258   9.634  0.00  0.00    -0.247 OA
HETATM   17  N   UNK N   1      35.057  15.074   9.801  0.00  0.00    -0.309 N 
HETATM   18  H   UNK N   1      34.319  14.704  10.338  0.00  0.00     0.170 HD
HETATM   19  H   UNK N   1      37.431  13.640  11.478  0.00  0.00     0.166 HD
BRANCH  17  20
HETATM   20  C   UNK N   1      34.706  15.916   8.716  0.00  0.00     0.038 A 
HETATM   21  C   UNK N   1      34.458  17.268   8.970  0.00  0.00     0.029 A 
HETATM   22  C   UNK N   1      34.079  18.123   7.936  0.00  0.00     0.004 A 
HETATM   23  C   UNK N   1      33.904  17.621   6.646  0.00  0.00     0.029 A 
HETATM   24  C   UNK N   1      34.118  16.259   6.382  0.00  0.00     0.029 A 
HETATM   25  C   UNK N   1      34.528  15.410   7.418  0.00  0.00     0.058 A 
BRANCH  24  26
HETATM   26  N   UNK N   1      33.905  15.729   5.085  0.00  0.00    -0.394 N 
HETATM   27  C   UNK N   1      33.190  16.459   4.067  0.00  0.00     0.146 C 
HETATM   28  H   UNK N   1      34.256  14.834   4.872  0.00  0.00     0.159 HD
ENDBRANCH  24  26
ENDBRANCH  17  20
ENDBRANCH  11  14
BRANCH   8  29
HETATM   29  C   UNK N   1      36.078  13.347  15.412  0.00  0.00     0.059 A 
HETATM   30  C   UNK N   1      36.908  14.448  15.671  0.00  0.00     0.032 A 
HETATM   31  C   UNK N   1      36.837  15.097  16.905  0.00  0.00     0.004 A 
HETATM   32  C   UNK N   1      35.923  14.664  17.865  0.00  0.00     0.017 A 
HETATM   33  C   UNK N   1      35.115  13.564  17.586  0.00  0.00     0.088 A 
HETATM   34  N   UNK N   1      35.216  12.931  16.387  0.00  0.00    -0.364 N 
ATOM     35  HN  UNK N   1      34.628  12.117  16.210  1.00  0.00     0.165 HD
ENDBRANCH   8  29
BRANCH   1  36
HETATM   36  C   UNK N   1      35.705   9.561  10.578  0.00  0.00     0.211 C 
BRANCH  36  37
HETATM   37  C   UNK N   1      34.593   8.605  10.914  0.00  0.00     0.152 C 
HETATM   38  O   UNK N   1      34.501   8.170  12.052  0.00  0.00    -0.295 OA
BRANCH  37  39
HETATM   39  C   UNK N   1      33.564   8.214   9.869  0.00  0.00     0.011 C 
HETATM   40  C   UNK N   1      33.308   6.720   9.944  0.00  0.00     0.022 C 
HETATM   41  C   UNK N   1      32.231   8.924  10.068  0.00  0.00     0.022 C 
HETATM   42  C   UNK N   1      34.074   8.550   8.482  0.00  0.00     0.022 C 
ENDBRANCH  37  39
ENDBRANCH  36  37
ENDBRANCH   1  36
TORSDOF 7
ENDMDL
MODEL 7
REMARK VINA RESULT:      -7.9      6.825      9.998
REMARK  7 active torsions:
REMARK  status: ('A' for Active; 'I' for Inactive)
REMARK    1  A    between atoms: C_2  and  C_5 
REMARK    2  A    between atoms: C_5  and  C_7 
REMARK    3  A    between atoms: C_7  and  N_8 
REMARK    4  A    between atoms: C_15  and  C_33 
REMARK    5  A    between atoms: C_18  and  N_21 
REMARK       I    between atoms: N_21  and  C_22 
REMARK       I    between atoms: C_22  and  N_24 
REMARK    6  A    between atoms: N_24  and  C_25 
REMARK    7  A    between atoms: C_29  and  N_31 
ROOT
HETATM    1  N   UNK N   1      28.835  17.122   5.362  0.00  0.00    -0.307 N 
HETATM    2  C   UNK N   1      29.038  17.338   6.783  0.00  0.00     0.050 A 
HETATM    3  C   UNK N   1      27.922  17.814   7.509  0.00  0.00     0.031 A 
HETATM    4  C   UNK N   1      27.981  18.151   8.854  0.00  0.00     0.002 A 
HETATM    5  C   UNK N   1      29.173  18.028   9.534  0.00  0.00     0.001 A 
HETATM    6  C   UNK N   1      30.294  17.563   8.865  0.00  0.00     0.016 A 
HETATM    7  C   UNK N   1      30.292  17.206   7.500  0.00  0.00     0.020 A 
HETATM    8  C   UNK N   1      31.636  16.746   6.959  0.00  0.00     0.069 C 
HETATM    9  N   UNK N   1      31.776  16.103   5.859  0.00  0.00    -0.358 N 
ATOM     10  HN  UNK N   1      32.737  15.966   5.545  1.00  0.00     0.162 HD
HETATM   11  C   UNK N   1      30.764  15.556   5.018  0.00  0.00     0.280 C 
HETATM   12  C   UNK N   1      29.669  16.423   4.539  0.00  0.00     0.267 C 
HETATM   13  O   UNK N   1      29.439  16.387   3.338  0.00  0.00    -0.269 OA
ENDROOT
BRANCH  11  14
HETATM   14  N   UNK N   1      30.326  14.257   5.481  0.00  0.00    -0.313 N 
HETATM   15  C   UNK N   1      29.987  13.283   4.597  0.00  0.00     0.322 C 
HETATM   16  O   UNK N   1      29.564  12.213   5.012  0.00  0.00    -0.247 OA
HETATM   17  N   UNK N   1      30.160  13.486   3.263  0.00  0.00    -0.309 N 
HETATM   18  H   UNK N   1      30.607  14.321   2.991  0.00  0.00     0.170 HD
HETATM   19  H   UNK N   1      30.272  14.077   6.447  0.00  0.00     0.166 HD
BRANCH  17  20
HETATM   20  C   UNK N   1      29.755  12.606   2.228  0.00  0.00     0.038 A 
HETATM   21  C   UNK N   1      30.692  12.235   1.260  0.00  0.00     0.029 A 
HETATM   22  C   UNK N   1      30.326  11.396   0.208  0.00  0.00     0.004 A 
HETATM   23  C   UNK N   1      29.006  10.957   0.094  0.00  0.00     0.029 A 
HETATM   24  C   UNK N   1      28.046  11.348   1.042  0.00  0.00     0.029 A 
HETATM   25  C   UNK N   1      28.426  12.166   2.114  0.00  0.00     0.058 A 
BRANCH  24  26
HETATM   26  N   UNK N   1      26.694  10.941   0.915  0.00  0.00    -0.394 N 
HETATM   27  C   UNK N   1      25.598  11.807   1.272  0.00  0.00     0.146 C 
HETATM   28  H   UNK N   1      26.498  10.039   0.572  0.00  0.00     0.159 HD
ENDBRANCH  24  26
ENDBRANCH  17  20
ENDBRANCH  11  14
BRANCH   8  29
HETATM   29  C   UNK N   1      32.883  16.825   7.793  0.00  0.00     0.059 A 
HETATM   30  C   UNK N   1      33.705  17.961   7.838  0.00  0.00     0.032 A 
HETATM   31  C   UNK N   1      34.789  18.000   8.715  0.00  0.00     0.004 A 
HETATM   32  C   UNK N   1      35.037  16.921   9.561  0.00  0.00     0.017 A 
HETATM   33  C   UNK N   1      34.210  15.801   9.493  0.00  0.00     0.088 A 
HETATM   34  N   UNK N   1      33.173  15.773   8.615  0.00  0.00    -0.364 N 
ATOM     35  HN  UNK N   1      32.591  14.937   8.568  1.00  0.00     0.165 HD
ENDBRANCH   8  29
BRANCH   1  36
HETATM   36  C   UNK N   1      27.601  17.608   4.740  0.00  0.00     0.211 C 
BRANCH  36  37
HETATM   37  C   UNK N   1      27.545  19.096   4.528  0.00  0.00     0.152 C 
HETATM   38  O   UNK N   1      28.581  19.710   4.323  0.00  0.00    -0.295 OA
BRANCH  37  39
HETATM   39  C   UNK N   1      26.216  19.830   4.522  0.00  0.00     0.011 C 
HETATM   40  C   UNK N   1      25.988  20.454   3.158  0.00  0.00     0.022 C 
HETATM   41  C   UNK N   1      25.039  18.908   4.814  0.00  0.00     0.022 C 
HETATM   42  C   UNK N   1      26.223  20.930   5.565  0.00  0.00     0.022 C 
ENDBRANCH  37  39
ENDBRANCH  36  37
ENDBRANCH   1  36
TORSDOF 7
ENDMDL
MODEL 8
REMARK VINA RESULT:      -7.7      3.741      7.337
REMARK  7 active torsions:
REMARK  status: ('A' for Active; 'I' for Inactive)
REMARK    1  A    between atoms: C_2  and  C_5 
REMARK    2  A    between atoms: C_5  and  C_7 
REMARK    3  A    between atoms: C_7  and  N_8 
REMARK    4  A    between atoms: C_15  and  C_33 
REMARK    5  A    between atoms: C_18  and  N_21 
REMARK       I    between atoms: N_21  and  C_22 
REMARK       I    between atoms: C_22  and  N_24 
REMARK    6  A    between atoms: N_24  and  C_25 
REMARK    7  A    between atoms: C_29  and  N_31 
ROOT
HETATM    1  N   UNK N   1      24.328  15.060   6.236  0.00  0.00    -0.307 N 
HETATM    2  C   UNK N   1      23.063  15.735   6.454  0.00  0.00     0.050 A 
HETATM    3  C   UNK N   1      22.303  15.298   7.564  0.00  0.00     0.031 A 
HETATM    4  C   UNK N   1      21.037  15.783   7.853  0.00  0.00     0.002 A 
HETATM    5  C   UNK N   1      20.469  16.734   7.033  0.00  0.00     0.001 A 
HETATM    6  C   UNK N   1      21.176  17.196   5.935  0.00  0.00     0.016 A 
HETATM    7  C   UNK N   1      22.466  16.739   5.592  0.00  0.00     0.020 A 
HETATM    8  C   UNK N   1      23.049  17.358   4.333  0.00  0.00     0.069 C 
HETATM    9  N   UNK N   1      24.294  17.311   4.029  0.00  0.00    -0.358 N 
ATOM     10  HN  UNK N   1      24.536  17.650   3.099  1.00  0.00     0.162 HD
HETATM   11  C   UNK N   1      25.382  16.846   4.823  0.00  0.00     0.280 C 
HETATM   12  C   UNK N   1      25.326  15.493   5.411  0.00  0.00     0.267 C 
HETATM   13  O   UNK N   1      26.313  14.789   5.238  0.00  0.00    -0.269 OA
ENDROOT
BRANCH  11  14
HETATM   14  N   UNK N   1      25.855  17.865   5.735  0.00  0.00    -0.313 N 
HETATM   15  C   UNK N   1      27.184  18.034   5.958  0.00  0.00     0.322 C 
HETATM   16  O   UNK N   1      27.557  18.862   6.776  0.00  0.00    -0.247 OA
HETATM   17  N   UNK N   1      28.090  17.315   5.241  0.00  0.00    -0.309 N 
HETATM   18  H   UNK N   1      27.739  16.746   4.518  0.00  0.00     0.170 HD
HETATM   19  H   UNK N   1      25.206  18.442   6.200  0.00  0.00     0.166 HD
BRANCH  17  20
HETATM   20  C   UNK N   1      29.493  17.312   5.439  0.00  0.00     0.038 A 
HETATM   21  C   UNK N   1      30.326  17.545   4.342  0.00  0.00     0.029 A 
HETATM   22  C   UNK N   1      31.712  17.519   4.488  0.00  0.00     0.004 A 
HETATM   23  C   UNK N   1      32.276  17.216   5.729  0.00  0.00     0.029 A 
HETATM   24  C   UNK N   1      31.452  16.948   6.834  0.00  0.00     0.029 A 
HETATM   25  C   UNK N   1      30.060  17.006   6.689  0.00  0.00     0.058 A 
BRANCH  24  26
HETATM   26  N   UNK N   1      32.012  16.601   8.089  0.00  0.00    -0.394 N 
HETATM   27  C   UNK N   1      33.377  16.913   8.431  0.00  0.00     0.146 C 
HETATM   28  H   UNK N   1      31.450  16.132   8.747  0.00  0.00     0.159 HD
ENDBRANCH  24  26
ENDBRANCH  17  20
ENDBRANCH  11  14
BRANCH   8  29
HETATM   29  C   UNK N   1      22.232  18.264   3.457  0.00  0.00     0.059 A 
HETATM   30  C   UNK N   1      21.076  17.841   2.783  0.00  0.00     0.032 A 
HETATM   31  C   UNK N   1      20.310  18.764   2.071  0.00  0.00     0.004 A 
HETATM   32  C   UNK N   1      20.681  20.108   2.052  0.00  0.00     0.017 A 
HETATM   33  C   UNK N   1      21.837  20.501   2.723  0.00  0.00     0.088 A 
HETATM   34  N   UNK N   1      22.584  19.582   3.392  0.00  0.00    -0.364 N 
ATOM     35  HN  UNK N   1      23.435  19.888   3.861  1.00  0.00     0.165 HD
ENDBRANCH   8  29
BRANCH   1  36
HETATM   36  C   UNK N   1      24.633  13.854   7.010  0.00  0.00     0.211 C 
BRANCH  36  37
HETATM   37  C   UNK N   1      24.017  12.590   6.476  0.00  0.00     0.152 C 
HETATM   38  O   UNK N   1      24.187  12.291   5.304  0.00  0.00    -0.295 OA
BRANCH  37  39
HETATM   39  C   UNK N   1      23.228  11.666   7.386  0.00  0.00     0.011 C 
HETATM   40  C   UNK N   1      21.750  11.775   7.059  0.00  0.00     0.022 C 
HETATM   41  C   UNK N   1      23.633  10.206   7.228  0.00  0.00     0.022 C 
HETATM   42  C   UNK N   1      23.435  12.059   8.836  0.00  0.00     0.022 C 
ENDBRANCH  37  39
ENDBRANCH  36  37
ENDBRANCH   1  36
TORSDOF 7
ENDMDL
MODEL 9
REMARK VINA RESULT:      -7.7     12.662     16.066
REMARK  7 active torsions:
REMARK  status: ('A' for Active; 'I' for Inactive)
REMARK    1  A    between atoms: C_2  and  C_5 
REMARK    2  A    between atoms: C_5  and  C_7 
REMARK    3  A    between atoms: C_7  and  N_8 
REMARK    4  A    between atoms: C_15  and  C_33 
REMARK    5  A    between atoms: C_18  and  N_21 
REMARK       I    between atoms: N_21  and  C_22 
REMARK       I    between atoms: C_22  and  N_24 
REMARK    6  A    between atoms: N_24  and  C_25 
REMARK    7  A    between atoms: C_29  and  N_31 
ROOT
HETATM    1  N   UNK N   1      35.684  13.888  10.354  0.00  0.00    -0.307 N 
HETATM    2  C   UNK N   1      35.911  12.800   9.421  0.00  0.00     0.050 A 
HETATM    3  C   UNK N   1      36.765  13.081   8.329  0.00  0.00     0.031 A 
HETATM    4  C   UNK N   1      37.011  12.174   7.308  0.00  0.00     0.002 A 
HETATM    5  C   UNK N   1      36.403  10.937   7.336  0.00  0.00     0.001 A 
HETATM    6  C   UNK N   1      35.562  10.615   8.388  0.00  0.00     0.016 A 
HETATM    7  C   UNK N   1      35.275  11.496   9.451  0.00  0.00     0.020 A 
HETATM    8  C   UNK N   1      34.304  10.953  10.487  0.00  0.00     0.069 C 
HETATM    9  N   UNK N   1      34.156  11.457  11.656  0.00  0.00    -0.358 N 
ATOM     10  HN  UNK N   1      33.385  11.081  12.207  1.00  0.00     0.162 HD
HETATM   11  C   UNK N   1      34.930  12.475  12.285  0.00  0.00     0.280 C 
HETATM   12  C   UNK N   1      35.132  13.765  11.596  0.00  0.00     0.267 C 
HETATM   13  O   UNK N   1      34.905  14.770  12.257  0.00  0.00    -0.269 OA
ENDROOT
BRANCH  11  14
HETATM   14  N   UNK N   1      36.129  11.939  12.894  0.00  0.00    -0.313 N 
HETATM   15  C   UNK N   1      36.239  11.845  14.244  0.00  0.00     0.322 C 
HETATM   16  O   UNK N   1      37.283  11.443  14.737  0.00  0.00    -0.247 OA
HETATM   17  N   UNK N   1      35.177  12.156  15.036  0.00  0.00    -0.309 N 
HETATM   18  H   UNK N   1      34.327  12.365  14.583  0.00  0.00     0.170 HD
HETATM   19  H   UNK N   1      36.873  11.640  12.323  0.00  0.00     0.166 HD
BRANCH  17  20
HETATM   20  C   UNK N   1      35.181  12.205  16.452  0.00  0.00     0.038 A 
HETATM   21  C   UNK N   1      35.194  13.453  17.080  0.00  0.00     0.029 A 
HETATM   22  C   UNK N   1      35.231  13.544  18.471  0.00  0.00     0.004 A 
HETATM   23  C   UNK N   1      35.297  12.384  19.243  0.00  0.00     0.029 A 
HETATM   24  C   UNK N   1      35.316  11.123  18.626  0.00  0.00     0.029 A 
HETATM   25  C   UNK N   1      35.249  11.036  17.230  0.00  0.00     0.058 A 
BRANCH  24  26
HETATM   26  N   UNK N   1      35.423   9.939  19.398  0.00  0.00    -0.394 N 
HETATM   27  C   UNK N   1      36.510   9.008  19.224  0.00  0.00     0.146 C 
HETATM   28  H   UNK N   1      34.734   9.748  20.075  0.00  0.00     0.159 HD
ENDBRANCH  24  26
ENDBRANCH  17  20
ENDBRANCH  11  14
BRANCH   8  29
HETATM   29  C   UNK N   1      33.601   9.641  10.285  0.00  0.00     0.059 A 
HETATM   30  C   UNK N   1      34.090   8.424  10.784  0.00  0.00     0.032 A 
HETATM   31  C   UNK N   1      33.330   7.261  10.648  0.00  0.00     0.004 A 
HETATM   32  C   UNK N   1      32.077   7.318  10.039  0.00  0.00     0.017 A 
HETATM   33  C   UNK N   1      31.617   8.537   9.546  0.00  0.00     0.088 A 
HETATM   34  N   UNK N   1      32.382   9.654   9.667  0.00  0.00    -0.364 N 
ATOM     35  HN  UNK N   1      32.035  10.532   9.283  1.00  0.00     0.165 HD
ENDBRANCH   8  29
BRANCH   1  36
HETATM   36  C   UNK N   1      36.147  15.233  10.003  0.00  0.00     0.211 C 
BRANCH  36  37
HETATM   37  C   UNK N   1      35.057  16.260   9.865  0.00  0.00     0.152 C 
HETATM   38  O   UNK N   1      35.016  17.199  10.646  0.00  0.00    -0.295 OA
BRANCH  37  39
HETATM   39  C   UNK N   1      34.037  16.164   8.744  0.00  0.00     0.011 C 
HETATM   40  C   UNK N   1      32.999  15.113   9.092  0.00  0.00     0.022 C 
HETATM   41  C   UNK N   1      33.306  17.479   8.506  0.00  0.00     0.022 C 
HETATM   42  C   UNK N   1      34.720  15.764   7.451  0.00  0.00     0.022 C 
ENDBRANCH  37  39
ENDBRANCH  36  37
ENDBRANCH   1  36
TORSDOF 7
ENDMDL
