MODEL 1
REMARK VINA RESULT:      -7.7      0.000      0.000
REMARK  8 active torsions:
REMARK  status: ('A' for Active; 'I' for Inactive)
REMARK    1  A    between atoms: C_2  and  C_4 
REMARK    2  A    between atoms: C_4  and  C_5 
REMARK    3  A    between atoms: C_4  and  C_23 
REMARK    4  A    between atoms: C_4  and  O_29 
REMARK    5  A    between atoms: C_10  and  O_19 
REMARK    6  A    between atoms: C_11  and  O_15 
REMARK    7  A    between atoms: O_15  and  C_16 
REMARK    8  A    between atoms: O_19  and  C_20 
ROOT
HETATM    1  C   UNK N   1      31.079  16.572   8.532  0.00  0.00    -0.017 A 
HETATM    2  C   UNK N   1      30.446  17.332   9.535  0.00  0.00     0.011 A 
HETATM    3  C   UNK N   1      29.388  18.182   9.222  0.00  0.00     0.013 A 
HETATM    4  C   UNK N   1      28.939  18.272   7.908  0.00  0.00    -0.023 A 
HETATM    5  C   UNK N   1      27.963  19.202   7.572  0.00  0.00     0.052 A 
HETATM    6  C   UNK N   1      27.514  19.322   6.247  0.00  0.00     0.109 A 
HETATM    7  C   UNK N   1      28.020  18.438   5.259  0.00  0.00     0.109 A 
HETATM    8  C   UNK N   1      29.033  17.533   5.599  0.00  0.00     0.052 A 
HETATM    9  C   UNK N   1      29.508  17.460   6.908  0.00  0.00    -0.022 A 
HETATM   10  C   UNK N   1      30.576  16.621   7.221  0.00  0.00     0.023 A 
ENDROOT
BRANCH   1  11
HETATM   11  C   UNK N   1      32.365  15.837   8.879  0.00  0.00     0.132 C 
BRANCH  11  12
HETATM   12  C   UNK N   1      32.729  14.654   7.935  0.00  0.00     0.023 C 
HETATM   13  C   UNK N   1      33.113  13.362   8.648  0.00  0.00     0.013 C 
HETATM   14  C   UNK N   1      33.809  15.013   6.927  0.00  0.00     0.013 C 
ENDBRANCH  11  12
BRANCH  11  15
HETATM   15  C   UNK N   1      33.467  16.878   8.845  0.00  0.00     0.080 A 
HETATM   16  C   UNK N   1      33.558  17.963   7.995  0.00  0.00     0.134 A 
HETATM   17  N   UNK N   1      34.640  18.663   8.383  0.00  0.00    -0.293 N 
HETATM   18  N   UNK N   1      35.176  18.035   9.421  0.00  0.00    -0.023 NA
ATOM     19  HN  UNK N   1      34.985  19.522   7.955  1.00  0.00     0.183 HD
HETATM   20  N   UNK N   1      34.481  16.952   9.723  0.00  0.00    -0.284 N 
HETATM   21  H   UNK N   1      34.671  16.319  10.453  0.00  0.00     0.184 HD
ENDBRANCH  11  15
BRANCH  11  22
HETATM   22  O   UNK N   1      32.259  15.335  10.180  0.00  0.00    -0.378 OA
HETATM   23  H   UNK N   1      32.042  15.443  11.120  0.00  0.00     0.211 HD
ENDBRANCH  11  22
ENDBRANCH   1  11
BRANCH   7  24
HETATM   24  O   UNK N   1      27.586  18.446   3.974  0.00  0.00    -0.287 OA
BRANCH  24  25
HETATM   25  C   UNK N   1      26.451  17.795   3.548  0.00  0.00     0.505 C 
HETATM   26  F   UNK N   1      25.943  17.010   4.563  0.00  0.00    -0.184 F 
HETATM   27  F   UNK N   1      25.507  18.732   3.169  0.00  0.00    -0.184 F 
ENDBRANCH  24  25
ENDBRANCH   7  24
BRANCH   6  28
HETATM   28  O   UNK N   1      26.652  20.312   5.903  0.00  0.00    -0.287 OA
BRANCH  28  29
HETATM   29  C   UNK N   1      26.836  21.637   6.252  0.00  0.00     0.505 C 
HETATM   30  F   UNK N   1      26.191  21.906   7.450  0.00  0.00    -0.184 F 
HETATM   31  F   UNK N   1      28.186  21.877   6.420  0.00  0.00    -0.184 F 
ENDBRANCH  28  29
ENDBRANCH   6  28
TORSDOF 8
ENDMDL
MODEL 2
REMARK VINA RESULT:      -7.6      1.139      2.619
REMARK  8 active torsions:
REMARK  status: ('A' for Active; 'I' for Inactive)
REMARK    1  A    between atoms: C_2  and  C_4 
REMARK    2  A    between atoms: C_4  and  C_5 
REMARK    3  A    between atoms: C_4  and  C_23 
REMARK    4  A    between atoms: C_4  and  O_29 
REMARK    5  A    between atoms: C_10  and  O_19 
REMARK    6  A    between atoms: C_11  and  O_15 
REMARK    7  A    between atoms: O_15  and  C_16 
REMARK    8  A    between atoms: O_19  and  C_20 
ROOT
HETATM    1  C   UNK N   1      31.601  16.190   7.765  0.00  0.00    -0.017 A 
HETATM    2  C   UNK N   1      31.469  15.652   6.471  0.00  0.00     0.011 A 
HETATM    3  C   UNK N   1      30.455  16.084   5.620  0.00  0.00     0.013 A 
HETATM    4  C   UNK N   1      29.569  17.070   6.047  0.00  0.00    -0.023 A 
HETATM    5  C   UNK N   1      28.488  17.421   5.248  0.00  0.00     0.052 A 
HETATM    6  C   UNK N   1      27.573  18.398   5.672  0.00  0.00     0.109 A 
HETATM    7  C   UNK N   1      27.796  19.075   6.900  0.00  0.00     0.109 A 
HETATM    8  C   UNK N   1      28.864  18.684   7.715  0.00  0.00     0.052 A 
HETATM    9  C   UNK N   1      29.736  17.676   7.306  0.00  0.00    -0.022 A 
HETATM   10  C   UNK N   1      30.744  17.231   8.161  0.00  0.00     0.023 A 
ENDROOT
BRANCH   1  11
HETATM   11  C   UNK N   1      32.575  15.532   8.731  0.00  0.00     0.132 C 
BRANCH  11  12
HETATM   12  C   UNK N   1      33.193  14.190   8.241  0.00  0.00     0.023 C 
HETATM   13  C   UNK N   1      33.422  13.154   9.336  0.00  0.00     0.013 C 
HETATM   14  C   UNK N   1      34.479  14.384   7.453  0.00  0.00     0.013 C 
ENDBRANCH  11  12
BRANCH  11  15
HETATM   15  C   UNK N   1      33.677  16.545   8.974  0.00  0.00     0.080 A 
HETATM   16  C   UNK N   1      33.965  17.658   8.207  0.00  0.00     0.134 A 
HETATM   17  N   UNK N   1      34.951  18.316   8.844  0.00  0.00    -0.293 N 
HETATM   18  N   UNK N   1      35.243  17.638   9.946  0.00  0.00    -0.023 NA
ATOM     19  HN  UNK N   1      35.395  19.181   8.534  1.00  0.00     0.183 HD
HETATM   20  N   UNK N   1      34.481  16.563  10.050  0.00  0.00    -0.284 N 
HETATM   21  H   UNK N   1      34.500  15.900  10.778  0.00  0.00     0.184 HD
ENDBRANCH  11  15
BRANCH  11  22
HETATM   22  O   UNK N   1      31.913  15.288   9.939  0.00  0.00    -0.378 OA
HETATM   23  H   UNK N   1      31.865  15.327  10.908  0.00  0.00     0.211 HD
ENDBRANCH  11  22
ENDBRANCH   1  11
BRANCH   7  24
HETATM   24  O   UNK N   1      26.996  20.076   7.342  0.00  0.00    -0.287 OA
BRANCH  24  25
HETATM   25  C   UNK N   1      27.085  21.376   6.900  0.00  0.00     0.505 C 
HETATM   26  F   UNK N   1      28.226  21.544   6.142  0.00  0.00    -0.184 F 
HETATM   27  F   UNK N   1      25.971  21.671   6.136  0.00  0.00    -0.184 F 
ENDBRANCH  24  25
ENDBRANCH   7  24
BRANCH   6  28
HETATM   28  O   UNK N   1      26.454  18.649   4.946  0.00  0.00    -0.287 OA
BRANCH  28  29
HETATM   29  C   UNK N   1      26.463  19.334   3.745  0.00  0.00     0.505 C 
HETATM   30  F   UNK N   1      25.366  20.180   3.673  0.00  0.00    -0.184 F 
HETATM   31  F   UNK N   1      27.610  20.100   3.670  0.00  0.00    -0.184 F 
ENDBRANCH  28  29
ENDBRANCH   6  28
TORSDOF 8
ENDMDL
MODEL 3
REMARK VINA RESULT:      -7.4      1.602      2.079
REMARK  8 active torsions:
REMARK  status: ('A' for Active; 'I' for Inactive)
REMARK    1  A    between atoms: C_2  and  C_4 
REMARK    2  A    between atoms: C_4  and  C_5 
REMARK    3  A    between atoms: C_4  and  C_23 
REMARK    4  A    between atoms: C_4  and  O_29 
REMARK    5  A    between atoms: C_10  and  O_19 
REMARK    6  A    between atoms: C_11  and  O_15 
REMARK    7  A    between atoms: O_15  and  C_16 
REMARK    8  A    between atoms: O_19  and  C_20 
ROOT
HETATM    1  C   UNK N   1      31.948  16.400   7.882  0.00  0.00    -0.017 A 
HETATM    2  C   UNK N   1      31.862  17.510   8.743  0.00  0.00     0.011 A 
HETATM    3  C   UNK N   1      30.768  18.370   8.690  0.00  0.00     0.013 A 
HETATM    4  C   UNK N   1      29.739  18.123   7.785  0.00  0.00    -0.023 A 
HETATM    5  C   UNK N   1      28.704  19.040   7.648  0.00  0.00     0.052 A 
HETATM    6  C   UNK N   1      27.669  18.817   6.725  0.00  0.00     0.109 A 
HETATM    7  C   UNK N   1      27.653  17.612   5.975  0.00  0.00     0.109 A 
HETATM    8  C   UNK N   1      28.722  16.716   6.091  0.00  0.00     0.052 A 
HETATM    9  C   UNK N   1      29.771  16.974   6.973  0.00  0.00    -0.022 A 
HETATM   10  C   UNK N   1      30.874  16.122   7.019  0.00  0.00     0.023 A 
ENDROOT
BRANCH   1  11
HETATM   11  C   UNK N   1      33.256  15.625   7.820  0.00  0.00     0.132 C 
BRANCH  11  12
HETATM   12  C   UNK N   1      34.349  16.240   6.899  0.00  0.00     0.023 C 
HETATM   13  C   UNK N   1      33.835  17.255   5.884  0.00  0.00     0.013 C 
HETATM   14  C   UNK N   1      35.178  15.186   6.181  0.00  0.00     0.013 C 
ENDBRANCH  11  12
BRANCH  11  15
HETATM   15  C   UNK N   1      33.769  15.551   9.246  0.00  0.00     0.080 A 
HETATM   16  C   UNK N   1      34.782  16.308   9.803  0.00  0.00     0.134 A 
HETATM   17  N   UNK N   1      34.831  15.977  11.107  0.00  0.00    -0.293 N 
HETATM   18  N   UNK N   1      33.892  15.068  11.330  0.00  0.00    -0.023 NA
ATOM     19  HN  UNK N   1      35.478  16.357  11.799  1.00  0.00     0.183 HD
HETATM   20  N   UNK N   1      33.230  14.796  10.218  0.00  0.00    -0.284 N 
HETATM   21  H   UNK N   1      32.484  14.161  10.120  0.00  0.00     0.184 HD
ENDBRANCH  11  15
BRANCH  11  22
HETATM   22  O   UNK N   1      32.989  14.328   7.369  0.00  0.00    -0.378 OA
HETATM   23  H   UNK N   1      33.220  13.543   6.847  0.00  0.00     0.211 HD
ENDBRANCH  11  22
ENDBRANCH   1  11
BRANCH   7  24
HETATM   24  O   UNK N   1      26.653  17.296   5.117  0.00  0.00    -0.287 OA
BRANCH  24  25
HETATM   25  C   UNK N   1      26.671  17.605   3.775  0.00  0.00     0.505 C 
HETATM   26  F   UNK N   1      25.759  18.605   3.505  0.00  0.00    -0.184 F 
HETATM   27  F   UNK N   1      27.941  18.026   3.426  0.00  0.00    -0.184 F 
ENDBRANCH  24  25
ENDBRANCH   7  24
BRANCH   6  28
HETATM   28  O   UNK N   1      26.729  19.771   6.508  0.00  0.00    -0.287 OA
BRANCH  28  29
HETATM   29  C   UNK N   1      26.946  20.890   5.726  0.00  0.00     0.505 C 
HETATM   30  F   UNK N   1      27.393  21.941   6.513  0.00  0.00    -0.184 F 
HETATM   31  F   UNK N   1      27.917  20.604   4.786  0.00  0.00    -0.184 F 
ENDBRANCH  28  29
ENDBRANCH   6  28
TORSDOF 8
ENDMDL
MODEL 4
REMARK VINA RESULT:      -7.4      4.804      7.015
REMARK  8 active torsions:
REMARK  status: ('A' for Active; 'I' for Inactive)
REMARK    1  A    between atoms: C_2  and  C_4 
REMARK    2  A    between atoms: C_4  and  C_5 
REMARK    3  A    between atoms: C_4  and  C_23 
REMARK    4  A    between atoms: C_4  and  O_29 
REMARK    5  A    between atoms: C_10  and  O_19 
REMARK    6  A    between atoms: C_11  and  O_15 
REMARK    7  A    between atoms: O_15  and  C_16 
REMARK    8  A    between atoms: O_19  and  C_20 
ROOT
HETATM    1  C   UNK N   1      27.021  18.578   4.541  0.00  0.00    -0.017 A 
HETATM    2  C   UNK N   1      27.174  19.762   3.793  0.00  0.00     0.011 A 
HETATM    3  C   UNK N   1      26.064  20.436   3.292  0.00  0.00     0.013 A 
HETATM    4  C   UNK N   1      24.786  19.946   3.544  0.00  0.00    -0.023 A 
HETATM    5  C   UNK N   1      23.684  20.549   2.951  0.00  0.00     0.052 A 
HETATM    6  C   UNK N   1      22.389  20.055   3.178  0.00  0.00     0.109 A 
HETATM    7  C   UNK N   1      22.206  18.968   4.072  0.00  0.00     0.109 A 
HETATM    8  C   UNK N   1      23.326  18.342   4.632  0.00  0.00     0.052 A 
HETATM    9  C   UNK N   1      24.611  18.810   4.357  0.00  0.00    -0.022 A 
HETATM   10  C   UNK N   1      25.725  18.128   4.845  0.00  0.00     0.023 A 
ENDROOT
BRANCH   1  11
HETATM   11  C   UNK N   1      28.259  17.760   4.871  0.00  0.00     0.132 C 
BRANCH  11  12
HETATM   12  C   UNK N   1      28.583  17.627   6.388  0.00  0.00     0.023 C 
HETATM   13  C   UNK N   1      28.207  18.840   7.231  0.00  0.00     0.013 C 
HETATM   14  C   UNK N   1      30.035  17.260   6.653  0.00  0.00     0.013 C 
ENDBRANCH  11  12
BRANCH  11  15
HETATM   15  C   UNK N   1      28.028  16.385   4.274  0.00  0.00     0.080 A 
HETATM   16  C   UNK N   1      28.204  16.014   2.955  0.00  0.00     0.134 A 
HETATM   17  N   UNK N   1      27.978  14.688   2.898  0.00  0.00    -0.293 N 
HETATM   18  N   UNK N   1      27.684  14.275   4.124  0.00  0.00    -0.023 NA
ATOM     19  HN  UNK N   1      28.023  14.106   2.062  1.00  0.00     0.183 HD
HETATM   20  N   UNK N   1      27.712  15.285   4.977  0.00  0.00    -0.284 N 
HETATM   21  H   UNK N   1      27.536  15.240   5.945  0.00  0.00     0.184 HD
ENDBRANCH  11  15
BRANCH  11  22
HETATM   22  O   UNK N   1      29.365  18.344   4.243  0.00  0.00    -0.378 OA
HETATM   23  H   UNK N   1      30.125  18.299   3.642  0.00  0.00     0.211 HD
ENDBRANCH  11  22
ENDBRANCH   1  11
BRANCH   7  24
HETATM   24  O   UNK N   1      20.983  18.480   4.394  0.00  0.00    -0.287 OA
BRANCH  24  25
HETATM   25  C   UNK N   1      20.369  17.451   3.717  0.00  0.00     0.505 C 
HETATM   26  F   UNK N   1      19.185  17.887   3.159  0.00  0.00    -0.184 F 
HETATM   27  F   UNK N   1      21.214  16.997   2.721  0.00  0.00    -0.184 F 
ENDBRANCH  24  25
ENDBRANCH   7  24
BRANCH   6  28
HETATM   28  O   UNK N   1      21.332  20.570   2.501  0.00  0.00    -0.287 OA
BRANCH  28  29
HETATM   29  C   UNK N   1      21.149  20.412   1.140  0.00  0.00     0.505 C 
HETATM   30  F   UNK N   1      20.636  19.151   0.873  0.00  0.00    -0.184 F 
HETATM   31  F   UNK N   1      20.243  21.354   0.693  0.00  0.00    -0.184 F 
ENDBRANCH  28  29
ENDBRANCH   6  28
TORSDOF 8
ENDMDL
MODEL 5
REMARK VINA RESULT:      -7.4      4.515      6.499
REMARK  8 active torsions:
REMARK  status: ('A' for Active; 'I' for Inactive)
REMARK    1  A    between atoms: C_2  and  C_4 
REMARK    2  A    between atoms: C_4  and  C_5 
REMARK    3  A    between atoms: C_4  and  C_23 
REMARK    4  A    between atoms: C_4  and  O_29 
REMARK    5  A    between atoms: C_10  and  O_19 
REMARK    6  A    between atoms: C_11  and  O_15 
REMARK    7  A    between atoms: O_15  and  C_16 
REMARK    8  A    between atoms: O_19  and  C_20 
ROOT
HETATM    1  C   UNK N   1      26.818  18.345   5.064  0.00  0.00    -0.017 A 
HETATM    2  C   UNK N   1      27.244  19.461   4.319  0.00  0.00     0.011 A 
HETATM    3  C   UNK N   1      26.327  20.246   3.624  0.00  0.00     0.013 A 
HETATM    4  C   UNK N   1      24.971  19.934   3.676  0.00  0.00    -0.023 A 
HETATM    5  C   UNK N   1      24.068  20.642   2.894  0.00  0.00     0.052 A 
HETATM    6  C   UNK N   1      22.700  20.327   2.918  0.00  0.00     0.109 A 
HETATM    7  C   UNK N   1      22.234  19.317   3.800  0.00  0.00     0.109 A 
HETATM    8  C   UNK N   1      23.158  18.582   4.553  0.00  0.00     0.052 A 
HETATM    9  C   UNK N   1      24.520  18.870   4.480  0.00  0.00    -0.022 A 
HETATM   10  C   UNK N   1      25.442  18.078   5.164  0.00  0.00     0.023 A 
ENDROOT
BRANCH   1  11
HETATM   11  C   UNK N   1      27.868  17.394   5.616  0.00  0.00     0.132 C 
BRANCH  11  12
HETATM   12  C   UNK N   1      29.279  17.514   4.969  0.00  0.00     0.023 C 
HETATM   13  C   UNK N   1      29.413  16.857   3.600  0.00  0.00     0.013 C 
HETATM   14  C   UNK N   1      30.391  17.014   5.879  0.00  0.00     0.013 C 
ENDBRANCH  11  12
BRANCH  11  15
HETATM   15  C   UNK N   1      27.960  17.684   7.102  0.00  0.00     0.080 A 
HETATM   16  C   UNK N   1      28.367  18.864   7.693  0.00  0.00     0.134 A 
HETATM   17  N   UNK N   1      28.199  18.705   9.020  0.00  0.00    -0.293 N 
HETATM   18  N   UNK N   1      27.709  17.489   9.221  0.00  0.00    -0.023 NA
ATOM     19  HN  UNK N   1      28.411  19.396   9.739  1.00  0.00     0.183 HD
HETATM   20  N   UNK N   1      27.550  16.851   8.074  0.00  0.00    -0.284 N 
HETATM   21  H   UNK N   1      27.199  15.939   7.954  0.00  0.00     0.184 HD
ENDBRANCH  11  15
BRANCH  11  22
HETATM   22  O   UNK N   1      27.422  16.080   5.440  0.00  0.00    -0.378 OA
HETATM   23  H   UNK N   1      26.739  15.439   5.185  0.00  0.00     0.211 HD
ENDBRANCH  11  22
ENDBRANCH   1  11
BRANCH   7  24
HETATM   24  O   UNK N   1      20.921  19.004   3.930  0.00  0.00    -0.287 OA
BRANCH  24  25
HETATM   25  C   UNK N   1      20.436  17.716   3.895  0.00  0.00     0.505 C 
HETATM   26  F   UNK N   1      20.305  17.222   5.177  0.00  0.00    -0.184 F 
HETATM   27  F   UNK N   1      19.205  17.713   3.267  0.00  0.00    -0.184 F 
ENDBRANCH  24  25
ENDBRANCH   7  24
BRANCH   6  28
HETATM   28  O   UNK N   1      21.842  20.937   2.063  0.00  0.00    -0.287 OA
BRANCH  28  29
HETATM   29  C   UNK N   1      21.048  20.252   1.162  0.00  0.00     0.505 C 
HETATM   30  F   UNK N   1      19.756  20.144   1.655  0.00  0.00    -0.184 F 
HETATM   31  F   UNK N   1      21.004  20.954  -0.027  0.00  0.00    -0.184 F 
ENDBRANCH  28  29
ENDBRANCH   6  28
TORSDOF 8
ENDMDL
MODEL 6
REMARK VINA RESULT:      -7.1     12.729     15.095
REMARK  8 active torsions:
REMARK  status: ('A' for Active; 'I' for Inactive)
REMARK    1  A    between atoms: C_2  and  C_4 
REMARK    2  A    between atoms: C_4  and  C_5 
REMARK    3  A    between atoms: C_4  and  C_23 
REMARK    4  A    between atoms: C_4  and  O_29 
REMARK    5  A    between atoms: C_10  and  O_19 
REMARK    6  A    between atoms: C_11  and  O_15 
REMARK    7  A    between atoms: O_15  and  C_16 
REMARK    8  A    between atoms: O_19  and  C_20 
ROOT
HETATM    1  C   UNK N   1      28.070  23.948  -4.311  0.00  0.00    -0.017 A 
HETATM    2  C   UNK N   1      28.614  23.772  -3.025  0.00  0.00     0.011 A 
HETATM    3  C   UNK N   1      29.626  22.842  -2.801  0.00  0.00     0.013 A 
HETATM    4  C   UNK N   1      30.117  22.087  -3.862  0.00  0.00    -0.023 A 
HETATM    5  C   UNK N   1      31.043  21.079  -3.624  0.00  0.00     0.052 A 
HETATM    6  C   UNK N   1      31.533  20.293  -4.680  0.00  0.00     0.109 A 
HETATM    7  C   UNK N   1      31.123  20.579  -6.008  0.00  0.00     0.109 A 
HETATM    8  C   UNK N   1      30.159  21.569  -6.232  0.00  0.00     0.052 A 
HETATM    9  C   UNK N   1      29.641  22.307  -5.169  0.00  0.00    -0.022 A 
HETATM   10  C   UNK N   1      28.617  23.229  -5.387  0.00  0.00     0.023 A 
ENDROOT
BRANCH   1  11
HETATM   11  C   UNK N   1      26.822  24.805  -4.463  0.00  0.00     0.132 C 
BRANCH  11  12
HETATM   12  C   UNK N   1      27.076  26.337  -4.562  0.00  0.00     0.023 C 
HETATM   13  C   UNK N   1      28.545  26.739  -4.631  0.00  0.00     0.013 C 
HETATM   14  C   UNK N   1      26.390  27.123  -3.456  0.00  0.00     0.013 C 
ENDBRANCH  11  12
BRANCH  11  15
HETATM   15  C   UNK N   1      26.127  24.318  -5.720  0.00  0.00     0.080 A 
HETATM   16  C   UNK N   1      26.113  24.940  -6.954  0.00  0.00     0.134 A 
HETATM   17  N   UNK N   1      25.462  24.111  -7.792  0.00  0.00    -0.293 N 
HETATM   18  N   UNK N   1      25.104  23.038  -7.101  0.00  0.00    -0.023 NA
ATOM     19  HN  UNK N   1      25.278  24.280  -8.781  1.00  0.00     0.183 HD
HETATM   20  N   UNK N   1      25.500  23.137  -5.843  0.00  0.00    -0.284 N 
HETATM   21  H   UNK N   1      25.361  22.471  -5.131  0.00  0.00     0.184 HD
ENDBRANCH  11  15
BRANCH  11  22
HETATM   22  O   UNK N   1      25.984  24.576  -3.367  0.00  0.00    -0.378 OA
HETATM   23  H   UNK N   1      25.430  24.895  -2.636  0.00  0.00     0.211 HD
ENDBRANCH  11  22
ENDBRANCH   1  11
BRANCH   7  24
HETATM   24  O   UNK N   1      31.604  19.911  -7.085  0.00  0.00    -0.287 OA
BRANCH  24  25
HETATM   25  C   UNK N   1      30.806  19.370  -8.068  0.00  0.00     0.505 C 
HETATM   26  F   UNK N   1      31.548  18.536  -8.879  0.00  0.00    -0.184 F 
HETATM   27  F   UNK N   1      29.783  18.652  -7.475  0.00  0.00    -0.184 F 
ENDBRANCH  24  25
ENDBRANCH   7  24
BRANCH   6  28
HETATM   28  O   UNK N   1      32.341  19.233  -4.426  0.00  0.00    -0.287 OA
BRANCH  28  29
HETATM   29  C   UNK N   1      33.714  19.336  -4.299  0.00  0.00     0.505 C 
HETATM   30  F   UNK N   1      34.031  20.210  -3.269  0.00  0.00    -0.184 F 
HETATM   31  F   UNK N   1      34.234  18.093  -3.992  0.00  0.00    -0.184 F 
ENDBRANCH  28  29
ENDBRANCH   6  28
TORSDOF 8
ENDMDL
MODEL 7
REMARK VINA RESULT:      -7.0     13.037     15.747
REMARK  8 active torsions:
REMARK  status: ('A' for Active; 'I' for Inactive)
REMARK    1  A    between atoms: C_2  and  C_4 
REMARK    2  A    between atoms: C_4  and  C_5 
REMARK    3  A    between atoms: C_4  and  C_23 
REMARK    4  A    between atoms: C_4  and  O_29 
REMARK    5  A    between atoms: C_10  and  O_19 
REMARK    6  A    between atoms: C_11  and  O_15 
REMARK    7  A    between atoms: O_15  and  C_16 
REMARK    8  A    between atoms: O_19  and  C_20 
ROOT
HETATM    1  C   UNK N   1      27.356  24.047  -5.483  0.00  0.00    -0.017 A 
HETATM    2  C   UNK N   1      27.786  24.342  -4.175  0.00  0.00     0.011 A 
HETATM    3  C   UNK N   1      28.903  23.712  -3.634  0.00  0.00     0.013 A 
HETATM    4  C   UNK N   1      29.614  22.790  -4.397  0.00  0.00    -0.023 A 
HETATM    5  C   UNK N   1      30.658  22.075  -3.823  0.00  0.00     0.052 A 
HETATM    6  C   UNK N   1      31.372  21.126  -4.572  0.00  0.00     0.109 A 
HETATM    7  C   UNK N   1      31.061  20.946  -5.945  0.00  0.00     0.109 A 
HETATM    8  C   UNK N   1      29.981  21.641  -6.502  0.00  0.00     0.052 A 
HETATM    9  C   UNK N   1      29.246  22.543  -5.733  0.00  0.00    -0.022 A 
HETATM   10  C   UNK N   1      28.118  23.165  -6.268  0.00  0.00     0.023 A 
ENDROOT
BRANCH   1  11
HETATM   11  C   UNK N   1      26.011  24.586  -5.947  0.00  0.00     0.132 C 
BRANCH  11  12
HETATM   12  C   UNK N   1      26.056  25.981  -6.636  0.00  0.00     0.023 C 
HETATM   13  C   UNK N   1      27.451  26.580  -6.776  0.00  0.00     0.013 C 
HETATM   14  C   UNK N   1      25.136  26.996  -5.976  0.00  0.00     0.013 C 
ENDBRANCH  11  12
BRANCH  11  15
HETATM   15  C   UNK N   1      25.454  23.556  -6.911  0.00  0.00     0.080 A 
HETATM   16  C   UNK N   1      25.086  22.257  -6.615  0.00  0.00     0.134 A 
HETATM   17  N   UNK N   1      24.559  21.744  -7.743  0.00  0.00    -0.293 N 
HETATM   18  N   UNK N   1      24.602  22.687  -8.675  0.00  0.00    -0.023 NA
ATOM     19  HN  UNK N   1      24.193  20.799  -7.860  1.00  0.00     0.183 HD
HETATM   20  N   UNK N   1      25.137  23.797  -8.194  0.00  0.00    -0.284 N 
HETATM   21  H   UNK N   1      25.276  24.640  -8.683  0.00  0.00     0.184 HD
ENDBRANCH  11  15
BRANCH  11  22
HETATM   22  O   UNK N   1      25.158  24.676  -4.842  0.00  0.00    -0.378 OA
HETATM   23  H   UNK N   1      24.659  24.270  -4.115  0.00  0.00     0.211 HD
ENDBRANCH  11  22
ENDBRANCH   1  11
BRANCH   7  24
HETATM   24  O   UNK N   1      31.750  20.100  -6.749  0.00  0.00    -0.287 OA
BRANCH  24  25
HETATM   25  C   UNK N   1      31.233  19.550  -7.901  0.00  0.00     0.505 C 
HETATM   26  F   UNK N   1      32.192  18.789  -8.537  0.00  0.00    -0.184 F 
HETATM   27  F   UNK N   1      30.149  18.756  -7.575  0.00  0.00    -0.184 F 
ENDBRANCH  24  25
ENDBRANCH   7  24
BRANCH   6  28
HETATM   28  O   UNK N   1      32.307  20.345  -3.974  0.00  0.00    -0.287 OA
BRANCH  28  29
HETATM   29  C   UNK N   1      33.487  20.836  -3.449  0.00  0.00     0.505 C 
HETATM   30  F   UNK N   1      33.348  21.050  -2.086  0.00  0.00    -0.184 F 
HETATM   31  F   UNK N   1      34.491  19.908  -3.645  0.00  0.00    -0.184 F 
ENDBRANCH  28  29
ENDBRANCH   6  28
TORSDOF 8
ENDMDL
MODEL 8
REMARK VINA RESULT:      -7.0      6.684      9.897
REMARK  8 active torsions:
REMARK  status: ('A' for Active; 'I' for Inactive)
REMARK    1  A    between atoms: C_2  and  C_4 
REMARK    2  A    between atoms: C_4  and  C_5 
REMARK    3  A    between atoms: C_4  and  C_23 
REMARK    4  A    between atoms: C_4  and  O_29 
REMARK    5  A    between atoms: C_10  and  O_19 
REMARK    6  A    between atoms: C_11  and  O_15 
REMARK    7  A    between atoms: O_15  and  C_16 
REMARK    8  A    between atoms: O_19  and  C_20 
ROOT
HETATM    1  C   UNK N   1      34.265  15.459   9.726  0.00  0.00    -0.017 A 
HETATM    2  C   UNK N   1      35.038  16.416  10.412  0.00  0.00     0.011 A 
HETATM    3  C   UNK N   1      35.713  16.079  11.582  0.00  0.00     0.013 A 
HETATM    4  C   UNK N   1      35.638  14.779  12.074  0.00  0.00    -0.023 A 
HETATM    5  C   UNK N   1      36.214  14.468  13.299  0.00  0.00     0.052 A 
HETATM    6  C   UNK N   1      36.130  13.167  13.820  0.00  0.00     0.109 A 
HETATM    7  C   UNK N   1      35.504  12.150  13.053  0.00  0.00     0.109 A 
HETATM    8  C   UNK N   1      34.891  12.483  11.839  0.00  0.00     0.052 A 
HETATM    9  C   UNK N   1      34.937  13.791  11.358  0.00  0.00    -0.022 A 
HETATM   10  C   UNK N   1      34.250  14.134  10.194  0.00  0.00     0.023 A 
ENDROOT
BRANCH   1  11
HETATM   11  C   UNK N   1      33.370  15.925   8.588  0.00  0.00     0.132 C 
BRANCH  11  12
HETATM   12  C   UNK N   1      33.015  17.441   8.601  0.00  0.00     0.023 C 
HETATM   13  C   UNK N   1      31.570  17.762   8.234  0.00  0.00     0.013 C 
HETATM   14  C   UNK N   1      33.951  18.275   7.739  0.00  0.00     0.013 C 
ENDBRANCH  11  12
BRANCH  11  15
HETATM   15  C   UNK N   1      34.104  15.582   7.306  0.00  0.00     0.080 A 
HETATM   16  C   UNK N   1      33.553  15.442   6.047  0.00  0.00     0.134 A 
HETATM   17  N   UNK N   1      34.581  15.233   5.202  0.00  0.00    -0.293 N 
HETATM   18  N   UNK N   1      35.699  15.249   5.914  0.00  0.00    -0.023 NA
ATOM     19  HN  UNK N   1      34.510  15.086   4.195  1.00  0.00     0.183 HD
HETATM   20  N   UNK N   1      35.438  15.464   7.192  0.00  0.00    -0.284 N 
HETATM   21  H   UNK N   1      36.095  15.525   7.923  0.00  0.00     0.184 HD
ENDBRANCH  11  15
BRANCH  11  22
HETATM   22  O   UNK N   1      32.174  15.201   8.631  0.00  0.00    -0.378 OA
HETATM   23  H   UNK N   1      31.671  14.380   8.510  0.00  0.00     0.211 HD
ENDBRANCH  11  22
ENDBRANCH   1  11
BRANCH   7  24
HETATM   24  O   UNK N   1      35.444  10.857  13.457  0.00  0.00    -0.287 OA
BRANCH  24  25
HETATM   25  C   UNK N   1      34.279  10.227  13.830  0.00  0.00     0.505 C 
HETATM   26  F   UNK N   1      33.455  11.108  14.500  0.00  0.00    -0.184 F 
HETATM   27  F   UNK N   1      33.637   9.758  12.699  0.00  0.00    -0.184 F 
ENDBRANCH  24  25
ENDBRANCH   7  24
BRANCH   6  28
HETATM   28  O   UNK N   1      36.586  12.899  15.069  0.00  0.00    -0.287 OA
BRANCH  28  29
HETATM   29  C   UNK N   1      35.790  12.950  16.198  0.00  0.00     0.505 C 
HETATM   30  F   UNK N   1      34.522  13.402  15.864  0.00  0.00    -0.184 F 
HETATM   31  F   UNK N   1      35.675  11.679  16.728  0.00  0.00    -0.184 F 
ENDBRANCH  28  29
ENDBRANCH   6  28
TORSDOF 8
ENDMDL
MODEL 9
REMARK VINA RESULT:      -6.9      5.011      7.447
REMARK  8 active torsions:
REMARK  status: ('A' for Active; 'I' for Inactive)
REMARK    1  A    between atoms: C_2  and  C_4 
REMARK    2  A    between atoms: C_4  and  C_5 
REMARK    3  A    between atoms: C_4  and  C_23 
REMARK    4  A    between atoms: C_4  and  O_29 
REMARK    5  A    between atoms: C_10  and  O_19 
REMARK    6  A    between atoms: C_11  and  O_15 
REMARK    7  A    between atoms: O_15  and  C_16 
REMARK    8  A    between atoms: O_19  and  C_20 
ROOT
HETATM    1  C   UNK N   1      28.575  17.508   6.056  0.00  0.00    -0.017 A 
HETATM    2  C   UNK N   1      28.389  18.003   7.360  0.00  0.00     0.011 A 
HETATM    3  C   UNK N   1      29.469  18.151   8.227  0.00  0.00     0.013 A 
HETATM    4  C   UNK N   1      30.751  17.819   7.796  0.00  0.00    -0.023 A 
HETATM    5  C   UNK N   1      31.812  17.855   8.691  0.00  0.00     0.052 A 
HETATM    6  C   UNK N   1      33.108  17.504   8.278  0.00  0.00     0.109 A 
HETATM    7  C   UNK N   1      33.339  17.172   6.918  0.00  0.00     0.109 A 
HETATM    8  C   UNK N   1      32.255  17.099   6.035  0.00  0.00     0.052 A 
HETATM    9  C   UNK N   1      30.965  17.399   6.469  0.00  0.00    -0.022 A 
HETATM   10  C   UNK N   1      29.880  17.239   5.609  0.00  0.00     0.023 A 
ENDROOT
BRANCH   1  11
HETATM   11  C   UNK N   1      27.348  17.153   5.230  0.00  0.00     0.132 C 
BRANCH  11  12
HETATM   12  C   UNK N   1      27.070  18.089   4.017  0.00  0.00     0.023 C 
HETATM   13  C   UNK N   1      27.565  19.521   4.187  0.00  0.00     0.013 C 
HETATM   14  C   UNK N   1      25.605  18.107   3.608  0.00  0.00     0.013 C 
ENDBRANCH  11  12
BRANCH  11  15
HETATM   15  C   UNK N   1      27.565  15.733   4.742  0.00  0.00     0.080 A 
HETATM   16  C   UNK N   1      27.408  14.572   5.474  0.00  0.00     0.134 A 
HETATM   17  N   UNK N   1      27.609  13.552   4.619  0.00  0.00    -0.293 N 
HETATM   18  N   UNK N   1      27.870  14.069   3.427  0.00  0.00    -0.023 NA
ATOM     19  HN  UNK N   1      27.569  12.559   4.849  1.00  0.00     0.183 HD
HETATM   20  N   UNK N   1      27.845  15.390   3.474  0.00  0.00    -0.284 N 
HETATM   21  H   UNK N   1      28.002  16.007   2.722  0.00  0.00     0.184 HD
ENDBRANCH  11  15
BRANCH  11  22
HETATM   22  O   UNK N   1      26.224  17.178   6.061  0.00  0.00    -0.378 OA
HETATM   23  H   UNK N   1      25.296  16.962   6.246  0.00  0.00     0.211 HD
ENDBRANCH  11  22
ENDBRANCH   1  11
BRANCH   7  24
HETATM   24  O   UNK N   1      34.572  16.889   6.431  0.00  0.00    -0.287 OA
BRANCH  24  25
HETATM   25  C   UNK N   1      34.985  15.621   6.086  0.00  0.00     0.505 C 
HETATM   26  F   UNK N   1      34.330  14.682   6.857  0.00  0.00    -0.184 F 
HETATM   27  F   UNK N   1      34.706  15.403   4.750  0.00  0.00    -0.184 F 
ENDBRANCH  24  25
ENDBRANCH   7  24
BRANCH   6  28
HETATM   28  O   UNK N   1      34.116  17.422   9.183  0.00  0.00    -0.287 OA
BRANCH  28  29
HETATM   29  C   UNK N   1      34.446  16.259   9.853  0.00  0.00     0.505 C 
HETATM   30  F   UNK N   1      33.471  15.295   9.639  0.00  0.00    -0.184 F 
HETATM   31  F   UNK N   1      35.646  15.781   9.366  0.00  0.00    -0.184 F 
ENDBRANCH  28  29
ENDBRANCH   6  28
TORSDOF 8
ENDMDL
