MODEL 1
REMARK VINA RESULT:      -5.6      0.000      0.000
REMARK  5 active torsions:
REMARK  status: ('A' for Active; 'I' for Inactive)
REMARK    1  A    between atoms: C_5  and  C_7 
REMARK    2  A    between atoms: C_7  and  C_8 
REMARK    3  A    between atoms: C_7  and  O_13 
REMARK    4  A    between atoms: C_8  and  O_9 
REMARK    5  A    between atoms: O_9  and  C_10 
REMARK       I    between atoms: C_10  and  N_12 
ROOT
HETATM    1  C   UNK N   1      27.423  24.079  -3.516  0.00  0.00     0.177 C 
ENDROOT
BRANCH   1   2
HETATM    2  C   UNK N   1      26.590  25.210  -4.109  0.00  0.00    -0.006 A 
HETATM    3  C   UNK N   1      25.882  25.139  -5.348  0.00  0.00     0.043 A 
HETATM    4  C   UNK N   1      25.161  26.250  -5.797  0.00  0.00     0.024 A 
HETATM    5 Cl   UNK N   1      25.867  23.726  -6.396  0.00  0.00    -0.084 Cl
HETATM    6  C   UNK N   1      25.122  27.427  -5.052  0.00  0.00     0.002 A 
HETATM    7  C   UNK N   1      25.815  27.510  -3.848  0.00  0.00     0.001 A 
HETATM    8  C   UNK N   1      26.545  26.414  -3.386  0.00  0.00     0.011 A 
ENDBRANCH   1   2
BRANCH   1   9
HETATM    9  C   UNK N   1      28.924  24.321  -3.635  0.00  0.00     0.217 C 
BRANCH   9  10
HETATM   10  O   UNK N   1      29.617  23.130  -3.592  0.00  0.00    -0.301 OA
BRANCH  10  11
HETATM   11  C   UNK N   1      30.456  22.817  -2.574  0.00  0.00     0.358 C 
HETATM   12  O   UNK N   1      30.170  23.097  -1.419  0.00  0.00    -0.239 OA
HETATM   13  N   UNK N   1      31.619  22.191  -2.837  0.00  0.00    -0.346 N 
HETATM   14  H   UNK N   1      31.771  21.758  -3.708  0.00  0.00     0.161 HD
HETATM   15  H   UNK N   1      32.325  22.166  -2.152  0.00  0.00     0.161 HD
ENDBRANCH  10  11
ENDBRANCH   9  10
ENDBRANCH   1   9
BRANCH   1  16
HETATM   16  O   UNK N   1      27.131  23.809  -2.181  0.00  0.00    -0.389 OA
HETATM   17  H   UNK N   1      26.961  24.538  -1.565  0.00  0.00     0.210 HD
ENDBRANCH   1  16
TORSDOF 5
ENDMDL
MODEL 2
REMARK VINA RESULT:      -5.4     17.464     18.874
REMARK  5 active torsions:
REMARK  status: ('A' for Active; 'I' for Inactive)
REMARK    1  A    between atoms: C_5  and  C_7 
REMARK    2  A    between atoms: C_7  and  C_8 
REMARK    3  A    between atoms: C_7  and  O_13 
REMARK    4  A    between atoms: C_8  and  O_9 
REMARK    5  A    between atoms: O_9  and  C_10 
REMARK       I    between atoms: C_10  and  N_12 
ROOT
HETATM    1  C   UNK N   1      20.677  14.006   8.985  0.00  0.00     0.177 C 
ENDROOT
BRANCH   1   2
HETATM    2  C   UNK N   1      21.876  13.329   9.640  0.00  0.00    -0.006 A 
HETATM    3  C   UNK N   1      21.811  12.502  10.803  0.00  0.00     0.043 A 
HETATM    4  C   UNK N   1      22.985  11.944  11.321  0.00  0.00     0.024 A 
HETATM    5 Cl   UNK N   1      20.326  12.139  11.674  0.00  0.00    -0.084 Cl
HETATM    6  C   UNK N   1      24.218  12.184  10.718  0.00  0.00     0.002 A 
HETATM    7  C   UNK N   1      24.293  12.995   9.590  0.00  0.00     0.001 A 
HETATM    8  C   UNK N   1      23.134  13.564   9.061  0.00  0.00     0.011 A 
ENDBRANCH   1   2
BRANCH   1   9
HETATM    9  C   UNK N   1      20.840  15.518   8.867  0.00  0.00     0.217 C 
BRANCH   9  10
HETATM   10  O   UNK N   1      19.640  16.159   9.089  0.00  0.00    -0.301 OA
BRANCH  10  11
HETATM   11  C   UNK N   1      19.478  17.488   8.871  0.00  0.00     0.358 C 
HETATM   12  O   UNK N   1      20.328  18.132   8.273  0.00  0.00    -0.239 OA
HETATM   13  N   UNK N   1      18.369  18.107   9.320  0.00  0.00    -0.346 N 
HETATM   14  H   UNK N   1      17.580  17.587   9.597  0.00  0.00     0.161 HD
HETATM   15  H   UNK N   1      18.347  19.089   9.371  0.00  0.00     0.161 HD
ENDBRANCH  10  11
ENDBRANCH   9  10
ENDBRANCH   1   9
BRANCH   1  16
HETATM   16  O   UNK N   1      20.369  13.503   7.723  0.00  0.00    -0.389 OA
HETATM   17  H   UNK N   1      21.077  13.185   7.142  0.00  0.00     0.210 HD
ENDBRANCH   1  16
TORSDOF 5
ENDMDL
MODEL 3
REMARK VINA RESULT:      -5.4     22.218     24.992
REMARK  5 active torsions:
REMARK  status: ('A' for Active; 'I' for Inactive)
REMARK    1  A    between atoms: C_5  and  C_7 
REMARK    2  A    between atoms: C_7  and  C_8 
REMARK    3  A    between atoms: C_7  and  O_13 
REMARK    4  A    between atoms: C_8  and  O_9 
REMARK    5  A    between atoms: O_9  and  C_10 
REMARK       I    between atoms: C_10  and  N_12 
ROOT
HETATM    1  C   UNK N   1      35.016  13.120  15.798  0.00  0.00     0.177 C 
ENDROOT
BRANCH   1   2
HETATM    2  C   UNK N   1      35.134  12.520  17.194  0.00  0.00    -0.006 A 
HETATM    3  C   UNK N   1      35.204  13.276  18.404  0.00  0.00     0.043 A 
HETATM    4  C   UNK N   1      35.325  12.612  19.629  0.00  0.00     0.024 A 
HETATM    5 Cl   UNK N   1      35.174  15.034  18.472  0.00  0.00    -0.084 Cl
HETATM    6  C   UNK N   1      35.377  11.220  19.687  0.00  0.00     0.002 A 
HETATM    7  C   UNK N   1      35.317  10.475  18.513  0.00  0.00     0.001 A 
HETATM    8  C   UNK N   1      35.202  11.119  17.281  0.00  0.00     0.011 A 
ENDBRANCH   1   2
BRANCH   1   9
HETATM    9  C   UNK N   1      36.361  13.246  15.090  0.00  0.00     0.217 C 
BRANCH   9  10
HETATM   10  O   UNK N   1      36.348  14.296  14.196  0.00  0.00    -0.301 OA
BRANCH  10  11
HETATM   11  C   UNK N   1      36.070  14.122  12.881  0.00  0.00     0.358 C 
HETATM   12  O   UNK N   1      34.914  14.115  12.481  0.00  0.00    -0.239 OA
HETATM   13  N   UNK N   1      37.078  13.953  12.003  0.00  0.00    -0.346 N 
HETATM   14  H   UNK N   1      38.004  14.177  12.251  0.00  0.00     0.161 HD
HETATM   15  H   UNK N   1      36.886  13.603  11.103  0.00  0.00     0.161 HD
ENDBRANCH  10  11
ENDBRANCH   9  10
ENDBRANCH   1   9
BRANCH   1  16
HETATM   16  O   UNK N   1      34.148  12.423  14.959  0.00  0.00    -0.389 OA
HETATM   17  H   UNK N   1      34.504  11.840  14.272  0.00  0.00     0.210 HD
ENDBRANCH   1  16
TORSDOF 5
ENDMDL
MODEL 4
REMARK VINA RESULT:      -5.3     13.656     15.358
REMARK  5 active torsions:
REMARK  status: ('A' for Active; 'I' for Inactive)
REMARK    1  A    between atoms: C_5  and  C_7 
REMARK    2  A    between atoms: C_7  and  C_8 
REMARK    3  A    between atoms: C_7  and  O_13 
REMARK    4  A    between atoms: C_8  and  O_9 
REMARK    5  A    between atoms: O_9  and  C_10 
REMARK       I    between atoms: C_10  and  N_12 
ROOT
HETATM    1  C   UNK N   1      33.773  18.062   8.062  0.00  0.00     0.177 C 
ENDROOT
BRANCH   1   2
HETATM    2  C   UNK N   1      32.936  17.654   6.856  0.00  0.00    -0.006 A 
HETATM    3  C   UNK N   1      31.546  17.324   6.901  0.00  0.00     0.043 A 
HETATM    4  C   UNK N   1      30.886  16.949   5.725  0.00  0.00     0.024 A 
HETATM    5 Cl   UNK N   1      30.578  17.329   8.370  0.00  0.00    -0.084 Cl
HETATM    6  C   UNK N   1      31.565  16.894   4.509  0.00  0.00     0.002 A 
HETATM    7  C   UNK N   1      32.920  17.205   4.457  0.00  0.00     0.001 A 
HETATM    8  C   UNK N   1      33.597  17.576   5.619  0.00  0.00     0.011 A 
ENDBRANCH   1   2
BRANCH   1   9
HETATM    9  C   UNK N   1      34.208  16.874   8.913  0.00  0.00     0.217 C 
BRANCH   9  10
HETATM   10  O   UNK N   1      35.154  17.255   9.841  0.00  0.00    -0.301 OA
BRANCH  10  11
HETATM   11  C   UNK N   1      35.654  16.393  10.760  0.00  0.00     0.358 C 
HETATM   12  O   UNK N   1      36.859  16.204  10.850  0.00  0.00    -0.239 OA
HETATM   13  N   UNK N   1      34.815  15.736  11.584  0.00  0.00    -0.346 N 
HETATM   14  H   UNK N   1      33.881  16.030  11.689  0.00  0.00     0.161 HD
HETATM   15  H   UNK N   1      35.139  14.954  12.086  0.00  0.00     0.161 HD
ENDBRANCH  10  11
ENDBRANCH   9  10
ENDBRANCH   1   9
BRANCH   1  16
HETATM   16  O   UNK N   1      34.908  18.799   7.733  0.00  0.00    -0.389 OA
HETATM   17  H   UNK N   1      34.823  19.729   7.471  0.00  0.00     0.210 HD
ENDBRANCH   1  16
TORSDOF 5
ENDMDL
MODEL 5
REMARK VINA RESULT:      -5.2     14.065     14.522
REMARK  5 active torsions:
REMARK  status: ('A' for Active; 'I' for Inactive)
REMARK    1  A    between atoms: C_5  and  C_7 
REMARK    2  A    between atoms: C_7  and  C_8 
REMARK    3  A    between atoms: C_7  and  O_13 
REMARK    4  A    between atoms: C_8  and  O_9 
REMARK    5  A    between atoms: O_9  and  C_10 
REMARK       I    between atoms: C_10  and  N_12 
ROOT
HETATM    1  C   UNK N   1      32.000  16.594   7.035  0.00  0.00     0.177 C 
ENDROOT
BRANCH   1   2
HETATM    2  C   UNK N   1      30.760  17.219   7.664  0.00  0.00    -0.006 A 
HETATM    3  C   UNK N   1      29.425  17.037   7.189  0.00  0.00     0.043 A 
HETATM    4  C   UNK N   1      28.366  17.675   7.843  0.00  0.00     0.024 A 
HETATM    5 Cl   UNK N   1      29.000  16.061   5.789  0.00  0.00    -0.084 Cl
HETATM    6  C   UNK N   1      28.594  18.487   8.953  0.00  0.00     0.002 A 
HETATM    7  C   UNK N   1      29.892  18.678   9.418  0.00  0.00     0.001 A 
HETATM    8  C   UNK N   1      30.962  18.054   8.776  0.00  0.00     0.011 A 
ENDBRANCH   1   2
BRANCH   1   9
HETATM    9  C   UNK N   1      33.069  17.622   6.681  0.00  0.00     0.217 C 
BRANCH   9  10
HETATM   10  O   UNK N   1      34.251  17.346   7.335  0.00  0.00    -0.301 OA
BRANCH  10  11
HETATM   11  C   UNK N   1      34.624  18.000   8.463  0.00  0.00     0.358 C 
HETATM   12  O   UNK N   1      35.085  19.131   8.407  0.00  0.00    -0.239 OA
HETATM   13  N   UNK N   1      34.486  17.397   9.660  0.00  0.00    -0.346 N 
HETATM   14  H   UNK N   1      33.921  16.597   9.758  0.00  0.00     0.161 HD
HETATM   15  H   UNK N   1      34.956  17.760  10.445  0.00  0.00     0.161 HD
ENDBRANCH  10  11
ENDBRANCH   9  10
ENDBRANCH   1   9
BRANCH   1  16
HETATM   16  O   UNK N   1      32.591  15.607   7.822  0.00  0.00    -0.389 OA
HETATM   17  H   UNK N   1      32.128  14.770   7.977  0.00  0.00     0.210 HD
ENDBRANCH   1  16
TORSDOF 5
ENDMDL
MODEL 6
REMARK VINA RESULT:      -5.2     17.172     18.503
REMARK  5 active torsions:
REMARK  status: ('A' for Active; 'I' for Inactive)
REMARK    1  A    between atoms: C_5  and  C_7 
REMARK    2  A    between atoms: C_7  and  C_8 
REMARK    3  A    between atoms: C_7  and  O_13 
REMARK    4  A    between atoms: C_8  and  O_9 
REMARK    5  A    between atoms: O_9  and  C_10 
REMARK       I    between atoms: C_10  and  N_12 
ROOT
HETATM    1  C   UNK N   1      20.315  14.563   8.763  0.00  0.00     0.177 C 
ENDROOT
BRANCH   1   2
HETATM    2  C   UNK N   1      21.298  13.640   9.475  0.00  0.00    -0.006 A 
HETATM    3  C   UNK N   1      22.646  13.409   9.061  0.00  0.00     0.043 A 
HETATM    4  C   UNK N   1      23.451  12.527   9.790  0.00  0.00     0.024 A 
HETATM    5 Cl   UNK N   1      23.386  14.153   7.649  0.00  0.00    -0.084 Cl
HETATM    6  C   UNK N   1      22.957  11.870  10.915  0.00  0.00     0.002 A 
HETATM    7  C   UNK N   1      21.643  12.082  11.321  0.00  0.00     0.001 A 
HETATM    8  C   UNK N   1      20.823  12.954  10.605  0.00  0.00     0.011 A 
ENDBRANCH   1   2
BRANCH   1   9
HETATM    9  C   UNK N   1      20.762  16.021   8.764  0.00  0.00     0.217 C 
BRANCH   9  10
HETATM   10  O   UNK N   1      19.757  16.842   8.297  0.00  0.00    -0.301 OA
BRANCH  10  11
HETATM   11  C   UNK N   1      19.308  17.909   9.003  0.00  0.00     0.358 C 
HETATM   12  O   UNK N   1      20.041  18.859   9.237  0.00  0.00    -0.239 OA
HETATM   13  N   UNK N   1      18.038  17.922   9.453  0.00  0.00    -0.346 N 
HETATM   14  H   UNK N   1      17.371  17.293   9.096  0.00  0.00     0.161 HD
HETATM   15  H   UNK N   1      17.775  18.569  10.147  0.00  0.00     0.161 HD
ENDBRANCH  10  11
ENDBRANCH   9  10
ENDBRANCH   1   9
BRANCH   1  16
HETATM   16  O   UNK N   1      20.051  14.192   7.446  0.00  0.00    -0.389 OA
HETATM   17  H   UNK N   1      19.206  14.432   7.035  0.00  0.00     0.210 HD
ENDBRANCH   1  16
TORSDOF 5
ENDMDL
MODEL 7
REMARK VINA RESULT:      -5.0     19.268     22.180
REMARK  5 active torsions:
REMARK  status: ('A' for Active; 'I' for Inactive)
REMARK    1  A    between atoms: C_5  and  C_7 
REMARK    2  A    between atoms: C_7  and  C_8 
REMARK    3  A    between atoms: C_7  and  O_13 
REMARK    4  A    between atoms: C_8  and  O_9 
REMARK    5  A    between atoms: O_9  and  C_10 
REMARK       I    between atoms: C_10  and  N_12 
ROOT
HETATM    1  C   UNK N   1      36.059  13.289  12.559  0.00  0.00     0.177 C 
ENDROOT
BRANCH   1   2
HETATM    2  C   UNK N   1      35.851  13.255  14.069  0.00  0.00    -0.006 A 
HETATM    3  C   UNK N   1      34.951  12.378  14.749  0.00  0.00     0.043 A 
HETATM    4  C   UNK N   1      34.835  12.450  16.141  0.00  0.00     0.024 A 
HETATM    5 Cl   UNK N   1      33.927  11.196  13.943  0.00  0.00    -0.084 Cl
HETATM    6  C   UNK N   1      35.586  13.365  16.876  0.00  0.00     0.002 A 
HETATM    7  C   UNK N   1      36.460  14.229  16.223  0.00  0.00     0.001 A 
HETATM    8  C   UNK N   1      36.586  14.177  14.834  0.00  0.00     0.011 A 
ENDBRANCH   1   2
BRANCH   1   9
HETATM    9  C   UNK N   1      35.093  14.228  11.847  0.00  0.00     0.217 C 
BRANCH   9  10
HETATM   10  O   UNK N   1      35.774  15.252  11.223  0.00  0.00    -0.301 OA
BRANCH  10  11
HETATM   11  C   UNK N   1      35.134  16.267  10.590  0.00  0.00     0.358 C 
HETATM   12  O   UNK N   1      35.674  17.354  10.447  0.00  0.00    -0.239 OA
HETATM   13  N   UNK N   1      33.888  16.075  10.115  0.00  0.00    -0.346 N 
HETATM   14  H   UNK N   1      33.522  15.167  10.014  0.00  0.00     0.161 HD
HETATM   15  H   UNK N   1      33.338  16.852   9.866  0.00  0.00     0.161 HD
ENDBRANCH  10  11
ENDBRANCH   9  10
ENDBRANCH   1   9
BRANCH   1  16
HETATM   16  O   UNK N   1      37.356  13.631  12.180  0.00  0.00    -0.389 OA
HETATM   17  H   UNK N   1      37.803  13.134  11.478  0.00  0.00     0.210 HD
ENDBRANCH   1  16
TORSDOF 5
ENDMDL
MODEL 8
REMARK VINA RESULT:      -4.9     13.757     15.028
REMARK  5 active torsions:
REMARK  status: ('A' for Active; 'I' for Inactive)
REMARK    1  A    between atoms: C_5  and  C_7 
REMARK    2  A    between atoms: C_7  and  C_8 
REMARK    3  A    between atoms: C_7  and  O_13 
REMARK    4  A    between atoms: C_8  and  O_9 
REMARK    5  A    between atoms: O_9  and  C_10 
REMARK       I    between atoms: C_10  and  N_12 
ROOT
HETATM    1  C   UNK N   1      31.715  16.513   8.404  0.00  0.00     0.177 C 
ENDROOT
BRANCH   1   2
HETATM    2  C   UNK N   1      30.512  17.128   7.700  0.00  0.00    -0.006 A 
HETATM    3  C   UNK N   1      29.639  18.101   8.276  0.00  0.00     0.043 A 
HETATM    4  C   UNK N   1      28.555  18.584   7.534  0.00  0.00     0.024 A 
HETATM    5 Cl   UNK N   1      29.812  18.741   9.906  0.00  0.00    -0.084 Cl
HETATM    6  C   UNK N   1      28.315  18.130   6.239  0.00  0.00     0.002 A 
HETATM    7  C   UNK N   1      29.155  17.176   5.671  0.00  0.00     0.001 A 
HETATM    8  C   UNK N   1      30.238  16.678   6.397  0.00  0.00     0.011 A 
ENDBRANCH   1   2
BRANCH   1   9
HETATM    9  C   UNK N   1      32.866  17.497   8.584  0.00  0.00     0.217 C 
BRANCH   9  10
HETATM   10  O   UNK N   1      34.062  16.830   8.737  0.00  0.00    -0.301 OA
BRANCH  10  11
HETATM   11  C   UNK N   1      34.710  16.770   9.927  0.00  0.00     0.358 C 
HETATM   12  O   UNK N   1      35.616  17.549  10.186  0.00  0.00    -0.239 OA
HETATM   13  N   UNK N   1      34.352  15.841  10.834  0.00  0.00    -0.346 N 
HETATM   14  H   UNK N   1      33.497  15.360  10.751  0.00  0.00     0.161 HD
HETATM   15  H   UNK N   1      34.952  15.641  11.588  0.00  0.00     0.161 HD
ENDBRANCH  10  11
ENDBRANCH   9  10
ENDBRANCH   1   9
BRANCH   1  16
HETATM   16  O   UNK N   1      31.416  15.964   9.649  0.00  0.00    -0.389 OA
HETATM   17  H   UNK N   1      31.387  15.001   9.760  0.00  0.00     0.210 HD
ENDBRANCH   1  16
TORSDOF 5
ENDMDL
MODEL 9
REMARK VINA RESULT:      -4.9     13.948     15.570
REMARK  5 active torsions:
REMARK  status: ('A' for Active; 'I' for Inactive)
REMARK    1  A    between atoms: C_5  and  C_7 
REMARK    2  A    between atoms: C_7  and  C_8 
REMARK    3  A    between atoms: C_7  and  O_13 
REMARK    4  A    between atoms: C_8  and  O_9 
REMARK    5  A    between atoms: O_9  and  C_10 
REMARK       I    between atoms: C_10  and  N_12 
ROOT
HETATM    1  C   UNK N   1      33.957  17.826   8.442  0.00  0.00     0.177 C 
ENDROOT
BRANCH   1   2
HETATM    2  C   UNK N   1      32.593  17.616   7.794  0.00  0.00    -0.006 A 
HETATM    3  C   UNK N   1      32.387  17.205   6.441  0.00  0.00     0.043 A 
HETATM    4  C   UNK N   1      31.084  17.058   5.953  0.00  0.00     0.024 A 
HETATM    5 Cl   UNK N   1      33.686  16.882   5.299  0.00  0.00    -0.084 Cl
HETATM    6  C   UNK N   1      29.982  17.307   6.770  0.00  0.00     0.002 A 
HETATM    7  C   UNK N   1      30.172  17.715   8.086  0.00  0.00     0.001 A 
HETATM    8  C   UNK N   1      31.464  17.872   8.590  0.00  0.00     0.011 A 
ENDBRANCH   1   2
BRANCH   1   9
HETATM    9  C   UNK N   1      34.673  16.517   8.756  0.00  0.00     0.217 C 
BRANCH   9  10
HETATM   10  O   UNK N   1      34.634  16.249  10.108  0.00  0.00    -0.301 OA
BRANCH  10  11
HETATM   11  C   UNK N   1      34.023  15.147  10.609  0.00  0.00     0.358 C 
HETATM   12  O   UNK N   1      34.668  14.275  11.171  0.00  0.00    -0.239 OA
HETATM   13  N   UNK N   1      32.688  15.012  10.486  0.00  0.00    -0.346 N 
HETATM   14  H   UNK N   1      32.124  15.783  10.249  0.00  0.00     0.161 HD
HETATM   15  H   UNK N   1      32.273  14.132  10.636  0.00  0.00     0.161 HD
ENDBRANCH  10  11
ENDBRANCH   9  10
ENDBRANCH   1   9
BRANCH   1  16
HETATM   16  O   UNK N   1      34.818  18.623   7.690  0.00  0.00    -0.389 OA
HETATM   17  H   UNK N   1      35.203  19.422   8.080  0.00  0.00     0.210 HD
ENDBRANCH   1  16
TORSDOF 5
ENDMDL
