REMARK  7 active torsions:
REMARK  status: ('A' for Active; 'I' for Inactive)
REMARK       I    between atoms: N_2  and  C_3 
REMARK    1  A    between atoms: C_3  and  C_5 
REMARK    2  A    between atoms: C_5  and  N_6 
REMARK    3  A    between atoms: C_9  and  O_12 
REMARK    4  A    between atoms: O_12  and  C_13 
REMARK    5  A    between atoms: C_18  and  O_19 
REMARK    6  A    between atoms: C_26  and  N_27 
REMARK    7  A    between atoms: N_27  and  C_28 
ROOT
HETATM    1  C   UNK N   1      -1.674  -0.288   0.015  0.00  0.00     0.103 A 
HETATM    2  C   UNK N   1      -0.425  -0.910  -0.092  0.00  0.00     0.057 A 
HETATM    3  C   UNK N   1       0.755  -0.199  -0.157  0.00  0.00     0.038 A 
HETATM    4  C   UNK N   1       0.723   1.195  -0.140  0.00  0.00     0.050 A 
HETATM    5  C   UNK N   1      -0.511   1.860  -0.046  0.00  0.00     0.070 A 
HETATM    6  C   UNK N   1      -1.721   1.136   0.037  0.00  0.00     0.103 A 
HETATM    7  N   UNK N   1       1.891   1.887  -0.212  0.00  0.00    -0.351 N 
ATOM      8  HN  UNK N   1       1.877   2.907  -0.200  1.00  0.00     0.166 HD
HETATM    9  C   UNK N   1       3.082   1.227  -0.300  0.00  0.00     0.182 A 
HETATM   10  N   UNK N   1       3.120  -0.136  -0.310  0.00  0.00    -0.338 N 
ATOM     11  HN  UNK N   1       4.019  -0.613  -0.379  1.00  0.00     0.168 HD
HETATM   12  C   UNK N   1       1.977  -0.868  -0.230  0.00  0.00     0.119 A 
ENDROOT
BRANCH   1  13
HETATM   13  O   UNK N   1      -2.796  -1.069   0.100  0.00  0.00    -0.343 OA
BRANCH  13  14
HETATM   14  C   UNK N   1      -2.720  -2.447  -0.076  0.00  0.00     0.132 C 
HETATM   15  C   UNK N   1      -4.041  -3.196  -0.065  0.00  0.00     0.062 C 
HETATM   16  C   UNK N   1      -3.751  -4.656  -0.494  0.00  0.00     0.275 C 
HETATM   17  N   UNK N   1      -2.673  -5.302   0.287  0.00  0.00     0.097 N 
HETATM   18  C   UNK N   1      -1.482  -4.447   0.314  0.00  0.00     0.275 C 
HETATM   19  C   UNK N   1      -1.815  -3.118   0.937  0.00  0.00     0.062 C 
BRANCH  17  20
HETATM   20  C   UNK N   1      -2.330  -6.536  -0.431  0.00  0.00     0.374 C 
BRANCH  20  21
HETATM   21  C   UNK N   1      -1.134  -7.294   0.116  0.00  0.00     0.245 C 
HETATM   22  N   UNK N   1      -0.737  -8.428  -0.508  0.00  0.00    -0.364 N 
HETATM   23  C   UNK N   1       0.411  -9.179  -0.064  0.00  0.00     0.149 C 
HETATM   24  H   UNK N   1      -1.245  -8.748  -1.288  0.00  0.00     0.161 HD
HETATM   25  O   UNK N   1      -0.518  -6.881   1.090  0.00  0.00    -0.272 OA
ENDBRANCH  20  21
ENDBRANCH  17  20
ENDBRANCH  13  14
ENDBRANCH   1  13
BRANCH   6  26
HETATM   26  O   UNK N   1      -2.877   1.844   0.128  0.00  0.00    -0.353 OA
HETATM   27  C   UNK N   1      -4.138   1.297   0.192  0.00  0.00     0.210 C 
ENDBRANCH   6  26
BRANCH  12  28
HETATM   28  N   UNK N   1       1.972  -2.297  -0.244  0.00  0.00    -0.339 N 
HETATM   29  H   UNK N   1       1.067  -2.678  -0.313  0.00  0.00     0.167 HD
BRANCH  28  30
HETATM   30  C   UNK N   1       2.993  -3.290  -0.180  0.00  0.00     0.074 A 
HETATM   31  C   UNK N   1       2.598  -4.608  -0.446  0.00  0.00     0.033 A 
HETATM   32  C   UNK N   1       3.512  -5.660  -0.403  0.00  0.00     0.004 A 
HETATM   33  C   UNK N   1       4.844  -5.407  -0.088  0.00  0.00     0.027 A 
HETATM   34  C   UNK N   1       5.262  -4.106   0.193  0.00  0.00     0.074 A 
HETATM   35  C   UNK N   1       4.347  -3.040   0.156  0.00  0.00     0.164 A 
HETATM   36 Cl   UNK N   1       6.944  -3.821   0.598  0.00  0.00    -0.081 Cl
HETATM   37  F   UNK N   1       4.792  -1.802   0.465  0.00  0.00    -0.202 F 
ENDBRANCH  28  30
ENDBRANCH  12  28
TORSDOF 7
