REMARK  7 active torsions:
REMARK  status: ('A' for Active; 'I' for Inactive)
REMARK    1  A    between atoms: O_2  and  C_3 
REMARK    2  A    between atoms: C_5  and  C_13 
REMARK    3  A    between atoms: C_7  and  O_11 
REMARK    4  A    between atoms: C_8  and  O_9 
REMARK    5  A    between atoms: C_14  and  C_15 
REMARK       I    between atoms: C_15  and  N_17 
REMARK    6  A    between atoms: N_20  and  C_23 
REMARK    7  A    between atoms: C_23  and  C_24 
REMARK       I    between atoms: C_24  and  N_26 
ROOT
HETATM    1  C   UNK N   1       1.114  10.003  -0.207  0.00  0.00     0.243 C 
HETATM    2  O   UNK N   1       2.250  10.366   0.072  0.00  0.00    -0.268 OA
HETATM    3  N   UNK N   1       0.891   8.682  -0.536  0.00  0.00    -0.345 N 
HETATM    4  C   UNK N   1       1.961   7.718  -0.452  0.00  0.00     0.156 C 
HETATM    5  C   UNK N   1       1.501   6.590   0.473  0.00  0.00     0.293 C 
HETATM    6  N   UNK N   1       0.256   6.001  -0.040  0.00  0.00     0.100 N 
HETATM    7  C   UNK N   1      -0.794   7.018  -0.003  0.00  0.00     0.293 C 
HETATM    8  C   UNK N   1      -0.409   8.166  -0.931  0.00  0.00     0.156 C 
ENDROOT
BRANCH   1   9
HETATM    9  C   UNK N   1       0.029  11.027  -0.141  0.00  0.00     0.075 C 
HETATM   10  C   UNK N   1      -1.241  10.647  -0.227  0.00  0.00     0.017 C 
BRANCH  10  11
HETATM   11  C   UNK N   1      -2.456  11.441  -0.143  0.00  0.00    -0.031 A 
HETATM   12  C   UNK N   1      -2.480  12.821   0.054  0.00  0.00     0.051 A 
HETATM   13  C   UNK N   1      -3.704  13.503   0.137  0.00  0.00     0.105 A 
HETATM   14  C   UNK N   1      -4.930  12.772   0.028  0.00  0.00     0.135 A 
HETATM   15  C   UNK N   1      -4.872  11.352  -0.131  0.00  0.00     0.105 A 
HETATM   16  C   UNK N   1      -3.639  10.732  -0.230  0.00  0.00     0.051 A 
BRANCH  13  17
HETATM   17  O   UNK N   1      -3.651  14.853   0.300  0.00  0.00    -0.353 OA
HETATM   18  C   UNK N   1      -4.733  15.700   0.385  0.00  0.00     0.210 C 
ENDBRANCH  13  17
BRANCH  14  19
HETATM   19  O   UNK N   1      -6.105  13.453   0.058  0.00  0.00    -0.351 OA
HETATM   20  C   UNK N   1      -7.243  13.081  -0.621  0.00  0.00     0.210 C 
ENDBRANCH  14  19
BRANCH  15  21
HETATM   21  O   UNK N   1      -5.956  10.542  -0.167  0.00  0.00    -0.353 OA
HETATM   22  C   UNK N   1      -6.984  10.617   0.744  0.00  0.00     0.210 C 
ENDBRANCH  15  21
ENDBRANCH  10  11
ENDBRANCH   1   9
BRANCH   6  23
HETATM   23  C   UNK N   1      -0.157   4.905   0.831  0.00  0.00     0.374 C 
BRANCH  23  24
HETATM   24  C   UNK N   1       0.719   3.696   0.623  0.00  0.00     0.248 C 
HETATM   25  O   UNK N   1       1.916   3.787   0.857  0.00  0.00    -0.271 OA
HETATM   26  N   UNK N   1       0.203   2.513   0.191  0.00  0.00    -0.351 N 
HETATM   27  C   UNK N   1       1.030   1.359  -0.016  0.00  0.00     0.126 C 
HETATM   28  C   UNK N   1      -1.190   2.321  -0.084  0.00  0.00     0.126 C 
HETATM   29  C   UNK N   1       0.094   0.282  -0.529  0.00  0.00     0.021 C 
HETATM   30  C   UNK N   1      -1.321   0.853  -0.457  0.00  0.00     0.021 C 
ENDBRANCH  23  24
ENDBRANCH   6  23
TORSDOF 7
