REMARK  3 active torsions:
REMARK  status: ('A' for Active; 'I' for Inactive)
REMARK    1  A    between atoms: C_3  and  N_8 
REMARK    2  A    between atoms: C_11  and  N_14 
REMARK       I    between atoms: N_14  and  C_15 
REMARK    3  A    between atoms: C_17  and  C_15 
ROOT
HETATM    1  N   UNK N   1       5.369   0.163   0.085  0.00  0.00    -0.312 N 
HETATM    2  C   UNK N   1       4.516  -0.798  -0.395  0.00  0.00     0.227 C 
HETATM    3  O   UNK N   1       4.937  -1.891  -0.749  0.00  0.00    -0.273 OA
HETATM    4  H   UNK N   1       5.050   1.076   0.268  0.00  0.00     0.170 HD
ENDROOT
BRANCH   2   5
HETATM    5  C   UNK N   1       3.066  -0.586  -0.504  0.00  0.00     0.078 C 
HETATM    6  C   UNK N   1       2.404  -0.391   0.859  0.00  0.00     0.017 C 
HETATM    7  C   UNK N   1       2.239   1.081   1.204  0.00  0.00     0.045 C 
HETATM    8  C   UNK N   1       1.517   1.796   0.065  0.00  0.00     0.100 A 
HETATM    9  O   UNK N   1       1.227   3.112   0.430  0.00  0.00    -0.301 OA
HETATM   10  C   UNK N   1       0.131   1.211  -0.178  0.00  0.00     0.009 A 
HETATM   11  C   UNK N   1       2.400   1.776  -1.182  0.00  0.00     0.045 C 
HETATM   12  C   UNK N   1      -0.105   3.336   0.432  0.00  0.00     0.295 A 
HETATM   13  O   UNK N   1      -0.612   4.407   0.724  0.00  0.00    -0.259 OA
HETATM   14  C   UNK N   1      -0.813   2.153   0.059  0.00  0.00     0.051 A 
HETATM   15  C   UNK N   1      -2.171   1.882  -0.066  0.00  0.00     0.035 A 
HETATM   16  C   UNK N   1      -2.537   0.581  -0.452  0.00  0.00     0.088 A 
HETATM   17  N   UNK N   1      -1.576  -0.364  -0.693  0.00  0.00    -0.375 N 
HETATM   18  C   UNK N   1      -0.249  -0.078  -0.564  0.00  0.00     0.099 A 
ATOM     19  HN  UNK N   1      -1.859  -1.303  -0.975  1.00  0.00     0.164 HD
HETATM   20  C   UNK N   1       2.639   0.345  -1.644  0.00  0.00     0.017 C 
ENDBRANCH   2   5
BRANCH   1  21
HETATM   21  C   UNK N   1       6.723  -0.192   0.310  0.00  0.00     0.124 A 
HETATM   22  N   UNK N   1       7.064  -1.459   0.516  0.00  0.00    -0.279 N 
HETATM   23  N   UNK N   1       8.349  -1.590   0.315  0.00  0.00    -0.263 N 
ATOM     24  HN  UNK N   1       6.426  -2.208   0.786  1.00  0.00     0.189 HD
HETATM   25  C   UNK N   1       8.881  -0.386   0.002  0.00  0.00     0.120 A 
HETATM   26  C   UNK N   1       7.844   0.556  -0.006  0.00  0.00     0.069 A 
BRANCH  23  27
HETATM   27  C   UNK N   1       8.896  -2.909   0.187  0.00  0.00     0.094 A 
HETATM   28  C   UNK N   1       8.081  -4.002   0.538  0.00  0.00     0.035 A 
HETATM   29  C   UNK N   1       8.498  -5.309   0.312  0.00  0.00     0.002 A 
HETATM   30  C   UNK N   1       9.734  -5.543  -0.285  0.00  0.00     0.003 A 
HETATM   31  C   UNK N   1      10.556  -4.468  -0.640  0.00  0.00     0.045 A 
HETATM   32  C   UNK N   1      10.146  -3.150  -0.404  0.00  0.00     0.144 A 
HETATM   33  F   UNK N   1      10.936  -2.126  -0.807  0.00  0.00    -0.204 F 
ENDBRANCH  23  27
ENDBRANCH   1  21
TORSDOF 3
