REMARK  12 active torsions:
REMARK  status: ('A' for Active; 'I' for Inactive)
REMARK    1  A    between atoms: C_1  and  O_2 
REMARK    2  A    between atoms: C_5  and  O_2 
REMARK    3  A    between atoms: C_4  and  O_8 
REMARK    4  A    between atoms: C_6  and  C_12 
REMARK    5  A    between atoms: C_7  and  O_13 
REMARK    6  A    between atoms: C_10  and  O_16 
REMARK    7  A    between atoms: C_11  and  O_17 
REMARK    8  A    between atoms: C_12  and  O_18 
REMARK    9  A    between atoms: C_14  and  C_20 
REMARK   10  A    between atoms: C_15  and  O_21 
REMARK   11  A    between atoms: C_19  and  O_22 
REMARK   12  A    between atoms: C_20  and  O_23 
ROOT
HETATM    1  O   UNK N   1       0.570  -0.073  -0.194  0.00  0.00    -0.326 OA
ENDROOT
BRANCH   1   2
HETATM    2  C   UNK N   1       0.669   0.847   0.857  0.00  0.00     0.294 C 
HETATM    3  O   UNK N   1       1.865   0.669   1.595  0.00  0.00    -0.348 OA
HETATM    4  C   UNK N   1       3.025   0.957   0.817  0.00  0.00     0.179 C 
HETATM    5  C   UNK N   1       2.860   2.081  -0.227  0.00  0.00     0.180 C 
HETATM    6  C   UNK N   1       1.796   3.041   0.266  0.00  0.00     0.183 C 
HETATM    7  C   UNK N   1       0.469   2.291   0.369  0.00  0.00     0.204 C 
BRANCH   4   8
HETATM    8  C   UNK N   1       3.617  -0.313   0.219  0.00  0.00     0.198 C 
BRANCH   8   9
HETATM    9  O   UNK N   1       4.890  -0.064  -0.293  0.00  0.00    -0.398 OA
HETATM   10  H   UNK N   1       5.483  -0.744  -0.650  0.00  0.00     0.209 HD
ENDBRANCH   8   9
ENDBRANCH   4   8
BRANCH   5  11
HETATM   11  O   UNK N   1       4.077   2.744  -0.401  0.00  0.00    -0.390 OA
HETATM   12  H   UNK N   1       4.899   2.242  -0.522  0.00  0.00     0.210 HD
ENDBRANCH   5  11
BRANCH   6  13
HETATM   13  O   UNK N   1       1.656   4.126  -0.600  0.00  0.00    -0.390 OA
HETATM   14  H   UNK N   1       2.261   4.587  -1.203  0.00  0.00     0.210 HD
ENDBRANCH   6  13
BRANCH   7  15
HETATM   15  O   UNK N   1      -0.386   2.979   1.228  0.00  0.00    -0.388 OA
HETATM   16  H   UNK N   1      -0.269   3.734   1.827  0.00  0.00     0.210 HD
ENDBRANCH   7  15
ENDBRANCH   1   2
BRANCH   1  17
HETATM   17  C   UNK N   1      -0.596  -0.791   0.087  0.00  0.00     0.294 C 
HETATM   18  O   UNK N   1      -1.679  -0.228  -0.610  0.00  0.00    -0.348 OA
HETATM   19  C   UNK N   1      -2.833  -0.752  -0.010  0.00  0.00     0.179 C 
HETATM   20  C   UNK N   1      -2.982  -2.221  -0.438  0.00  0.00     0.180 C 
HETATM   21  C   UNK N   1      -1.752  -2.984   0.070  0.00  0.00     0.183 C 
HETATM   22  C   UNK N   1      -0.454  -2.263  -0.311  0.00  0.00     0.204 C 
BRANCH  19  23
HETATM   23  C   UNK N   1      -4.029   0.101  -0.403  0.00  0.00     0.198 C 
BRANCH  23  24
HETATM   24  O   UNK N   1      -5.072  -0.099   0.498  0.00  0.00    -0.398 OA
HETATM   25  H   UNK N   1      -5.556   0.460   1.126  0.00  0.00     0.209 HD
ENDBRANCH  23  24
ENDBRANCH  19  23
BRANCH  20  26
HETATM   26  O   UNK N   1      -4.135  -2.786   0.110  0.00  0.00    -0.390 OA
HETATM   27  H   UNK N   1      -4.875  -2.288   0.491  0.00  0.00     0.210 HD
ENDBRANCH  20  26
BRANCH  21  28
HETATM   28  O   UNK N   1      -1.747  -4.288  -0.426  0.00  0.00    -0.390 OA
HETATM   29  H   UNK N   1      -2.531  -4.744  -0.771  0.00  0.00     0.210 HD
ENDBRANCH  21  28
BRANCH  22  30
HETATM   30  O   UNK N   1       0.619  -2.844   0.370  0.00  0.00    -0.388 OA
HETATM   31  H   UNK N   1       0.642  -3.691   0.843  0.00  0.00     0.210 HD
ENDBRANCH  22  30
ENDBRANCH   1  17
TORSDOF 12
