MODEL 1
REMARK VINA RESULT:      -8.3      0.000      0.000
REMARK  10 active torsions:
REMARK  status: ('A' for Active; 'I' for Inactive)
REMARK    1  A    between atoms: O_2  and  C_3 
REMARK    2  A    between atoms: C_3  and  C_4 
REMARK    3  A    between atoms: C_4  and  C_5 
REMARK    4  A    between atoms: C_4  and  O_34 
REMARK    5  A    between atoms: C_5  and  N_6 
REMARK    6  A    between atoms: N_12  and  C_15 
REMARK    7  A    between atoms: C_19  and  C_21 
REMARK       I    between atoms: C_21  and  N_23 
REMARK    8  A    between atoms: N_23  and  C_24 
REMARK    9  A    between atoms: C_24  and  C_25 
REMARK   10  A    between atoms: C_25  and  O_32 
ROOT
HETATM    1  C   UNK N   1      21.297  17.324   4.665  0.00  0.00     0.062 A 
HETATM    2  C   UNK N   1      20.156  17.427   3.853  0.00  0.00     0.033 A 
HETATM    3  C   UNK N   1      20.122  18.387   2.821  0.00  0.00     0.027 A 
HETATM    4  C   UNK N   1      21.195  19.280   2.636  0.00  0.00     0.049 A 
HETATM    5  C   UNK N   1      22.324  19.175   3.474  0.00  0.00     0.056 A 
HETATM    6  C   UNK N   1      22.335  18.203   4.435  0.00  0.00     0.050 A 
HETATM    7 Cl   UNK N   1      21.060  20.507   1.384  0.00  0.00    -0.083 Cl
ENDROOT
BRANCH   1   8
HETATM    8  N   UNK N   1      21.283  16.652   5.944  0.00  0.00    -0.206 N 
HETATM    9  N   UNK N   1      21.480  15.336   5.966  0.00  0.00    -0.295 N 
HETATM   10  C   UNK N   1      21.075  14.581   7.017  0.00  0.00     0.182 C 
ATOM     11  HN  UNK N   1      21.945  14.887   5.177  1.00  0.00     0.187 HD
HETATM   12  C   UNK N   1      20.386  15.183   8.065  0.00  0.00     0.268 C 
HETATM   13  N   UNK N   1      20.238  16.550   8.089  0.00  0.00    -0.261 N 
HETATM   14  O   UNK N   1      19.895  14.485   8.932  0.00  0.00    -0.266 OA
HETATM   15  C   UNK N   1      20.738  17.295   7.056  0.00  0.00     0.351 C 
HETATM   16  O   UNK N   1      20.611  18.511   7.080  0.00  0.00    -0.244 OA
BRANCH  13  17
HETATM   17  C   UNK N   1      19.394  17.250   9.071  0.00  0.00     0.171 C 
BRANCH  17  18
HETATM   18  C   UNK N   1      17.962  16.794   9.179  0.00  0.00     0.160 C 
BRANCH  18  19
HETATM   19  C   UNK N   1      17.234  17.894   9.937  0.00  0.00     0.200 C 
BRANCH  19  20
HETATM   20  O   UNK N   1      18.131  18.662  10.678  0.00  0.00    -0.393 OA
HETATM   21  C   UNK N   1      17.402  19.092  11.785  0.00  0.00     0.201 C 
ENDBRANCH  19  20
ENDBRANCH  18  19
BRANCH  18  22
HETATM   22  O   UNK N   1      17.427  16.714   7.894  0.00  0.00    -0.392 OA
HETATM   23  H   UNK N   1      17.649  16.075   7.200  0.00  0.00     0.210 HD
ENDBRANCH  18  22
ENDBRANCH  17  18
ENDBRANCH  13  17
ENDBRANCH   1   8
BRANCH   5  24
HETATM   24  C   UNK N   1      23.552  19.986   3.415  0.00  0.00     0.253 C 
HETATM   25  O   UNK N   1      23.480  21.147   3.016  0.00  0.00    -0.268 OA
HETATM   26  N   UNK N   1      24.693  19.548   3.975  0.00  0.00    -0.354 N 
HETATM   27  H   UNK N   1      24.866  18.585   4.086  0.00  0.00     0.162 HD
BRANCH  26  28
HETATM   28  C   UNK N   1      25.653  20.524   4.403  0.00  0.00     0.160 C 
BRANCH  28  29
HETATM   29  C   UNK N   1      26.996  19.798   4.580  0.00  0.00     0.074 C 
HETATM   30  C   UNK N   1      27.792  20.533   5.660  0.00  0.00     0.039 C 
HETATM   31  C   UNK N   1      27.357  20.157   7.065  0.00  0.00     0.003 C 
HETATM   32  C   UNK N   1      28.237  19.007   7.542  0.00  0.00     0.000 C 
HETATM   33  C   UNK N   1      27.852  17.650   6.947  0.00  0.00     0.000 C 
HETATM   34  C   UNK N   1      27.929  17.614   5.426  0.00  0.00     0.003 C 
HETATM   35  C   UNK N   1      26.708  18.333   4.887  0.00  0.00     0.039 C 
BRANCH  29  36
HETATM   36  O   UNK N   1      27.760  19.832   3.405  0.00  0.00    -0.388 OA
HETATM   37  H   UNK N   1      28.443  19.296   2.974  0.00  0.00     0.210 HD
ENDBRANCH  29  36
ENDBRANCH  28  29
ENDBRANCH  26  28
ENDBRANCH   5  24
TORSDOF 10
ENDMDL
MODEL 2
REMARK VINA RESULT:      -7.9     13.206     15.216
REMARK  10 active torsions:
REMARK  status: ('A' for Active; 'I' for Inactive)
REMARK    1  A    between atoms: O_2  and  C_3 
REMARK    2  A    between atoms: C_3  and  C_4 
REMARK    3  A    between atoms: C_4  and  C_5 
REMARK    4  A    between atoms: C_4  and  O_34 
REMARK    5  A    between atoms: C_5  and  N_6 
REMARK    6  A    between atoms: N_12  and  C_15 
REMARK    7  A    between atoms: C_19  and  C_21 
REMARK       I    between atoms: C_21  and  N_23 
REMARK    8  A    between atoms: N_23  and  C_24 
REMARK    9  A    between atoms: C_24  and  C_25 
REMARK   10  A    between atoms: C_25  and  O_32 
ROOT
HETATM    1  C   UNK N   1      27.526  22.596  -7.432  0.00  0.00     0.062 A 
HETATM    2  C   UNK N   1      26.794  21.566  -8.046  0.00  0.00     0.033 A 
HETATM    3  C   UNK N   1      27.367  20.284  -8.167  0.00  0.00     0.027 A 
HETATM    4  C   UNK N   1      28.685  20.042  -7.733  0.00  0.00     0.049 A 
HETATM    5  C   UNK N   1      29.411  21.094  -7.137  0.00  0.00     0.056 A 
HETATM    6  C   UNK N   1      28.804  22.311  -7.001  0.00  0.00     0.050 A 
HETATM    7 Cl   UNK N   1      29.372  18.444  -7.984  0.00  0.00    -0.083 Cl
ENDROOT
BRANCH   1   8
HETATM    8  N   UNK N   1      27.186  23.991  -7.591  0.00  0.00    -0.206 N 
HETATM    9  N   UNK N   1      27.969  24.746  -8.360  0.00  0.00    -0.295 N 
HETATM   10  C   UNK N   1      27.988  26.096  -8.234  0.00  0.00     0.182 C 
ATOM     11  HN  UNK N   1      28.565  24.300  -9.056  1.00  0.00     0.187 HD
HETATM   12  C   UNK N   1      27.222  26.700  -7.243  0.00  0.00     0.268 C 
HETATM   13  N   UNK N   1      26.357  25.941  -6.490  0.00  0.00    -0.261 N 
HETATM   14  O   UNK N   1      27.353  27.892  -7.034  0.00  0.00    -0.266 OA
HETATM   15  C   UNK N   1      26.294  24.591  -6.701  0.00  0.00     0.351 C 
HETATM   16  O   UNK N   1      25.521  23.917  -6.035  0.00  0.00    -0.244 OA
BRANCH  13  17
HETATM   17  C   UNK N   1      25.631  26.469  -5.323  0.00  0.00     0.171 C 
BRANCH  17  18
HETATM   18  C   UNK N   1      26.403  26.569  -4.033  0.00  0.00     0.160 C 
BRANCH  18  19
HETATM   19  C   UNK N   1      25.773  27.718  -3.261  0.00  0.00     0.200 C 
BRANCH  19  20
HETATM   20  O   UNK N   1      25.762  28.882  -4.029  0.00  0.00    -0.393 OA
HETATM   21  C   UNK N   1      26.892  29.589  -3.621  0.00  0.00     0.201 C 
ENDBRANCH  19  20
ENDBRANCH  18  19
BRANCH  18  22
HETATM   22  O   UNK N   1      26.207  25.392  -3.311  0.00  0.00    -0.392 OA
HETATM   23  H   UNK N   1      26.139  25.293  -2.348  0.00  0.00     0.210 HD
ENDBRANCH  18  22
ENDBRANCH  17  18
ENDBRANCH  13  17
ENDBRANCH   1   8
BRANCH   5  24
HETATM   24  C   UNK N   1      30.777  21.031  -6.591  0.00  0.00     0.253 C 
HETATM   25  O   UNK N   1      31.688  21.592  -7.198  0.00  0.00    -0.268 OA
HETATM   26  N   UNK N   1      31.002  20.551  -5.355  0.00  0.00    -0.354 N 
HETATM   27  H   UNK N   1      30.386  19.903  -4.943  0.00  0.00     0.162 HD
BRANCH  26  28
HETATM   28  C   UNK N   1      32.167  21.009  -4.655  0.00  0.00     0.160 C 
BRANCH  28  29
HETATM   29  C   UNK N   1      31.683  21.851  -3.463  0.00  0.00     0.074 C 
HETATM   30  C   UNK N   1      32.099  23.302  -3.711  0.00  0.00     0.039 C 
HETATM   31  C   UNK N   1      31.160  24.027  -4.658  0.00  0.00     0.003 C 
HETATM   32  C   UNK N   1      30.095  24.730  -3.824  0.00  0.00     0.000 C 
HETATM   33  C   UNK N   1      29.007  23.790  -3.297  0.00  0.00     0.000 C 
HETATM   34  C   UNK N   1      29.549  22.679  -2.407  0.00  0.00     0.003 C 
HETATM   35  C   UNK N   1      30.183  21.637  -3.308  0.00  0.00     0.039 C 
BRANCH  29  36
HETATM   36  O   UNK N   1      32.285  21.444  -2.265  0.00  0.00    -0.388 OA
HETATM   37  H   UNK N   1      32.664  20.636  -1.887  0.00  0.00     0.210 HD
ENDBRANCH  29  36
ENDBRANCH  28  29
ENDBRANCH  26  28
ENDBRANCH   5  24
TORSDOF 10
ENDMDL
MODEL 3
REMARK VINA RESULT:      -7.8      2.602      4.279
REMARK  10 active torsions:
REMARK  status: ('A' for Active; 'I' for Inactive)
REMARK    1  A    between atoms: O_2  and  C_3 
REMARK    2  A    between atoms: C_3  and  C_4 
REMARK    3  A    between atoms: C_4  and  C_5 
REMARK    4  A    between atoms: C_4  and  O_34 
REMARK    5  A    between atoms: C_5  and  N_6 
REMARK    6  A    between atoms: N_12  and  C_15 
REMARK    7  A    between atoms: C_19  and  C_21 
REMARK       I    between atoms: C_21  and  N_23 
REMARK    8  A    between atoms: N_23  and  C_24 
REMARK    9  A    between atoms: C_24  and  C_25 
REMARK   10  A    between atoms: C_25  and  O_32 
ROOT
HETATM    1  C   UNK N   1      22.125  18.516   4.235  0.00  0.00     0.062 A 
HETATM    2  C   UNK N   1      21.929  19.670   3.459  0.00  0.00     0.033 A 
HETATM    3  C   UNK N   1      23.045  20.342   2.918  0.00  0.00     0.027 A 
HETATM    4  C   UNK N   1      24.353  19.901   3.200  0.00  0.00     0.049 A 
HETATM    5  C   UNK N   1      24.530  18.752   3.999  0.00  0.00     0.056 A 
HETATM    6  C   UNK N   1      23.421  18.107   4.468  0.00  0.00     0.050 A 
HETATM    7 Cl   UNK N   1      25.706  20.827   2.565  0.00  0.00    -0.083 Cl
ENDROOT
BRANCH   1   8
HETATM    8  N   UNK N   1      21.106  17.990   5.115  0.00  0.00    -0.206 N 
HETATM    9  N   UNK N   1      21.308  18.067   6.428  0.00  0.00    -0.295 N 
HETATM   10  C   UNK N   1      20.649  17.254   7.290  0.00  0.00     0.182 C 
ATOM     11  HN  UNK N   1      21.971  18.750   6.793  1.00  0.00     0.187 HD
HETATM   12  C   UNK N   1      19.791  16.280   6.789  0.00  0.00     0.268 C 
HETATM   13  N   UNK N   1      19.519  16.236   5.442  0.00  0.00    -0.261 N 
HETATM   14  O   UNK N   1      19.316  15.457   7.551  0.00  0.00    -0.266 OA
HETATM   15  C   UNK N   1      20.132  17.130   4.606  0.00  0.00     0.351 C 
HETATM   16  O   UNK N   1      19.887  17.094   3.409  0.00  0.00    -0.244 OA
BRANCH  13  17
HETATM   17  C   UNK N   1      18.752  15.149   4.811  0.00  0.00     0.171 C 
BRANCH  17  18
HETATM   18  C   UNK N   1      19.512  14.234   3.886  0.00  0.00     0.160 C 
BRANCH  18  19
HETATM   19  C   UNK N   1      19.257  12.825   4.396  0.00  0.00     0.200 C 
BRANCH  19  20
HETATM   20  O   UNK N   1      19.400  12.766   5.782  0.00  0.00    -0.393 OA
HETATM   21  C   UNK N   1      20.611  12.108   5.987  0.00  0.00     0.201 C 
ENDBRANCH  19  20
ENDBRANCH  18  19
BRANCH  18  22
HETATM   22  O   UNK N   1      18.964  14.348   2.608  0.00  0.00    -0.392 OA
HETATM   23  H   UNK N   1      18.081  14.670   2.369  0.00  0.00     0.210 HD
ENDBRANCH  18  22
ENDBRANCH  17  18
ENDBRANCH  13  17
ENDBRANCH   1   8
BRANCH   5  24
HETATM   24  C   UNK N   1      25.806  18.119   4.371  0.00  0.00     0.253 C 
HETATM   25  O   UNK N   1      26.442  17.510   3.513  0.00  0.00    -0.268 OA
HETATM   26  N   UNK N   1      26.374  18.368   5.565  0.00  0.00    -0.354 N 
HETATM   27  H   UNK N   1      25.830  18.636   6.339  0.00  0.00     0.162 HD
BRANCH  26  28
HETATM   28  C   UNK N   1      27.798  18.231   5.676  0.00  0.00     0.160 C 
BRANCH  28  29
HETATM   29  C   UNK N   1      28.093  17.631   7.059  0.00  0.00     0.074 C 
HETATM   30  C   UNK N   1      29.323  16.731   6.931  0.00  0.00     0.039 C 
HETATM   31  C   UNK N   1      30.625  17.512   6.947  0.00  0.00     0.003 C 
HETATM   32  C   UNK N   1      31.123  17.575   8.386  0.00  0.00     0.000 C 
HETATM   33  C   UNK N   1      30.378  18.596   9.250  0.00  0.00     0.000 C 
HETATM   34  C   UNK N   1      28.883  18.325   9.351  0.00  0.00     0.003 C 
HETATM   35  C   UNK N   1      28.244  18.777   8.052  0.00  0.00     0.039 C 
BRANCH  29  36
HETATM   36  O   UNK N   1      27.036  16.829   7.511  0.00  0.00    -0.388 OA
HETATM   37  H   UNK N   1      26.915  16.037   8.057  0.00  0.00     0.210 HD
ENDBRANCH  29  36
ENDBRANCH  28  29
ENDBRANCH  26  28
ENDBRANCH   5  24
TORSDOF 10
ENDMDL
MODEL 4
REMARK VINA RESULT:      -7.7      2.388      4.060
REMARK  10 active torsions:
REMARK  status: ('A' for Active; 'I' for Inactive)
REMARK    1  A    between atoms: O_2  and  C_3 
REMARK    2  A    between atoms: C_3  and  C_4 
REMARK    3  A    between atoms: C_4  and  C_5 
REMARK    4  A    between atoms: C_4  and  O_34 
REMARK    5  A    between atoms: C_5  and  N_6 
REMARK    6  A    between atoms: N_12  and  C_15 
REMARK    7  A    between atoms: C_19  and  C_21 
REMARK       I    between atoms: C_21  and  N_23 
REMARK    8  A    between atoms: N_23  and  C_24 
REMARK    9  A    between atoms: C_24  and  C_25 
REMARK   10  A    between atoms: C_25  and  O_32 
ROOT
HETATM    1  C   UNK N   1      22.133  18.059   4.747  0.00  0.00     0.062 A 
HETATM    2  C   UNK N   1      21.757  19.093   3.873  0.00  0.00     0.033 A 
HETATM    3  C   UNK N   1      22.754  19.845   3.218  0.00  0.00     0.027 A 
HETATM    4  C   UNK N   1      24.118  19.610   3.479  0.00  0.00     0.049 A 
HETATM    5  C   UNK N   1      24.475  18.581   4.376  0.00  0.00     0.056 A 
HETATM    6  C   UNK N   1      23.479  17.848   4.956  0.00  0.00     0.050 A 
HETATM    7 Cl   UNK N   1      25.312  20.634   2.694  0.00  0.00    -0.083 Cl
ENDROOT
BRANCH   1   8
HETATM    8  N   UNK N   1      21.224  17.497   5.720  0.00  0.00    -0.206 N 
HETATM    9  N   UNK N   1      20.890  18.241   6.772  0.00  0.00    -0.295 N 
HETATM   10  C   UNK N   1      20.412  17.677   7.909  0.00  0.00     0.182 C 
ATOM     11  HN  UNK N   1      20.996  19.254   6.723  1.00  0.00     0.187 HD
HETATM   12  C   UNK N   1      20.326  16.292   8.000  0.00  0.00     0.268 C 
HETATM   13  N   UNK N   1      20.600  15.516   6.898  0.00  0.00    -0.261 N 
HETATM   14  O   UNK N   1      20.039  15.783   9.068  0.00  0.00    -0.266 OA
HETATM   15  C   UNK N   1      20.994  16.121   5.736  0.00  0.00     0.351 C 
HETATM   16  O   UNK N   1      21.233  15.432   4.754  0.00  0.00    -0.244 OA
BRANCH  13  17
HETATM   17  C   UNK N   1      20.685  14.048   6.950  0.00  0.00     0.171 C 
BRANCH  17  18
HETATM   18  C   UNK N   1      22.009  13.461   7.366  0.00  0.00     0.160 C 
BRANCH  18  19
HETATM   19  C   UNK N   1      21.675  12.264   8.242  0.00  0.00     0.200 C 
BRANCH  19  20
HETATM   20  O   UNK N   1      20.951  12.660   9.367  0.00  0.00    -0.393 OA
HETATM   21  C   UNK N   1      21.796  12.396  10.444  0.00  0.00     0.201 C 
ENDBRANCH  19  20
ENDBRANCH  18  19
BRANCH  18  22
HETATM   22  O   UNK N   1      22.667  13.003   6.225  0.00  0.00    -0.392 OA
HETATM   23  H   UNK N   1      23.349  12.315   6.171  0.00  0.00     0.210 HD
ENDBRANCH  18  22
ENDBRANCH  17  18
ENDBRANCH  13  17
ENDBRANCH   1   8
BRANCH   5  24
HETATM   24  C   UNK N   1      25.836  18.161   4.747  0.00  0.00     0.253 C 
HETATM   25  O   UNK N   1      26.512  17.540   3.928  0.00  0.00    -0.268 OA
HETATM   26  N   UNK N   1      26.413  18.616   5.873  0.00  0.00    -0.354 N 
HETATM   27  H   UNK N   1      25.869  18.901   6.642  0.00  0.00     0.162 HD
BRANCH  26  28
HETATM   28  C   UNK N   1      27.846  18.673   5.922  0.00  0.00     0.160 C 
BRANCH  28  29
HETATM   29  C   UNK N   1      28.297  17.817   7.117  0.00  0.00     0.074 C 
HETATM   30  C   UNK N   1      29.210  16.711   6.587  0.00  0.00     0.039 C 
HETATM   31  C   UNK N   1      30.629  17.190   6.341  0.00  0.00     0.003 C 
HETATM   32  C   UNK N   1      31.445  16.923   7.601  0.00  0.00     0.000 C 
HETATM   33  C   UNK N   1      31.187  17.932   8.724  0.00  0.00     0.000 C 
HETATM   34  C   UNK N   1      29.735  17.967   9.182  0.00  0.00     0.003 C 
HETATM   35  C   UNK N   1      28.944  18.739   8.144  0.00  0.00     0.039 C 
BRANCH  29  36
HETATM   36  O   UNK N   1      27.210  17.195   7.746  0.00  0.00    -0.388 OA
HETATM   37  H   UNK N   1      26.527  17.422   8.395  0.00  0.00     0.210 HD
ENDBRANCH  29  36
ENDBRANCH  28  29
ENDBRANCH  26  28
ENDBRANCH   5  24
TORSDOF 10
ENDMDL
MODEL 5
REMARK VINA RESULT:      -7.6      2.136      3.162
REMARK  10 active torsions:
REMARK  status: ('A' for Active; 'I' for Inactive)
REMARK    1  A    between atoms: O_2  and  C_3 
REMARK    2  A    between atoms: C_3  and  C_4 
REMARK    3  A    between atoms: C_4  and  C_5 
REMARK    4  A    between atoms: C_4  and  O_34 
REMARK    5  A    between atoms: C_5  and  N_6 
REMARK    6  A    between atoms: N_12  and  C_15 
REMARK    7  A    between atoms: C_19  and  C_21 
REMARK       I    between atoms: C_21  and  N_23 
REMARK    8  A    between atoms: N_23  and  C_24 
REMARK    9  A    between atoms: C_24  and  C_25 
REMARK   10  A    between atoms: C_25  and  O_32 
ROOT
HETATM    1  C   UNK N   1      22.274  17.761   3.886  0.00  0.00     0.062 A 
HETATM    2  C   UNK N   1      21.958  19.028   3.370  0.00  0.00     0.033 A 
HETATM    3  C   UNK N   1      22.989  19.961   3.138  0.00  0.00     0.027 A 
HETATM    4  C   UNK N   1      24.322  19.656   3.474  0.00  0.00     0.049 A 
HETATM    5  C   UNK N   1      24.618  18.385   4.010  0.00  0.00     0.056 A 
HETATM    6  C   UNK N   1      23.595  17.495   4.180  0.00  0.00     0.050 A 
HETATM    7 Cl   UNK N   1      25.551  20.889   3.235  0.00  0.00    -0.083 Cl
ENDROOT
BRANCH   1   8
HETATM    8  N   UNK N   1      21.285  16.899   4.491  0.00  0.00    -0.206 N 
HETATM    9  N   UNK N   1      20.284  16.459   3.732  0.00  0.00    -0.295 N 
HETATM   10  C   UNK N   1      19.124  16.021   4.281  0.00  0.00     0.182 C 
ATOM     11  HN  UNK N   1      20.391  16.452   2.718  1.00  0.00     0.187 HD
HETATM   12  C   UNK N   1      18.953  16.089   5.660  0.00  0.00     0.268 C 
HETATM   13  N   UNK N   1      20.003  16.473   6.461  0.00  0.00    -0.261 N 
HETATM   14  O   UNK N   1      17.862  15.836   6.137  0.00  0.00    -0.266 OA
HETATM   15  C   UNK N   1      21.192  16.825   5.882  0.00  0.00     0.351 C 
HETATM   16  O   UNK N   1      22.127  17.162   6.594  0.00  0.00    -0.244 OA
BRANCH  13  17
HETATM   17  C   UNK N   1      19.863  16.722   7.905  0.00  0.00     0.171 C 
BRANCH  17  18
HETATM   18  C   UNK N   1      19.271  18.047   8.309  0.00  0.00     0.160 C 
BRANCH  18  19
HETATM   19  C   UNK N   1      18.633  17.818   9.671  0.00  0.00     0.200 C 
BRANCH  19  20
HETATM   20  O   UNK N   1      18.728  18.963  10.461  0.00  0.00    -0.393 OA
HETATM   21  C   UNK N   1      17.541  18.990  11.192  0.00  0.00     0.201 C 
ENDBRANCH  19  20
ENDBRANCH  18  19
BRANCH  18  22
HETATM   22  O   UNK N   1      20.309  18.967   8.457  0.00  0.00    -0.392 OA
HETATM   23  H   UNK N   1      20.424  19.810   7.991  0.00  0.00     0.210 HD
ENDBRANCH  18  22
ENDBRANCH  17  18
ENDBRANCH  13  17
ENDBRANCH   1   8
BRANCH   5  24
HETATM   24  C   UNK N   1      25.944  17.869   4.387  0.00  0.00     0.253 C 
HETATM   25  O   UNK N   1      26.652  17.356   3.522  0.00  0.00    -0.268 OA
HETATM   26  N   UNK N   1      26.464  18.129   5.599  0.00  0.00    -0.354 N 
HETATM   27  H   UNK N   1      25.882  18.314   6.371  0.00  0.00     0.162 HD
BRANCH  26  28
HETATM   28  C   UNK N   1      27.892  18.130   5.735  0.00  0.00     0.160 C 
BRANCH  28  29
HETATM   29  C   UNK N   1      28.219  17.600   7.140  0.00  0.00     0.074 C 
HETATM   30  C   UNK N   1      29.413  16.653   7.022  0.00  0.00     0.039 C 
HETATM   31  C   UNK N   1      30.739  17.389   6.947  0.00  0.00     0.003 C 
HETATM   32  C   UNK N   1      31.292  17.517   8.361  0.00  0.00     0.000 C 
HETATM   33  C   UNK N   1      30.612  18.611   9.189  0.00  0.00     0.000 C 
HETATM   34  C   UNK N   1      29.114  18.397   9.359  0.00  0.00     0.003 C 
HETATM   35  C   UNK N   1      28.443  18.796   8.059  0.00  0.00     0.039 C 
BRANCH  29  36
HETATM   36  O   UNK N   1      27.153  16.863   7.675  0.00  0.00    -0.388 OA
HETATM   37  H   UNK N   1      26.321  17.034   8.142  0.00  0.00     0.210 HD
ENDBRANCH  29  36
ENDBRANCH  28  29
ENDBRANCH  26  28
ENDBRANCH   5  24
TORSDOF 10
ENDMDL
MODEL 6
REMARK VINA RESULT:      -7.4      2.836      8.037
REMARK  10 active torsions:
REMARK  status: ('A' for Active; 'I' for Inactive)
REMARK    1  A    between atoms: O_2  and  C_3 
REMARK    2  A    between atoms: C_3  and  C_4 
REMARK    3  A    between atoms: C_4  and  C_5 
REMARK    4  A    between atoms: C_4  and  O_34 
REMARK    5  A    between atoms: C_5  and  N_6 
REMARK    6  A    between atoms: N_12  and  C_15 
REMARK    7  A    between atoms: C_19  and  C_21 
REMARK       I    between atoms: C_21  and  N_23 
REMARK    8  A    between atoms: N_23  and  C_24 
REMARK    9  A    between atoms: C_24  and  C_25 
REMARK   10  A    between atoms: C_25  and  O_32 
ROOT
HETATM    1  C   UNK N   1      21.709  17.639   4.093  0.00  0.00     0.062 A 
HETATM    2  C   UNK N   1      21.433  16.753   3.039  0.00  0.00     0.033 A 
HETATM    3  C   UNK N   1      20.774  15.536   3.310  0.00  0.00     0.027 A 
HETATM    4  C   UNK N   1      20.446  15.176   4.632  0.00  0.00     0.049 A 
HETATM    5  C   UNK N   1      20.750  16.071   5.679  0.00  0.00     0.056 A 
HETATM    6  C   UNK N   1      21.352  17.258   5.369  0.00  0.00     0.050 A 
HETATM    7 Cl   UNK N   1      19.699  13.611   4.915  0.00  0.00    -0.083 Cl
ENDROOT
BRANCH   1   8
HETATM    8  N   UNK N   1      22.681  18.703   3.978  0.00  0.00    -0.206 N 
HETATM    9  N   UNK N   1      22.352  19.784   3.274  0.00  0.00    -0.295 N 
HETATM   10  C   UNK N   1      23.301  20.609   2.766  0.00  0.00     0.182 C 
ATOM     11  HN  UNK N   1      21.368  19.994   3.112  1.00  0.00     0.187 HD
HETATM   12  C   UNK N   1      24.644  20.288   2.932  0.00  0.00     0.268 C 
HETATM   13  N   UNK N   1      24.999  19.216   3.717  0.00  0.00    -0.261 N 
HETATM   14  O   UNK N   1      25.489  20.946   2.352  0.00  0.00    -0.266 OA
HETATM   15  C   UNK N   1      24.018  18.453   4.291  0.00  0.00     0.351 C 
HETATM   16  O   UNK N   1      24.334  17.503   4.992  0.00  0.00    -0.244 OA
BRANCH  13  17
HETATM   17  C   UNK N   1      26.379  18.716   3.818  0.00  0.00     0.171 C 
BRANCH  17  18
HETATM   18  C   UNK N   1      27.291  19.433   4.780  0.00  0.00     0.160 C 
BRANCH  18  19
HETATM   19  C   UNK N   1      27.609  18.428   5.877  0.00  0.00     0.200 C 
BRANCH  19  20
HETATM   20  O   UNK N   1      28.794  17.748   5.596  0.00  0.00    -0.393 OA
HETATM   21  C   UNK N   1      28.484  16.402   5.780  0.00  0.00     0.201 C 
ENDBRANCH  19  20
ENDBRANCH  18  19
BRANCH  18  22
HETATM   22  O   UNK N   1      28.474  19.749   4.114  0.00  0.00    -0.392 OA
HETATM   23  H   UNK N   1      29.151  19.136   3.787  0.00  0.00     0.210 HD
ENDBRANCH  18  22
ENDBRANCH  17  18
ENDBRANCH  13  17
ENDBRANCH   1   8
BRANCH   5  24
HETATM   24  C   UNK N   1      20.457  15.894   7.111  0.00  0.00     0.253 C 
HETATM   25  O   UNK N   1      19.284  15.877   7.481  0.00  0.00    -0.268 OA
HETATM   26  N   UNK N   1      21.429  15.551   7.975  0.00  0.00    -0.354 N 
HETATM   27  H   UNK N   1      22.370  15.775   7.794  0.00  0.00     0.162 HD
BRANCH  26  28
HETATM   28  C   UNK N   1      21.054  14.850   9.170  0.00  0.00     0.160 C 
BRANCH  28  29
HETATM   29  C   UNK N   1      21.596  13.418   9.049  0.00  0.00     0.074 C 
HETATM   30  C   UNK N   1      22.951  13.484   8.342  0.00  0.00     0.039 C 
HETATM   31  C   UNK N   1      24.081  13.877   9.276  0.00  0.00     0.003 C 
HETATM   32  C   UNK N   1      24.706  12.602   9.828  0.00  0.00     0.000 C 
HETATM   33  C   UNK N   1      23.879  11.942  10.936  0.00  0.00     0.000 C 
HETATM   34  C   UNK N   1      22.478  11.545  10.489  0.00  0.00     0.003 C 
HETATM   35  C   UNK N   1      21.636  12.805  10.444  0.00  0.00     0.039 C 
BRANCH  29  36
HETATM   36  O   UNK N   1      20.758  12.612   8.267  0.00  0.00    -0.388 OA
HETATM   37  H   UNK N   1      19.842  12.621   7.948  0.00  0.00     0.210 HD
ENDBRANCH  29  36
ENDBRANCH  28  29
ENDBRANCH  26  28
ENDBRANCH   5  24
TORSDOF 10
ENDMDL
MODEL 7
REMARK VINA RESULT:      -7.3     14.035     18.250
REMARK  10 active torsions:
REMARK  status: ('A' for Active; 'I' for Inactive)
REMARK    1  A    between atoms: O_2  and  C_3 
REMARK    2  A    between atoms: C_3  and  C_4 
REMARK    3  A    between atoms: C_4  and  C_5 
REMARK    4  A    between atoms: C_4  and  O_34 
REMARK    5  A    between atoms: C_5  and  N_6 
REMARK    6  A    between atoms: N_12  and  C_15 
REMARK    7  A    between atoms: C_19  and  C_21 
REMARK       I    between atoms: C_21  and  N_23 
REMARK    8  A    between atoms: N_23  and  C_24 
REMARK    9  A    between atoms: C_24  and  C_25 
REMARK   10  A    between atoms: C_25  and  O_32 
ROOT
HETATM    1  C   UNK N   1      36.689  13.122  14.077  0.00  0.00     0.062 A 
HETATM    2  C   UNK N   1      36.656  14.331  14.791  0.00  0.00     0.033 A 
HETATM    3  C   UNK N   1      36.244  14.332  16.139  0.00  0.00     0.027 A 
HETATM    4  C   UNK N   1      35.807  13.144  16.756  0.00  0.00     0.049 A 
HETATM    5  C   UNK N   1      35.827  11.942  16.017  0.00  0.00     0.056 A 
HETATM    6  C   UNK N   1      36.274  11.978  14.726  0.00  0.00     0.050 A 
HETATM    7 Cl   UNK N   1      35.228  13.223  18.414  0.00  0.00    -0.083 Cl
ENDROOT
BRANCH   1   8
HETATM    8  N   UNK N   1      36.735  13.073  12.634  0.00  0.00    -0.206 N 
HETATM    9  N   UNK N   1      37.899  12.797  12.050  0.00  0.00    -0.295 N 
HETATM   10  C   UNK N   1      38.137  13.136  10.759  0.00  0.00     0.182 C 
ATOM     11  HN  UNK N   1      38.626  12.321  12.584  1.00  0.00     0.187 HD
HETATM   12  C   UNK N   1      37.170  13.841  10.049  0.00  0.00     0.268 C 
HETATM   13  N   UNK N   1      35.938  14.069  10.615  0.00  0.00    -0.261 N 
HETATM   14  O   UNK N   1      37.441  14.274   8.944  0.00  0.00    -0.266 OA
HETATM   15  C   UNK N   1      35.696  13.634  11.890  0.00  0.00     0.351 C 
HETATM   16  O   UNK N   1      34.599  13.833  12.392  0.00  0.00    -0.244 OA
BRANCH  13  17
HETATM   17  C   UNK N   1      34.918  14.935  10.000  0.00  0.00     0.171 C 
BRANCH  17  18
HETATM   18  C   UNK N   1      35.174  16.419  10.046  0.00  0.00     0.160 C 
BRANCH  18  19
HETATM   19  C   UNK N   1      34.121  17.049   9.147  0.00  0.00     0.200 C 
BRANCH  19  20
HETATM   20  O   UNK N   1      34.712  17.903   8.216  0.00  0.00    -0.393 OA
HETATM   21  C   UNK N   1      33.857  17.875   7.115  0.00  0.00     0.201 C 
ENDBRANCH  19  20
ENDBRANCH  18  19
BRANCH  18  22
HETATM   22  O   UNK N   1      34.964  16.863  11.351  0.00  0.00    -0.392 OA
HETATM   23  H   UNK N   1      34.717  16.331  12.124  0.00  0.00     0.210 HD
ENDBRANCH  18  22
ENDBRANCH  17  18
ENDBRANCH  13  17
ENDBRANCH   1   8
BRANCH   5  24
HETATM   24  C   UNK N   1      35.448  10.602  16.493  0.00  0.00     0.253 C 
HETATM   25  O   UNK N   1      34.298  10.207  16.307  0.00  0.00    -0.268 OA
HETATM   26  N   UNK N   1      36.380   9.741  16.938  0.00  0.00    -0.354 N 
HETATM   27  H   UNK N   1      37.229  10.064  17.316  0.00  0.00     0.162 HD
BRANCH  26  28
HETATM   28  C   UNK N   1      36.100   8.336  16.846  0.00  0.00     0.160 C 
BRANCH  28  29
HETATM   29  C   UNK N   1      37.064   7.745  15.805  0.00  0.00     0.074 C 
HETATM   30  C   UNK N   1      36.236   7.270  14.611  0.00  0.00     0.039 C 
HETATM   31  C   UNK N   1      35.855   8.403  13.675  0.00  0.00     0.003 C 
HETATM   32  C   UNK N   1      36.919   8.499  12.588  0.00  0.00     0.000 C 
HETATM   33  C   UNK N   1      38.212   9.176  13.052  0.00  0.00     0.000 C 
HETATM   34  C   UNK N   1      38.885   8.460  14.215  0.00  0.00     0.003 C 
HETATM   35  C   UNK N   1      38.112   8.801  15.474  0.00  0.00     0.039 C 
BRANCH  29  36
HETATM   36  O   UNK N   1      37.747   6.629  16.308  0.00  0.00    -0.388 OA
HETATM   37  H   UNK N   1      38.628   6.231  16.238  0.00  0.00     0.210 HD
ENDBRANCH  29  36
ENDBRANCH  28  29
ENDBRANCH  26  28
ENDBRANCH   5  24
TORSDOF 10
ENDMDL
MODEL 8
REMARK VINA RESULT:      -7.3      7.527     12.102
REMARK  10 active torsions:
REMARK  status: ('A' for Active; 'I' for Inactive)
REMARK    1  A    between atoms: O_2  and  C_3 
REMARK    2  A    between atoms: C_3  and  C_4 
REMARK    3  A    between atoms: C_4  and  C_5 
REMARK    4  A    between atoms: C_4  and  O_34 
REMARK    5  A    between atoms: C_5  and  N_6 
REMARK    6  A    between atoms: N_12  and  C_15 
REMARK    7  A    between atoms: C_19  and  C_21 
REMARK       I    between atoms: C_21  and  N_23 
REMARK    8  A    between atoms: N_23  and  C_24 
REMARK    9  A    between atoms: C_24  and  C_25 
REMARK   10  A    between atoms: C_25  and  O_32 
ROOT
HETATM    1  C   UNK N   1      33.148  15.832   5.802  0.00  0.00     0.062 A 
HETATM    2  C   UNK N   1      34.152  15.531   4.867  0.00  0.00     0.033 A 
HETATM    3  C   UNK N   1      33.839  14.741   3.742  0.00  0.00     0.027 A 
HETATM    4  C   UNK N   1      32.548  14.202   3.581  0.00  0.00     0.049 A 
HETATM    5  C   UNK N   1      31.558  14.498   4.542  0.00  0.00     0.056 A 
HETATM    6  C   UNK N   1      31.892  15.302   5.595  0.00  0.00     0.050 A 
HETATM    7 Cl   UNK N   1      32.241  13.157   2.201  0.00  0.00    -0.083 Cl
ENDROOT
BRANCH   1   8
HETATM    8  N   UNK N   1      33.445  16.303   7.136  0.00  0.00    -0.206 N 
HETATM    9  N   UNK N   1      33.601  17.612   7.321  0.00  0.00    -0.295 N 
HETATM   10  C   UNK N   1      34.276  18.096   8.393  0.00  0.00     0.182 C 
ATOM     11  HN  UNK N   1      33.206  18.263   6.643  1.00  0.00     0.187 HD
HETATM   12  C   UNK N   1      34.869  17.207   9.284  0.00  0.00     0.268 C 
HETATM   13  N   UNK N   1      34.656  15.856   9.145  0.00  0.00    -0.261 N 
HETATM   14  O   UNK N   1      35.597  17.639  10.159  0.00  0.00    -0.266 OA
HETATM   15  C   UNK N   1      33.894  15.402   8.103  0.00  0.00     0.351 C 
HETATM   16  O   UNK N   1      33.700  14.201   7.982  0.00  0.00    -0.244 OA
BRANCH  13  17
HETATM   17  C   UNK N   1      35.366  14.843   9.943  0.00  0.00     0.171 C 
BRANCH  17  18
HETATM   18  C   UNK N   1      34.612  14.243  11.101  0.00  0.00     0.160 C 
BRANCH  18  19
HETATM   19  C   UNK N   1      35.432  14.566  12.341  0.00  0.00     0.200 C 
BRANCH  19  20
HETATM   20  O   UNK N   1      35.039  13.767  13.415  0.00  0.00    -0.393 OA
HETATM   21  C   UNK N   1      35.290  12.461  12.998  0.00  0.00     0.201 C 
ENDBRANCH  19  20
ENDBRANCH  18  19
BRANCH  18  22
HETATM   22  O   UNK N   1      33.380  14.887  11.206  0.00  0.00    -0.392 OA
HETATM   23  H   UNK N   1      32.594  14.754  10.653  0.00  0.00     0.210 HD
ENDBRANCH  18  22
ENDBRANCH  17  18
ENDBRANCH  13  17
ENDBRANCH   1   8
BRANCH   5  24
HETATM   24  C   UNK N   1      30.152  14.062   4.530  0.00  0.00     0.253 C 
HETATM   25  O   UNK N   1      29.873  12.939   4.947  0.00  0.00    -0.268 OA
HETATM   26  N   UNK N   1      29.164  14.935   4.265  0.00  0.00    -0.354 N 
HETATM   27  H   UNK N   1      29.329  15.737   3.720  0.00  0.00     0.162 HD
BRANCH  26  28
HETATM   28  C   UNK N   1      27.861  14.662   4.800  0.00  0.00     0.160 C 
BRANCH  28  29
HETATM   29  C   UNK N   1      27.056  15.969   4.732  0.00  0.00     0.074 C 
HETATM   30  C   UNK N   1      26.810  16.447   6.164  0.00  0.00     0.039 C 
HETATM   31  C   UNK N   1      28.008  17.168   6.754  0.00  0.00     0.003 C 
HETATM   32  C   UNK N   1      27.844  18.660   6.487  0.00  0.00     0.000 C 
HETATM   33  C   UNK N   1      28.175  19.066   5.048  0.00  0.00     0.000 C 
HETATM   34  C   UNK N   1      27.306  18.371   4.009  0.00  0.00     0.003 C 
HETATM   35  C   UNK N   1      27.820  16.953   3.854  0.00  0.00     0.039 C 
BRANCH  29  36
HETATM   36  O   UNK N   1      25.802  15.773   4.138  0.00  0.00    -0.388 OA
HETATM   37  H   UNK N   1      24.867  15.876   4.376  0.00  0.00     0.210 HD
ENDBRANCH  29  36
ENDBRANCH  28  29
ENDBRANCH  26  28
ENDBRANCH   5  24
TORSDOF 10
ENDMDL
MODEL 9
REMARK VINA RESULT:      -7.2      1.938      3.330
REMARK  10 active torsions:
REMARK  status: ('A' for Active; 'I' for Inactive)
REMARK    1  A    between atoms: O_2  and  C_3 
REMARK    2  A    between atoms: C_3  and  C_4 
REMARK    3  A    between atoms: C_4  and  C_5 
REMARK    4  A    between atoms: C_4  and  O_34 
REMARK    5  A    between atoms: C_5  and  N_6 
REMARK    6  A    between atoms: N_12  and  C_15 
REMARK    7  A    between atoms: C_19  and  C_21 
REMARK       I    between atoms: C_21  and  N_23 
REMARK    8  A    between atoms: N_23  and  C_24 
REMARK    9  A    between atoms: C_24  and  C_25 
REMARK   10  A    between atoms: C_25  and  O_32 
ROOT
HETATM    1  C   UNK N   1      20.904  17.248   4.222  0.00  0.00     0.062 A 
HETATM    2  C   UNK N   1      19.885  17.355   3.262  0.00  0.00     0.033 A 
HETATM    3  C   UNK N   1      19.985  18.330   2.248  0.00  0.00     0.027 A 
HETATM    4  C   UNK N   1      21.065  19.235   2.227  0.00  0.00     0.049 A 
HETATM    5  C   UNK N   1      22.068  19.125   3.213  0.00  0.00     0.056 A 
HETATM    6  C   UNK N   1      21.954  18.139   4.152  0.00  0.00     0.050 A 
HETATM    7 Cl   UNK N   1      21.092  20.480   0.987  0.00  0.00    -0.083 Cl
ENDROOT
BRANCH   1   8
HETATM    8  N   UNK N   1      20.719  16.555   5.477  0.00  0.00    -0.206 N 
HETATM    9  N   UNK N   1      20.073  17.186   6.455  0.00  0.00    -0.295 N 
HETATM   10  C   UNK N   1      20.217  16.812   7.750  0.00  0.00     0.182 C 
ATOM     11  HN  UNK N   1      19.457  17.967   6.226  1.00  0.00     0.187 HD
HETATM   12  C   UNK N   1      21.104  15.789   8.070  0.00  0.00     0.268 C 
HETATM   13  N   UNK N   1      21.723  15.082   7.066  0.00  0.00    -0.261 N 
HETATM   14  O   UNK N   1      21.344  15.555   9.240  0.00  0.00    -0.266 OA
HETATM   15  C   UNK N   1      21.487  15.426   5.763  0.00  0.00     0.351 C 
HETATM   16  O   UNK N   1      22.034  14.794   4.870  0.00  0.00    -0.244 OA
BRANCH  13  17
HETATM   17  C   UNK N   1      22.787  14.096   7.315  0.00  0.00     0.171 C 
BRANCH  17  18
HETATM   18  C   UNK N   1      22.362  12.776   7.903  0.00  0.00     0.160 C 
BRANCH  18  19
HETATM   19  C   UNK N   1      23.062  12.678   9.250  0.00  0.00     0.200 C 
BRANCH  19  20
HETATM   20  O   UNK N   1      22.842  11.429   9.832  0.00  0.00    -0.393 OA
HETATM   21  C   UNK N   1      23.057  11.629  11.194  0.00  0.00     0.201 C 
ENDBRANCH  19  20
ENDBRANCH  18  19
BRANCH  18  22
HETATM   22  O   UNK N   1      20.986  12.813   8.122  0.00  0.00    -0.392 OA
HETATM   23  H   UNK N   1      20.496  12.445   8.874  0.00  0.00     0.210 HD
ENDBRANCH  18  22
ENDBRANCH  17  18
ENDBRANCH  13  17
ENDBRANCH   1   8
BRANCH   5  24
HETATM   24  C   UNK N   1      23.283  19.947   3.337  0.00  0.00     0.253 C 
HETATM   25  O   UNK N   1      23.216  21.150   3.092  0.00  0.00    -0.268 OA
HETATM   26  N   UNK N   1      24.397  19.446   3.901  0.00  0.00    -0.354 N 
HETATM   27  H   UNK N   1      24.578  18.479   3.893  0.00  0.00     0.162 HD
BRANCH  26  28
HETATM   28  C   UNK N   1      25.314  20.364   4.513  0.00  0.00     0.160 C 
BRANCH  28  29
HETATM   29  C   UNK N   1      26.686  19.673   4.565  0.00  0.00     0.074 C 
HETATM   30  C   UNK N   1      27.578  20.467   5.520  0.00  0.00     0.039 C 
HETATM   31  C   UNK N   1      27.312  20.140   6.978  0.00  0.00     0.003 C 
HETATM   32  C   UNK N   1      28.268  19.029   7.398  0.00  0.00     0.000 C 
HETATM   33  C   UNK N   1      27.852  17.642   6.902  0.00  0.00     0.000 C 
HETATM   34  C   UNK N   1      27.761  17.545   5.385  0.00  0.00     0.003 C 
HETATM   35  C   UNK N   1      26.470  18.217   4.959  0.00  0.00     0.039 C 
BRANCH  29  36
HETATM   36  O   UNK N   1      27.313  19.674   3.312  0.00  0.00    -0.388 OA
HETATM   37  H   UNK N   1      27.151  19.317   2.425  0.00  0.00     0.210 HD
ENDBRANCH  29  36
ENDBRANCH  28  29
ENDBRANCH  26  28
ENDBRANCH   5  24
TORSDOF 10
ENDMDL
