MODEL 1
REMARK VINA RESULT:      -4.8      0.000      0.000
REMARK  5 active torsions:
REMARK  status: ('A' for Active; 'I' for Inactive)
REMARK    1  A    between atoms: C_4  and  C_8 
REMARK    2  A    between atoms: C_4  and  C_12 
REMARK    3  A    between atoms: C_8  and  C_9 
REMARK    4  A    between atoms: C_9  and  O_11 
REMARK    5  A    between atoms: C_12  and  N_13 
ROOT
HETATM    1  C   UNK N   1      28.667  17.997   6.481  0.00  0.00     0.010 C 
HETATM    2  C   UNK N   1      29.722  17.397   7.389  0.00  0.00    -0.014 C 
HETATM    3  C   UNK N   1      31.033  17.187   6.660  0.00  0.00     0.016 C 
HETATM    4  C   UNK N   1      32.058  17.173   7.781  0.00  0.00    -0.015 C 
HETATM    5  C   UNK N   1      31.565  18.276   8.706  0.00  0.00     0.016 C 
HETATM    6  C   UNK N   1      30.053  18.340   8.532  0.00  0.00    -0.014 C 
HETATM    7  C   UNK N   1      29.352  17.884   9.797  0.00  0.00     0.010 C 
ENDROOT
BRANCH   4   8
HETATM    8  C   UNK N   1      33.458  17.531   7.261  0.00  0.00     0.121 C 
BRANCH   8   9
HETATM    9  C   UNK N   1      34.428  17.941   8.327  0.00  0.00     0.140 C 
HETATM   10  O   UNK N   1      34.830  17.123   9.139  0.00  0.00    -0.650 OA
BRANCH   9  11
HETATM   11  O   UNK N   1      34.909  19.199   8.350  0.00  0.00    -0.776 OA
HETATM   12  H   UNK N   1      35.325  19.629   7.629  0.00  0.00     0.167 HD
ENDBRANCH   9  11
ENDBRANCH   8   9
ENDBRANCH   4   8
BRANCH   4  13
HETATM   13  C   UNK N   1      32.020  15.819   8.509  0.00  0.00     0.121 C 
BRANCH  13  14
HETATM   14  N   UNK N   1      32.886  14.846   7.859  0.00  0.00    -0.429 N 
HETATM   15  H   UNK N   1      32.842  13.842   8.029  0.00  0.00     0.149 HD
HETATM   16  H   UNK N   1      33.579  15.191   7.193  0.00  0.00     0.149 HD
ENDBRANCH  13  14
ENDBRANCH   4  13
TORSDOF 5
ENDMDL
MODEL 2
REMARK VINA RESULT:      -4.8      1.748      2.866
REMARK  5 active torsions:
REMARK  status: ('A' for Active; 'I' for Inactive)
REMARK    1  A    between atoms: C_4  and  C_8 
REMARK    2  A    between atoms: C_4  and  C_12 
REMARK    3  A    between atoms: C_8  and  C_9 
REMARK    4  A    between atoms: C_9  and  O_11 
REMARK    5  A    between atoms: C_12  and  N_13 
ROOT
HETATM    1  C   UNK N   1      32.442  17.231   3.470  0.00  0.00     0.010 C 
HETATM    2  C   UNK N   1      32.509  16.630   4.860  0.00  0.00    -0.014 C 
HETATM    3  C   UNK N   1      33.375  17.459   5.786  0.00  0.00     0.016 C 
HETATM    4  C   UNK N   1      32.862  17.091   7.168  0.00  0.00    -0.015 C 
HETATM    5  C   UNK N   1      31.356  17.020   6.964  0.00  0.00     0.016 C 
HETATM    6  C   UNK N   1      31.137  16.616   5.511  0.00  0.00    -0.014 C 
HETATM    7  C   UNK N   1      30.541  15.224   5.429  0.00  0.00     0.010 C 
ENDROOT
BRANCH   4   8
HETATM    8  C   UNK N   1      33.187  18.187   8.193  0.00  0.00     0.121 C 
BRANCH   8   9
HETATM    9  C   UNK N   1      34.633  18.264   8.579  0.00  0.00     0.140 C 
HETATM   10  O   UNK N   1      35.373  19.067   8.032  0.00  0.00    -0.650 OA
BRANCH   9  11
HETATM   11  O   UNK N   1      35.105  17.493   9.577  0.00  0.00    -0.776 OA
HETATM   12  H   UNK N   1      35.320  17.798  10.436  0.00  0.00     0.167 HD
ENDBRANCH   9  11
ENDBRANCH   8   9
ENDBRANCH   4   8
BRANCH   4  13
HETATM   13  C   UNK N   1      33.404  15.711   7.576  0.00  0.00     0.121 C 
BRANCH  13  14
HETATM   14  N   UNK N   1      32.847  15.281   8.851  0.00  0.00    -0.429 N 
HETATM   15  H   UNK N   1      33.280  14.583   9.455  0.00  0.00     0.149 HD
HETATM   16  H   UNK N   1      31.972  15.705   9.158  0.00  0.00     0.149 HD
ENDBRANCH  13  14
ENDBRANCH   4  13
TORSDOF 5
ENDMDL
MODEL 3
REMARK VINA RESULT:      -4.8      8.791     10.278
REMARK  5 active torsions:
REMARK  status: ('A' for Active; 'I' for Inactive)
REMARK    1  A    between atoms: C_4  and  C_8 
REMARK    2  A    between atoms: C_4  and  C_12 
REMARK    3  A    between atoms: C_8  and  C_9 
REMARK    4  A    between atoms: C_9  and  O_11 
REMARK    5  A    between atoms: C_12  and  N_13 
ROOT
HETATM    1  C   UNK N   1      35.278  13.222  18.807  0.00  0.00     0.010 C 
HETATM    2  C   UNK N   1      34.941  12.419  17.566  0.00  0.00    -0.014 C 
HETATM    3  C   UNK N   1      35.306  13.167  16.299  0.00  0.00     0.016 C 
HETATM    4  C   UNK N   1      35.470  12.058  15.274  0.00  0.00    -0.015 C 
HETATM    5  C   UNK N   1      36.181  10.968  16.062  0.00  0.00     0.016 C 
HETATM    6  C   UNK N   1      35.751  11.136  17.514  0.00  0.00    -0.014 C 
HETATM    7  C   UNK N   1      34.893   9.966  17.954  0.00  0.00     0.010 C 
ENDROOT
BRANCH   4   8
HETATM    8  C   UNK N   1      36.360  12.506  14.106  0.00  0.00     0.121 C 
BRANCH   8   9
HETATM    9  C   UNK N   1      36.012  13.851  13.542  0.00  0.00     0.140 C 
HETATM   10  O   UNK N   1      34.995  13.995  12.882  0.00  0.00    -0.650 OA
BRANCH   9  11
HETATM   11  O   UNK N   1      36.786  14.916  13.819  0.00  0.00    -0.776 OA
HETATM   12  H   UNK N   1      37.262  15.414  13.184  0.00  0.00     0.167 HD
ENDBRANCH   9  11
ENDBRANCH   8   9
ENDBRANCH   4   8
BRANCH   4  13
HETATM   13  C   UNK N   1      34.088  11.561  14.816  0.00  0.00     0.121 C 
BRANCH  13  14
HETATM   14  N   UNK N   1      34.204  10.369  13.988  0.00  0.00    -0.429 N 
HETATM   15  H   UNK N   1      33.813   9.462  14.239  0.00  0.00     0.149 HD
HETATM   16  H   UNK N   1      34.707  10.447  13.104  0.00  0.00     0.149 HD
ENDBRANCH  13  14
ENDBRANCH   4  13
TORSDOF 5
ENDMDL
MODEL 4
REMARK VINA RESULT:      -4.7      8.771     10.302
REMARK  5 active torsions:
REMARK  status: ('A' for Active; 'I' for Inactive)
REMARK    1  A    between atoms: C_4  and  C_8 
REMARK    2  A    between atoms: C_4  and  C_12 
REMARK    3  A    between atoms: C_8  and  C_9 
REMARK    4  A    between atoms: C_9  and  O_11 
REMARK    5  A    between atoms: C_12  and  N_13 
ROOT
HETATM    1  C   UNK N   1      35.273  10.984  18.919  0.00  0.00     0.010 C 
HETATM    2  C   UNK N   1      35.701  11.735  17.674  0.00  0.00    -0.014 C 
HETATM    3  C   UNK N   1      35.452  10.924  16.418  0.00  0.00     0.016 C 
HETATM    4  C   UNK N   1      35.358  11.982  15.332  0.00  0.00    -0.015 C 
HETATM    5  C   UNK N   1      34.570  13.094  16.006  0.00  0.00     0.016 C 
HETATM    6  C   UNK N   1      34.880  13.000  17.495  0.00  0.00    -0.014 C 
HETATM    7  C   UNK N   1      35.683  14.204  17.948  0.00  0.00     0.010 C 
ENDROOT
BRANCH   4   8
HETATM    8  C   UNK N   1      34.574  11.465  14.117  0.00  0.00     0.121 C 
BRANCH   8   9
HETATM    9  C   UNK N   1      34.927  12.133  12.822  0.00  0.00     0.140 C 
HETATM   10  O   UNK N   1      35.574  11.533  11.978  0.00  0.00    -0.650 OA
BRANCH   9  11
HETATM   11  O   UNK N   1      34.474  13.374  12.562  0.00  0.00    -0.776 OA
HETATM   12  H   UNK N   1      33.730  13.771  12.970  0.00  0.00     0.167 HD
ENDBRANCH   9  11
ENDBRANCH   8   9
ENDBRANCH   4   8
BRANCH   4  13
HETATM   13  C   UNK N   1      36.766  12.481  14.965  0.00  0.00     0.121 C 
BRANCH  13  14
HETATM   14  N   UNK N   1      36.757  13.902  14.653  0.00  0.00    -0.429 N 
HETATM   15  H   UNK N   1      37.600  14.462  14.525  0.00  0.00     0.149 HD
HETATM   16  H   UNK N   1      35.853  14.365  14.555  0.00  0.00     0.149 HD
ENDBRANCH  13  14
ENDBRANCH   4  13
TORSDOF 5
ENDMDL
MODEL 5
REMARK VINA RESULT:      -4.6      1.831      2.754
REMARK  5 active torsions:
REMARK  status: ('A' for Active; 'I' for Inactive)
REMARK    1  A    between atoms: C_4  and  C_8 
REMARK    2  A    between atoms: C_4  and  C_12 
REMARK    3  A    between atoms: C_8  and  C_9 
REMARK    4  A    between atoms: C_9  and  O_11 
REMARK    5  A    between atoms: C_12  and  N_13 
ROOT
HETATM    1  C   UNK N   1      32.521  17.202   5.052  0.00  0.00     0.010 C 
HETATM    2  C   UNK N   1      32.417  16.549   6.416  0.00  0.00    -0.014 C 
HETATM    3  C   UNK N   1      33.723  15.897   6.826  0.00  0.00     0.016 C 
HETATM    4  C   UNK N   1      33.630  15.850   8.341  0.00  0.00    -0.015 C 
HETATM    5  C   UNK N   1      33.002  17.193   8.685  0.00  0.00     0.016 C 
HETATM    6  C   UNK N   1      32.138  17.583   7.493  0.00  0.00    -0.014 C 
HETATM    7  C   UNK N   1      30.669  17.554   7.867  0.00  0.00     0.010 C 
ENDROOT
BRANCH   4   8
HETATM    8  C   UNK N   1      35.022  15.759   8.982  0.00  0.00     0.121 C 
BRANCH   8   9
HETATM    9  C   UNK N   1      35.167  16.529  10.260  0.00  0.00     0.140 C 
HETATM   10  O   UNK N   1      35.663  17.644  10.253  0.00  0.00    -0.650 OA
BRANCH   9  11
HETATM   11  O   UNK N   1      34.689  16.017  11.410  0.00  0.00    -0.776 OA
HETATM   12  H   UNK N   1      33.800  16.077  11.697  0.00  0.00     0.167 HD
ENDBRANCH   9  11
ENDBRANCH   8   9
ENDBRANCH   4   8
BRANCH   4  13
HETATM   13  C   UNK N   1      32.697  14.707   8.773  0.00  0.00     0.121 C 
BRANCH  13  14
HETATM   14  N   UNK N   1      32.092  14.979  10.069  0.00  0.00    -0.429 N 
HETATM   15  H   UNK N   1      32.578  15.442  10.837  0.00  0.00     0.149 HD
HETATM   16  H   UNK N   1      31.125  14.691  10.216  0.00  0.00     0.149 HD
ENDBRANCH  13  14
ENDBRANCH   4  13
TORSDOF 5
ENDMDL
MODEL 6
REMARK VINA RESULT:      -4.6      6.820      8.387
REMARK  5 active torsions:
REMARK  status: ('A' for Active; 'I' for Inactive)
REMARK    1  A    between atoms: C_4  and  C_8 
REMARK    2  A    between atoms: C_4  and  C_12 
REMARK    3  A    between atoms: C_8  and  C_9 
REMARK    4  A    between atoms: C_9  and  O_11 
REMARK    5  A    between atoms: C_12  and  N_13 
ROOT
HETATM    1  C   UNK N   1      33.488  10.764  14.646  0.00  0.00     0.010 C 
HETATM    2  C   UNK N   1      34.826  11.322  14.205  0.00  0.00    -0.014 C 
HETATM    3  C   UNK N   1      34.679  12.261  13.025  0.00  0.00     0.016 C 
HETATM    4  C   UNK N   1      35.920  13.133  13.115  0.00  0.00    -0.015 C 
HETATM    5  C   UNK N   1      36.055  13.379  14.611  0.00  0.00     0.016 C 
HETATM    6  C   UNK N   1      35.451  12.163  15.303  0.00  0.00    -0.014 C 
HETATM    7  C   UNK N   1      36.528  11.367  16.014  0.00  0.00     0.010 C 
ENDROOT
BRANCH   4   8
HETATM    8  C   UNK N   1      35.713  14.473  12.395  0.00  0.00     0.121 C 
BRANCH   8   9
HETATM    9  C   UNK N   1      34.778  14.408  11.225  0.00  0.00     0.140 C 
HETATM   10  O   UNK N   1      35.129  13.871  10.187  0.00  0.00    -0.650 OA
BRANCH   9  11
HETATM   11  O   UNK N   1      33.525  14.887  11.339  0.00  0.00    -0.776 OA
HETATM   12  H   UNK N   1      33.297  15.714  11.715  0.00  0.00     0.167 HD
ENDBRANCH   9  11
ENDBRANCH   8   9
ENDBRANCH   4   8
BRANCH   4  13
HETATM   13  C   UNK N   1      37.143  12.358  12.596  0.00  0.00     0.121 C 
BRANCH  13  14
HETATM   14  N   UNK N   1      37.899  13.147  11.635  0.00  0.00    -0.429 N 
HETATM   15  H   UNK N   1      37.480  13.830  11.005  0.00  0.00     0.149 HD
HETATM   16  H   UNK N   1      38.909  13.009  11.591  0.00  0.00     0.149 HD
ENDBRANCH  13  14
ENDBRANCH   4  13
TORSDOF 5
ENDMDL
MODEL 7
REMARK VINA RESULT:      -4.5     16.304     17.654
REMARK  5 active torsions:
REMARK  status: ('A' for Active; 'I' for Inactive)
REMARK    1  A    between atoms: C_4  and  C_8 
REMARK    2  A    between atoms: C_4  and  C_12 
REMARK    3  A    between atoms: C_8  and  C_9 
REMARK    4  A    between atoms: C_9  and  O_11 
REMARK    5  A    between atoms: C_12  and  N_13 
ROOT
HETATM    1  C   UNK N   1      25.506  24.066  -8.412  0.00  0.00     0.010 C 
HETATM    2  C   UNK N   1      26.251  24.883  -7.376  0.00  0.00    -0.014 C 
HETATM    3  C   UNK N   1      25.553  26.198  -7.092  0.00  0.00     0.016 C 
HETATM    4  C   UNK N   1      26.048  26.564  -5.704  0.00  0.00    -0.015 C 
HETATM    5  C   UNK N   1      26.049  25.226  -4.979  0.00  0.00     0.016 C 
HETATM    6  C   UNK N   1      26.290  24.161  -6.041  0.00  0.00    -0.014 C 
HETATM    7  C   UNK N   1      27.647  23.512  -5.846  0.00  0.00     0.010 C 
ENDROOT
BRANCH   4   8
HETATM    8  C   UNK N   1      25.077  27.524  -5.001  0.00  0.00     0.121 C 
BRANCH   8   9
HETATM    9  C   UNK N   1      25.629  28.168  -3.765  0.00  0.00     0.140 C 
HETATM   10  O   UNK N   1      25.816  27.504  -2.758  0.00  0.00    -0.650 OA
BRANCH   9  11
HETATM   11  O   UNK N   1      25.982  29.467  -3.786  0.00  0.00    -0.776 OA
HETATM   12  H   UNK N   1      26.634  29.856  -3.237  0.00  0.00     0.167 HD
ENDBRANCH   9  11
ENDBRANCH   8   9
ENDBRANCH   4   8
BRANCH   4  13
HETATM   13  C   UNK N   1      27.480  27.119  -5.788  0.00  0.00     0.121 C 
BRANCH  13  14
HETATM   14  N   UNK N   1      27.572  28.193  -6.766  0.00  0.00    -0.429 N 
HETATM   15  H   UNK N   1      27.539  29.184  -6.527  0.00  0.00     0.149 HD
HETATM   16  H   UNK N   1      27.677  27.939  -7.749  0.00  0.00     0.149 HD
ENDBRANCH  13  14
ENDBRANCH   4  13
TORSDOF 5
ENDMDL
MODEL 8
REMARK VINA RESULT:      -4.5      3.307      4.100
REMARK  5 active torsions:
REMARK  status: ('A' for Active; 'I' for Inactive)
REMARK    1  A    between atoms: C_4  and  C_8 
REMARK    2  A    between atoms: C_4  and  C_12 
REMARK    3  A    between atoms: C_8  and  C_9 
REMARK    4  A    between atoms: C_9  and  O_11 
REMARK    5  A    between atoms: C_12  and  N_13 
ROOT
HETATM    1  C   UNK N   1      30.750  17.790   8.657  0.00  0.00     0.010 C 
HETATM    2  C   UNK N   1      31.780  17.079   7.801  0.00  0.00    -0.014 C 
HETATM    3  C   UNK N   1      31.505  17.269   6.323  0.00  0.00     0.016 C 
HETATM    4  C   UNK N   1      32.865  17.044   5.683  0.00  0.00    -0.015 C 
HETATM    5  C   UNK N   1      33.814  17.740   6.647  0.00  0.00     0.016 C 
HETATM    6  C   UNK N   1      33.164  17.663   8.023  0.00  0.00    -0.014 C 
HETATM    7  C   UNK N   1      33.964  16.757   8.939  0.00  0.00     0.010 C 
ENDROOT
BRANCH   4   8
HETATM    8  C   UNK N   1      32.951  17.717   4.306  0.00  0.00     0.121 C 
BRANCH   8   9
HETATM    9  C   UNK N   1      32.417  16.889   3.177  0.00  0.00     0.140 C 
HETATM   10  O   UNK N   1      33.157  16.139   2.561  0.00  0.00    -0.650 OA
BRANCH   9  11
HETATM   11  O   UNK N   1      31.103  16.922   2.883  0.00  0.00    -0.776 OA
HETATM   12  H   UNK N   1      30.732  16.686   2.056  0.00  0.00     0.167 HD
ENDBRANCH   9  11
ENDBRANCH   8   9
ENDBRANCH   4   8
BRANCH   4  13
HETATM   13  C   UNK N   1      33.176  15.538   5.632  0.00  0.00     0.121 C 
BRANCH  13  14
HETATM   14  N   UNK N   1      34.587  15.300   5.367  0.00  0.00    -0.429 N 
HETATM   15  H   UNK N   1      35.339  15.902   5.703  0.00  0.00     0.149 HD
HETATM   16  H   UNK N   1      34.839  14.481   4.812  0.00  0.00     0.149 HD
ENDBRANCH  13  14
ENDBRANCH   4  13
TORSDOF 5
ENDMDL
MODEL 9
REMARK VINA RESULT:      -4.4     16.108     17.865
REMARK  5 active torsions:
REMARK  status: ('A' for Active; 'I' for Inactive)
REMARK    1  A    between atoms: C_4  and  C_8 
REMARK    2  A    between atoms: C_4  and  C_12 
REMARK    3  A    between atoms: C_8  and  C_9 
REMARK    4  A    between atoms: C_9  and  O_11 
REMARK    5  A    between atoms: C_12  and  N_13 
ROOT
HETATM    1  C   UNK N   1      28.053  27.707  -8.184  0.00  0.00     0.010 C 
HETATM    2  C   UNK N   1      27.381  26.938  -7.064  0.00  0.00    -0.014 C 
HETATM    3  C   UNK N   1      27.238  27.782  -5.813  0.00  0.00     0.016 C 
HETATM    4  C   UNK N   1      26.085  27.123  -5.077  0.00  0.00    -0.015 C 
HETATM    5  C   UNK N   1      25.116  26.780  -6.199  0.00  0.00     0.016 C 
HETATM    6  C   UNK N   1      25.962  26.554  -7.445  0.00  0.00    -0.014 C 
HETATM    7  C   UNK N   1      25.917  25.097  -7.862  0.00  0.00     0.010 C 
ENDROOT
BRANCH   4   8
HETATM    8  C   UNK N   1      25.412  28.102  -4.104  0.00  0.00     0.121 C 
BRANCH   8   9
HETATM    9  C   UNK N   1      26.344  29.104  -3.491  0.00  0.00     0.140 C 
HETATM   10  O   UNK N   1      26.342  30.262  -3.877  0.00  0.00    -0.650 OA
BRANCH   9  11
HETATM   11  O   UNK N   1      27.141  28.742  -2.468  0.00  0.00    -0.776 OA
HETATM   12  H   UNK N   1      28.031  29.010  -2.359  0.00  0.00     0.167 HD
ENDBRANCH   9  11
ENDBRANCH   8   9
ENDBRANCH   4   8
BRANCH   4  13
HETATM   13  C   UNK N   1      26.571  25.836  -4.389  0.00  0.00     0.121 C 
BRANCH  13  14
HETATM   14  N   UNK N   1      27.918  25.997  -3.862  0.00  0.00    -0.429 N 
HETATM   15  H   UNK N   1      28.531  25.218  -3.619  0.00  0.00     0.149 HD
HETATM   16  H   UNK N   1      28.271  26.945  -3.728  0.00  0.00     0.149 HD
ENDBRANCH  13  14
ENDBRANCH   4  13
TORSDOF 5
ENDMDL
