MODEL 1
REMARK VINA RESULT:      -6.2      0.000      0.000
REMARK  3 active torsions:
REMARK  status: ('A' for Active; 'I' for Inactive)
REMARK    1  A    between atoms: C_2  and  C_3 
REMARK    2  A    between atoms: C_3  and  C_4 
REMARK    3  A    between atoms: C_3  and  C_11 
ROOT
HETATM    1  C   UNK N   1      29.557  16.614   6.079  0.00  0.00     0.091 C 
ENDROOT
BRANCH   1   2
HETATM    2  C   UNK N   1      29.040  15.515   5.108  0.00  0.00     0.121 C 
HETATM    3  C   UNK N   1      27.617  15.073   5.418  0.00  0.00     0.051 C 
HETATM    4 Cl   UNK N   1      29.076  16.109   3.426  0.00  0.00    -0.101 Cl
HETATM    5 Cl   UNK N   1      30.115  14.091   5.161  0.00  0.00    -0.101 Cl
ENDBRANCH   1   2
BRANCH   1   6
HETATM    6  C   UNK N   1      28.781  17.926   6.097  0.00  0.00    -0.046 A 
HETATM    7  C   UNK N   1      28.492  18.630   4.915  0.00  0.00     0.009 A 
HETATM    8  C   UNK N   1      27.811  19.847   4.961  0.00  0.00     0.024 A 
HETATM    9  C   UNK N   1      27.411  20.377   6.189  0.00  0.00     0.034 A 
HETATM   10  C   UNK N   1      27.688  19.686   7.371  0.00  0.00     0.024 A 
HETATM   11 Cl   UNK N   1      26.569  21.911   6.244  0.00  0.00    -0.084 Cl
HETATM   12  C   UNK N   1      28.371  18.465   7.326  0.00  0.00     0.009 A 
ENDBRANCH   1   6
BRANCH   1  13
HETATM   13  C   UNK N   1      31.038  16.892   5.917  0.00  0.00    -0.025 A 
HETATM   14  C   UNK N   1      31.556  17.234   4.657  0.00  0.00     0.010 A 
HETATM   15  C   UNK N   1      32.916  17.511   4.503  0.00  0.00     0.001 A 
HETATM   16  C   UNK N   1      33.772  17.441   5.603  0.00  0.00     0.002 A 
HETATM   17  C   UNK N   1      33.269  17.096   6.858  0.00  0.00     0.024 A 
HETATM   18  C   UNK N   1      31.906  16.825   7.025  0.00  0.00     0.041 A 
HETATM   19 Cl   UNK N   1      31.322  16.385   8.623  0.00  0.00    -0.084 Cl
ENDBRANCH   1  13
TORSDOF 3
ENDMDL
MODEL 2
REMARK VINA RESULT:      -6.0     12.464     15.194
REMARK  3 active torsions:
REMARK  status: ('A' for Active; 'I' for Inactive)
REMARK    1  A    between atoms: C_2  and  C_3 
REMARK    2  A    between atoms: C_3  and  C_4 
REMARK    3  A    between atoms: C_3  and  C_11 
ROOT
HETATM    1  C   UNK N   1      27.246  26.604  -5.883  0.00  0.00     0.091 C 
ENDROOT
BRANCH   1   2
HETATM    2  C   UNK N   1      25.931  26.175  -6.598  0.00  0.00     0.121 C 
HETATM    3  C   UNK N   1      25.947  26.471  -8.090  0.00  0.00     0.051 C 
HETATM    4 Cl   UNK N   1      25.656  24.426  -6.387  0.00  0.00    -0.101 Cl
HETATM    5 Cl   UNK N   1      24.531  26.998  -5.856  0.00  0.00    -0.101 Cl
ENDBRANCH   1   2
BRANCH   1   6
HETATM    6  C   UNK N   1      27.820  25.623  -4.869  0.00  0.00    -0.046 A 
HETATM    7  C   UNK N   1      27.003  24.961  -3.936  0.00  0.00     0.009 A 
HETATM    8  C   UNK N   1      27.558  24.093  -2.994  0.00  0.00     0.024 A 
HETATM    9  C   UNK N   1      28.937  23.878  -2.972  0.00  0.00     0.034 A 
HETATM   10  C   UNK N   1      29.760  24.526  -3.896  0.00  0.00     0.024 A 
HETATM   11 Cl   UNK N   1      29.632  22.799  -1.780  0.00  0.00    -0.084 Cl
HETATM   12  C   UNK N   1      29.204  25.395  -4.841  0.00  0.00     0.009 A 
ENDBRANCH   1   6
BRANCH   1  13
HETATM   13  C   UNK N   1      27.156  27.988  -5.270  0.00  0.00    -0.025 A 
HETATM   14  C   UNK N   1      26.512  28.171  -4.036  0.00  0.00     0.010 A 
HETATM   15  C   UNK N   1      26.443  29.438  -3.454  0.00  0.00     0.001 A 
HETATM   16  C   UNK N   1      27.009  30.536  -4.104  0.00  0.00     0.002 A 
HETATM   17  C   UNK N   1      27.646  30.367  -5.335  0.00  0.00     0.024 A 
HETATM   18  C   UNK N   1      27.729  29.099  -5.921  0.00  0.00     0.041 A 
HETATM   19 Cl   UNK N   1      28.532  28.938  -7.476  0.00  0.00    -0.084 Cl
ENDBRANCH   1  13
TORSDOF 3
ENDMDL
MODEL 3
REMARK VINA RESULT:      -5.9      7.876     10.519
REMARK  3 active torsions:
REMARK  status: ('A' for Active; 'I' for Inactive)
REMARK    1  A    between atoms: C_2  and  C_3 
REMARK    2  A    between atoms: C_3  and  C_4 
REMARK    3  A    between atoms: C_3  and  C_11 
ROOT
HETATM    1  C   UNK N   1      35.625  12.417  12.547  0.00  0.00     0.091 C 
ENDROOT
BRANCH   1   2
HETATM    2  C   UNK N   1      36.848  11.551  12.126  0.00  0.00     0.121 C 
HETATM    3  C   UNK N   1      36.474  10.421  11.179  0.00  0.00     0.051 C 
HETATM    4 Cl   UNK N   1      38.072  12.564  11.315  0.00  0.00    -0.101 Cl
HETATM    5 Cl   UNK N   1      37.641  10.863  13.570  0.00  0.00    -0.101 Cl
ENDBRANCH   1   2
BRANCH   1   6
HETATM    6  C   UNK N   1      35.333  13.643  11.692  0.00  0.00    -0.046 A 
HETATM    7  C   UNK N   1      35.709  14.935  12.098  0.00  0.00     0.009 A 
HETATM    8  C   UNK N   1      35.398  16.047  11.314  0.00  0.00     0.024 A 
HETATM    9  C   UNK N   1      34.706  15.881  10.113  0.00  0.00     0.034 A 
HETATM   10  C   UNK N   1      34.330  14.602   9.694  0.00  0.00     0.024 A 
HETATM   11 Cl   UNK N   1      34.306  17.279   9.137  0.00  0.00    -0.084 Cl
HETATM   12  C   UNK N   1      34.642  13.487  10.480  0.00  0.00     0.009 A 
ENDBRANCH   1   6
BRANCH   1  13
HETATM   13  C   UNK N   1      35.657  12.805  14.012  0.00  0.00    -0.025 A 
HETATM   14  C   UNK N   1      36.575  13.765  14.467  0.00  0.00     0.010 A 
HETATM   15  C   UNK N   1      36.597  14.144  15.810  0.00  0.00     0.001 A 
HETATM   16  C   UNK N   1      35.709  13.559  16.714  0.00  0.00     0.002 A 
HETATM   17  C   UNK N   1      34.797  12.597  16.276  0.00  0.00     0.024 A 
HETATM   18  C   UNK N   1      34.761  12.219  14.929  0.00  0.00     0.041 A 
HETATM   19 Cl   UNK N   1      33.602  10.997  14.426  0.00  0.00    -0.084 Cl
ENDBRANCH   1  13
TORSDOF 3
ENDMDL
MODEL 4
REMARK VINA RESULT:      -5.7     12.448     15.129
REMARK  3 active torsions:
REMARK  status: ('A' for Active; 'I' for Inactive)
REMARK    1  A    between atoms: C_2  and  C_3 
REMARK    2  A    between atoms: C_3  and  C_4 
REMARK    3  A    between atoms: C_3  and  C_11 
ROOT
HETATM    1  C   UNK N   1      26.094  25.628  -5.366  0.00  0.00     0.091 C 
ENDROOT
BRANCH   1   2
HETATM    2  C   UNK N   1      25.741  27.102  -5.013  0.00  0.00     0.121 C 
HETATM    3  C   UNK N   1      25.787  27.378  -3.517  0.00  0.00     0.051 C 
HETATM    4 Cl   UNK N   1      26.880  28.218  -5.813  0.00  0.00    -0.101 Cl
HETATM    5 Cl   UNK N   1      24.118  27.511  -5.631  0.00  0.00    -0.101 Cl
ENDBRANCH   1   2
BRANCH   1   6
HETATM    6  C   UNK N   1      27.395  25.082  -4.791  0.00  0.00    -0.046 A 
HETATM    7  C   UNK N   1      28.638  25.350  -5.390  0.00  0.00     0.009 A 
HETATM    8  C   UNK N   1      29.813  24.810  -4.864  0.00  0.00     0.024 A 
HETATM    9  C   UNK N   1      29.759  23.994  -3.733  0.00  0.00     0.034 A 
HETATM   10  C   UNK N   1      28.531  23.723  -3.125  0.00  0.00     0.024 A 
HETATM   11 Cl   UNK N   1      31.233  23.307  -3.084  0.00  0.00    -0.084 Cl
HETATM   12  C   UNK N   1      27.353  24.265  -3.651  0.00  0.00     0.009 A 
ENDBRANCH   1   6
BRANCH   1  13
HETATM   13  C   UNK N   1      26.031  25.349  -6.855  0.00  0.00    -0.025 A 
HETATM   14  C   UNK N   1      26.251  26.387  -7.775  0.00  0.00     0.010 A 
HETATM   15  C   UNK N   1      26.215  26.136  -9.148  0.00  0.00     0.001 A 
HETATM   16  C   UNK N   1      25.950  24.847  -9.615  0.00  0.00     0.002 A 
HETATM   17  C   UNK N   1      25.723  23.809  -8.709  0.00  0.00     0.024 A 
HETATM   18  C   UNK N   1      25.766  24.049  -7.331  0.00  0.00     0.041 A 
HETATM   19 Cl   UNK N   1      25.464  22.713  -6.231  0.00  0.00    -0.084 Cl
ENDBRANCH   1  13
TORSDOF 3
ENDMDL
MODEL 5
REMARK VINA RESULT:      -5.6     12.429     14.729
REMARK  3 active torsions:
REMARK  status: ('A' for Active; 'I' for Inactive)
REMARK    1  A    between atoms: C_2  and  C_3 
REMARK    2  A    between atoms: C_3  and  C_4 
REMARK    3  A    between atoms: C_3  and  C_11 
ROOT
HETATM    1  C   UNK N   1      26.209  24.264  -6.500  0.00  0.00     0.091 C 
ENDROOT
BRANCH   1   2
HETATM    2  C   UNK N   1      26.066  25.752  -6.931  0.00  0.00     0.121 C 
HETATM    3  C   UNK N   1      25.593  25.908  -8.369  0.00  0.00     0.051 C 
HETATM    4 Cl   UNK N   1      24.898  26.592  -5.876  0.00  0.00    -0.101 Cl
HETATM    5 Cl   UNK N   1      27.623  26.603  -6.736  0.00  0.00    -0.101 Cl
ENDBRANCH   1   2
BRANCH   1   6
HETATM    6  C   UNK N   1      27.139  23.983  -5.326  0.00  0.00    -0.046 A 
HETATM    7  C   UNK N   1      28.422  23.438  -5.513  0.00  0.00     0.009 A 
HETATM    8  C   UNK N   1      29.241  23.156  -4.419  0.00  0.00     0.024 A 
HETATM    9  C   UNK N   1      28.788  23.413  -3.124  0.00  0.00     0.034 A 
HETATM   10  C   UNK N   1      27.517  23.958  -2.924  0.00  0.00     0.024 A 
HETATM   11 Cl   UNK N   1      29.813  23.046  -1.753  0.00  0.00    -0.084 Cl
HETATM   12  C   UNK N   1      26.696  24.242  -4.020  0.00  0.00     0.009 A 
ENDBRANCH   1   6
BRANCH   1  13
HETATM   13  C   UNK N   1      26.547  23.347  -7.658  0.00  0.00    -0.025 A 
HETATM   14  C   UNK N   1      27.558  23.701  -8.565  0.00  0.00     0.010 A 
HETATM   15  C   UNK N   1      27.890  22.853  -9.623  0.00  0.00     0.001 A 
HETATM   16  C   UNK N   1      27.208  21.647  -9.790  0.00  0.00     0.002 A 
HETATM   17  C   UNK N   1      26.196  21.287  -8.899  0.00  0.00     0.024 A 
HETATM   18  C   UNK N   1      25.863  22.127  -7.830  0.00  0.00     0.041 A 
HETATM   19 Cl   UNK N   1      24.575  21.636  -6.740  0.00  0.00    -0.084 Cl
ENDBRANCH   1  13
TORSDOF 3
ENDMDL
MODEL 6
REMARK VINA RESULT:      -5.6     14.534     16.934
REMARK  3 active torsions:
REMARK  status: ('A' for Active; 'I' for Inactive)
REMARK    1  A    between atoms: C_2  and  C_3 
REMARK    2  A    between atoms: C_3  and  C_4 
REMARK    3  A    between atoms: C_3  and  C_11 
ROOT
HETATM    1  C   UNK N   1      34.926   8.414  19.328  0.00  0.00     0.091 C 
ENDROOT
BRANCH   1   2
HETATM    2  C   UNK N   1      35.775   8.498  20.630  0.00  0.00     0.121 C 
HETATM    3  C   UNK N   1      35.840   7.176  21.379  0.00  0.00     0.051 C 
HETATM    4 Cl   UNK N   1      37.445   8.995  20.248  0.00  0.00    -0.101 Cl
HETATM    5 Cl   UNK N   1      35.113   9.751  21.716  0.00  0.00    -0.101 Cl
ENDBRANCH   1   2
BRANCH   1   6
HETATM    6  C   UNK N   1      35.000   9.612  18.389  0.00  0.00    -0.046 A 
HETATM    7  C   UNK N   1      35.241  10.912  18.867  0.00  0.00     0.009 A 
HETATM    8  C   UNK N   1      35.269  11.998  17.991  0.00  0.00     0.024 A 
HETATM    9  C   UNK N   1      35.055  11.799  16.626  0.00  0.00     0.034 A 
HETATM   10  C   UNK N   1      34.819  10.512  16.137  0.00  0.00     0.024 A 
HETATM   11 Cl   UNK N   1      35.078  13.165  15.531  0.00  0.00    -0.084 Cl
HETATM   12  C   UNK N   1      34.792   9.422  17.015  0.00  0.00     0.009 A 
ENDBRANCH   1   6
BRANCH   1  13
HETATM   13  C   UNK N   1      33.478   8.055  19.594  0.00  0.00    -0.025 A 
HETATM   14  C   UNK N   1      32.603   9.010  20.136  0.00  0.00     0.010 A 
HETATM   15  C   UNK N   1      31.263   8.695  20.365  0.00  0.00     0.001 A 
HETATM   16  C   UNK N   1      30.786   7.418  20.063  0.00  0.00     0.002 A 
HETATM   17  C   UNK N   1      31.647   6.458  19.530  0.00  0.00     0.024 A 
HETATM   18  C   UNK N   1      32.991   6.768  19.288  0.00  0.00     0.041 A 
HETATM   19 Cl   UNK N   1      34.039   5.524  18.626  0.00  0.00    -0.084 Cl
ENDBRANCH   1  13
TORSDOF 3
ENDMDL
MODEL 7
REMARK VINA RESULT:      -5.5     11.766     14.590
REMARK  3 active torsions:
REMARK  status: ('A' for Active; 'I' for Inactive)
REMARK    1  A    between atoms: C_2  and  C_3 
REMARK    2  A    between atoms: C_3  and  C_4 
REMARK    3  A    between atoms: C_3  and  C_11 
ROOT
HETATM    1  C   UNK N   1      36.296  11.272  14.818  0.00  0.00     0.091 C 
ENDROOT
BRANCH   1   2
HETATM    2  C   UNK N   1      35.058  10.912  13.946  0.00  0.00     0.121 C 
HETATM    3  C   UNK N   1      33.780  10.777  14.760  0.00  0.00     0.051 C 
HETATM    4 Cl   UNK N   1      34.789  12.168  12.707  0.00  0.00    -0.101 Cl
HETATM    5 Cl   UNK N   1      35.349   9.389  13.062  0.00  0.00    -0.101 Cl
ENDBRANCH   1   2
BRANCH   1   6
HETATM    6  C   UNK N   1      37.257  10.134  15.137  0.00  0.00    -0.046 A 
HETATM    7  C   UNK N   1      36.903   9.090  16.011  0.00  0.00     0.009 A 
HETATM    8  C   UNK N   1      37.814   8.078  16.316  0.00  0.00     0.024 A 
HETATM    9  C   UNK N   1      39.091   8.096  15.752  0.00  0.00     0.034 A 
HETATM   10  C   UNK N   1      39.454   9.124  14.879  0.00  0.00     0.024 A 
HETATM   11 Cl   UNK N   1      40.236   6.832  16.146  0.00  0.00    -0.084 Cl
HETATM   12  C   UNK N   1      38.541  10.139  14.572  0.00  0.00     0.009 A 
ENDBRANCH   1   6
BRANCH   1  13
HETATM   13  C   UNK N   1      35.923  12.007  16.091  0.00  0.00    -0.025 A 
HETATM   14  C   UNK N   1      35.501  11.288  17.220  0.00  0.00     0.010 A 
HETATM   15  C   UNK N   1      35.176  11.954  18.403  0.00  0.00     0.001 A 
HETATM   16  C   UNK N   1      35.261  13.346  18.465  0.00  0.00     0.002 A 
HETATM   17  C   UNK N   1      35.673  14.072  17.346  0.00  0.00     0.024 A 
HETATM   18  C   UNK N   1      36.010  13.412  16.159  0.00  0.00     0.041 A 
HETATM   19 Cl   UNK N   1      36.514  14.368  14.774  0.00  0.00    -0.084 Cl
ENDBRANCH   1  13
TORSDOF 3
ENDMDL
MODEL 8
REMARK VINA RESULT:      -5.5     12.045     14.656
REMARK  3 active torsions:
REMARK  status: ('A' for Active; 'I' for Inactive)
REMARK    1  A    between atoms: C_2  and  C_3 
REMARK    2  A    between atoms: C_3  and  C_4 
REMARK    3  A    between atoms: C_3  and  C_11 
ROOT
HETATM    1  C   UNK N   1      27.800  25.566  -6.071  0.00  0.00     0.091 C 
ENDROOT
BRANCH   1   2
HETATM    2  C   UNK N   1      26.744  24.766  -6.887  0.00  0.00     0.121 C 
HETATM    3  C   UNK N   1      25.731  25.664  -7.583  0.00  0.00     0.051 C 
HETATM    4 Cl   UNK N   1      27.548  23.776  -8.135  0.00  0.00    -0.101 Cl
HETATM    5 Cl   UNK N   1      25.876  23.626  -5.822  0.00  0.00    -0.101 Cl
ENDBRANCH   1   2
BRANCH   1   6
HETATM    6  C   UNK N   1      28.753  24.750  -5.207  0.00  0.00    -0.046 A 
HETATM    7  C   UNK N   1      29.616  25.360  -4.280  0.00  0.00     0.009 A 
HETATM    8  C   UNK N   1      30.506  24.593  -3.526  0.00  0.00     0.024 A 
HETATM    9  C   UNK N   1      30.545  23.208  -3.690  0.00  0.00     0.034 A 
HETATM   10  C   UNK N   1      29.691  22.588  -4.605  0.00  0.00     0.024 A 
HETATM   11 Cl   UNK N   1      31.672  22.250  -2.752  0.00  0.00    -0.084 Cl
HETATM   12  C   UNK N   1      28.798  23.357  -5.361  0.00  0.00     0.009 A 
ENDBRANCH   1   6
BRANCH   1  13
HETATM   13  C   UNK N   1      27.184  26.682  -5.249  0.00  0.00    -0.025 A 
HETATM   14  C   UNK N   1      26.487  26.383  -4.067  0.00  0.00     0.010 A 
HETATM   15  C   UNK N   1      25.935  27.405  -3.293  0.00  0.00     0.001 A 
HETATM   16  C   UNK N   1      26.066  28.734  -3.697  0.00  0.00     0.002 A 
HETATM   17  C   UNK N   1      26.750  29.043  -4.874  0.00  0.00     0.024 A 
HETATM   18  C   UNK N   1      27.316  28.026  -5.652  0.00  0.00     0.041 A 
HETATM   19 Cl   UNK N   1      28.159  28.462  -7.129  0.00  0.00    -0.084 Cl
ENDBRANCH   1  13
TORSDOF 3
ENDMDL
MODEL 9
REMARK VINA RESULT:      -5.5      1.829      2.411
REMARK  3 active torsions:
REMARK  status: ('A' for Active; 'I' for Inactive)
REMARK    1  A    between atoms: C_2  and  C_3 
REMARK    2  A    between atoms: C_3  and  C_4 
REMARK    3  A    between atoms: C_3  and  C_11 
ROOT
HETATM    1  C   UNK N   1      28.882  16.263   5.846  0.00  0.00     0.091 C 
ENDROOT
BRANCH   1   2
HETATM    2  C   UNK N   1      29.413  15.069   5.001  0.00  0.00     0.121 C 
HETATM    3  C   UNK N   1      28.356  14.002   4.757  0.00  0.00     0.051 C 
HETATM    4 Cl   UNK N   1      29.990  15.644   3.414  0.00  0.00    -0.101 Cl
HETATM    5 Cl   UNK N   1      30.819  14.322   5.807  0.00  0.00    -0.101 Cl
ENDBRANCH   1   2
BRANCH   1   6
HETATM    6  C   UNK N   1      28.156  17.366   5.086  0.00  0.00    -0.046 A 
HETATM    7  C   UNK N   1      28.686  18.664   4.981  0.00  0.00     0.009 A 
HETATM    8  C   UNK N   1      27.985  19.667   4.309  0.00  0.00     0.024 A 
HETATM    9  C   UNK N   1      26.745  19.384   3.734  0.00  0.00     0.034 A 
HETATM   10  C   UNK N   1      26.208  18.098   3.827  0.00  0.00     0.024 A 
HETATM   11 Cl   UNK N   1      25.862  20.647   2.903  0.00  0.00    -0.084 Cl
HETATM   12  C   UNK N   1      26.911  17.092   4.500  0.00  0.00     0.009 A 
ENDBRANCH   1   6
BRANCH   1  13
HETATM   13  C   UNK N   1      29.946  16.868   6.742  0.00  0.00    -0.025 A 
HETATM   14  C   UNK N   1      31.266  16.994   6.280  0.00  0.00     0.010 A 
HETATM   15  C   UNK N   1      32.247  17.568   7.091  0.00  0.00     0.001 A 
HETATM   16  C   UNK N   1      31.921  18.012   8.373  0.00  0.00     0.002 A 
HETATM   17  C   UNK N   1      30.614  17.885   8.845  0.00  0.00     0.024 A 
HETATM   18  C   UNK N   1      29.621  17.320   8.037  0.00  0.00     0.041 A 
HETATM   19 Cl   UNK N   1      27.992  17.172   8.678  0.00  0.00    -0.084 Cl
ENDBRANCH   1  13
TORSDOF 3
ENDMDL
