MODEL 1
REMARK VINA RESULT:      -7.4      0.000      0.000
REMARK  11 active torsions:
REMARK  status: ('A' for Active; 'I' for Inactive)
REMARK    1  A    between atoms: C_2  and  O_3 
REMARK    2  A    between atoms: O_3  and  C_4 
REMARK    3  A    between atoms: C_7  and  C_10 
REMARK    4  A    between atoms: C_10  and  C_11 
REMARK    5  A    between atoms: C_20  and  C_13 
REMARK    6  A    between atoms: C_14  and  O_18 
REMARK    7  A    between atoms: C_21  and  O_30 
REMARK    8  A    between atoms: C_22  and  O_29 
REMARK    9  A    between atoms: C_23  and  O_28 
REMARK   10  A    between atoms: C_24  and  C_26 
REMARK   11  A    between atoms: C_26  and  O_27 
ROOT
HETATM    1  C   UNK N   1      27.808  19.330   5.140  0.00  0.00    -0.047 A 
HETATM    2  C   UNK N   1      28.611  18.180   5.140  0.00  0.00     0.019 A 
HETATM    3  C   UNK N   1      29.152  17.654   6.333  0.00  0.00    -0.008 A 
HETATM    4  C   UNK N   1      28.851  18.308   7.555  0.00  0.00     0.076 A 
HETATM    5  C   UNK N   1      28.055  19.462   7.547  0.00  0.00     0.044 A 
HETATM    6  C   UNK N   1      27.538  19.977   6.365  0.00  0.00    -0.053 A 
HETATM    7  C   UNK N   1      26.706  21.210   6.453  0.00  0.00     0.049 C 
ENDROOT
BRANCH   3   8
HETATM    8  C   UNK N   1      29.962  16.353   6.278  0.00  0.00     0.115 C 
HETATM    9  C   UNK N   1      29.663  15.268   5.242  0.00  0.00     0.167 C 
HETATM   10  C   UNK N   1      30.300  15.487   3.871  0.00  0.00     0.178 C 
HETATM   11  C   UNK N   1      31.400  16.556   3.858  0.00  0.00     0.165 C 
HETATM   12  C   UNK N   1      32.455  16.411   4.962  0.00  0.00     0.103 C 
HETATM   13  S   UNK N   1      31.755  16.360   6.668  0.00  0.00    -0.147 SA
BRANCH   9  14
HETATM   14  O   UNK N   1      28.308  14.954   5.136  0.00  0.00    -0.391 OA
HETATM   15  H   UNK N   1      27.896  14.865   4.263  0.00  0.00     0.210 HD
ENDBRANCH   9  14
BRANCH  10  16
HETATM   16  O   UNK N   1      30.783  14.263   3.400  0.00  0.00    -0.390 OA
HETATM   17  H   UNK N   1      31.286  14.186   2.575  0.00  0.00     0.210 HD
ENDBRANCH  10  16
BRANCH  11  18
HETATM   18  O   UNK N   1      32.013  16.578   2.601  0.00  0.00    -0.392 OA
HETATM   19  H   UNK N   1      32.487  15.981   2.001  0.00  0.00     0.210 HD
ENDBRANCH  11  18
BRANCH  12  20
HETATM   20  C   UNK N   1      33.416  17.590   4.869  0.00  0.00     0.181 C 
BRANCH  20  21
HETATM   21  O   UNK N   1      34.173  17.700   6.036  0.00  0.00    -0.400 OA
HETATM   22  H   UNK N   1      33.920  17.725   6.973  0.00  0.00     0.209 HD
ENDBRANCH  20  21
ENDBRANCH  12  20
ENDBRANCH   3   8
BRANCH   4  23
HETATM   23  O   UNK N   1      29.319  17.823   8.733  0.00  0.00    -0.355 OA
HETATM   24  C   UNK N   1      29.688  18.620   9.793  0.00  0.00     0.210 C 
ENDBRANCH   4  23
BRANCH   1  25
HETATM   25  C   UNK N   1      27.275  19.852   3.824  0.00  0.00     0.077 C 
BRANCH  25  26
HETATM   26  C   UNK N   1      25.805  19.603   3.665  0.00  0.00    -0.054 A 
HETATM   27  C   UNK N   1      25.207  18.451   4.191  0.00  0.00     0.010 A 
HETATM   28  C   UNK N   1      23.819  18.293   4.127  0.00  0.00     0.037 A 
HETATM   29  C   UNK N   1      23.018  19.293   3.561  0.00  0.00     0.068 A 
HETATM   30  C   UNK N   1      23.627  20.430   3.003  0.00  0.00     0.037 A 
HETATM   31  C   UNK N   1      25.014  20.576   3.047  0.00  0.00     0.010 A 
BRANCH  29  32
HETATM   32  O   UNK N   1      21.671  19.160   3.598  0.00  0.00    -0.352 OA
BRANCH  32  33
HETATM   33  C   UNK N   1      20.808  20.010   2.936  0.00  0.00     0.171 C 
HETATM   34  C   UNK N   1      19.496  19.294   2.649  0.00  0.00     0.034 C 
ENDBRANCH  32  33
ENDBRANCH  29  32
ENDBRANCH  25  26
ENDBRANCH   1  25
TORSDOF 11
ENDMDL
MODEL 2
REMARK VINA RESULT:      -7.3     10.939     13.358
REMARK  11 active torsions:
REMARK  status: ('A' for Active; 'I' for Inactive)
REMARK    1  A    between atoms: C_2  and  O_3 
REMARK    2  A    between atoms: O_3  and  C_4 
REMARK    3  A    between atoms: C_7  and  C_10 
REMARK    4  A    between atoms: C_10  and  C_11 
REMARK    5  A    between atoms: C_20  and  C_13 
REMARK    6  A    between atoms: C_14  and  O_18 
REMARK    7  A    between atoms: C_21  and  O_30 
REMARK    8  A    between atoms: C_22  and  O_29 
REMARK    9  A    between atoms: C_23  and  O_28 
REMARK   10  A    between atoms: C_24  and  C_26 
REMARK   11  A    between atoms: C_26  and  O_27 
ROOT
HETATM    1  C   UNK N   1      26.887  23.333  -6.597  0.00  0.00    -0.047 A 
HETATM    2  C   UNK N   1      28.167  23.047  -6.099  0.00  0.00     0.019 A 
HETATM    3  C   UNK N   1      29.243  22.733  -6.957  0.00  0.00    -0.008 A 
HETATM    4  C   UNK N   1      29.010  22.728  -8.356  0.00  0.00     0.076 A 
HETATM    5  C   UNK N   1      27.727  23.006  -8.846  0.00  0.00     0.044 A 
HETATM    6  C   UNK N   1      26.672  23.302  -7.992  0.00  0.00    -0.053 A 
HETATM    7  C   UNK N   1      25.342  23.580  -8.604  0.00  0.00     0.049 C 
ENDROOT
BRANCH   3   8
HETATM    8  C   UNK N   1      30.635  22.502  -6.357  0.00  0.00     0.115 C 
HETATM    9  C   UNK N   1      31.715  23.584  -6.402  0.00  0.00     0.167 C 
HETATM   10  C   UNK N   1      31.631  24.631  -5.293  0.00  0.00     0.178 C 
HETATM   11  C   UNK N   1      30.707  24.238  -4.132  0.00  0.00     0.165 C 
HETATM   12  C   UNK N   1      30.937  22.828  -3.573  0.00  0.00     0.103 C 
HETATM   13  S   UNK N   1      30.834  21.491  -4.839  0.00  0.00    -0.147 SA
BRANCH   9  14
HETATM   14  O   UNK N   1      31.864  24.174  -7.657  0.00  0.00    -0.391 OA
HETATM   15  H   UNK N   1      31.737  23.647  -8.461  0.00  0.00     0.210 HD
ENDBRANCH   9  14
BRANCH  10  16
HETATM   16  O   UNK N   1      32.923  24.904  -4.836  0.00  0.00    -0.390 OA
HETATM   17  H   UNK N   1      33.706  24.456  -5.192  0.00  0.00     0.210 HD
ENDBRANCH  10  16
BRANCH  11  18
HETATM   18  O   UNK N   1      30.811  25.188  -3.112  0.00  0.00    -0.392 OA
HETATM   19  H   UNK N   1      30.946  26.143  -3.004  0.00  0.00     0.210 HD
ENDBRANCH  11  18
BRANCH  12  20
HETATM   20  C   UNK N   1      29.890  22.559  -2.499  0.00  0.00     0.181 C 
BRANCH  20  21
HETATM   21  O   UNK N   1      30.292  23.099  -1.276  0.00  0.00    -0.400 OA
HETATM   22  H   UNK N   1      30.191  22.783  -0.364  0.00  0.00     0.209 HD
ENDBRANCH  20  21
ENDBRANCH  12  20
ENDBRANCH   3   8
BRANCH   4  23
HETATM   23  O   UNK N   1      30.020  22.467  -9.224  0.00  0.00    -0.355 OA
HETATM   24  C   UNK N   1      30.212  21.241  -9.822  0.00  0.00     0.210 C 
ENDBRANCH   4  23
BRANCH   1  25
HETATM   25  C   UNK N   1      25.773  23.643  -5.622  0.00  0.00     0.077 C 
BRANCH  25  26
HETATM   26  C   UNK N   1      25.857  25.040  -5.086  0.00  0.00    -0.054 A 
HETATM   27  C   UNK N   1      25.242  26.107  -5.752  0.00  0.00     0.010 A 
HETATM   28  C   UNK N   1      25.240  27.382  -5.177  0.00  0.00     0.037 A 
HETATM   29  C   UNK N   1      25.829  27.594  -3.924  0.00  0.00     0.068 A 
HETATM   30  C   UNK N   1      26.476  26.528  -3.278  0.00  0.00     0.037 A 
HETATM   31  C   UNK N   1      26.498  25.262  -3.863  0.00  0.00     0.010 A 
BRANCH  29  32
HETATM   32  O   UNK N   1      25.729  28.815  -3.345  0.00  0.00    -0.352 OA
BRANCH  32  33
HETATM   33  C   UNK N   1      26.811  29.648  -3.144  0.00  0.00     0.171 C 
HETATM   34  C   UNK N   1      26.648  30.916  -3.969  0.00  0.00     0.034 C 
ENDBRANCH  32  33
ENDBRANCH  29  32
ENDBRANCH  25  26
ENDBRANCH   1  25
TORSDOF 11
ENDMDL
MODEL 3
REMARK VINA RESULT:      -7.1      3.623      8.104
REMARK  11 active torsions:
REMARK  status: ('A' for Active; 'I' for Inactive)
REMARK    1  A    between atoms: C_2  and  O_3 
REMARK    2  A    between atoms: O_3  and  C_4 
REMARK    3  A    between atoms: C_7  and  C_10 
REMARK    4  A    between atoms: C_10  and  C_11 
REMARK    5  A    between atoms: C_20  and  C_13 
REMARK    6  A    between atoms: C_14  and  O_18 
REMARK    7  A    between atoms: C_21  and  O_30 
REMARK    8  A    between atoms: C_22  and  O_29 
REMARK    9  A    between atoms: C_23  and  O_28 
REMARK   10  A    between atoms: C_24  and  C_26 
REMARK   11  A    between atoms: C_26  and  O_27 
ROOT
HETATM    1  C   UNK N   1      25.319  18.771   3.753  0.00  0.00    -0.047 A 
HETATM    2  C   UNK N   1      24.228  18.013   4.206  0.00  0.00     0.019 A 
HETATM    3  C   UNK N   1      22.901  18.477   4.083  0.00  0.00    -0.008 A 
HETATM    4  C   UNK N   1      22.681  19.736   3.467  0.00  0.00     0.076 A 
HETATM    5  C   UNK N   1      23.775  20.492   3.025  0.00  0.00     0.044 A 
HETATM    6  C   UNK N   1      25.079  20.030   3.163  0.00  0.00    -0.053 A 
HETATM    7  C   UNK N   1      26.179  20.905   2.668  0.00  0.00     0.049 C 
ENDROOT
BRANCH   3   8
HETATM    8  C   UNK N   1      21.748  17.571   4.529  0.00  0.00     0.115 C 
HETATM    9  C   UNK N   1      21.041  16.633   3.549  0.00  0.00     0.167 C 
HETATM   10  C   UNK N   1      21.737  15.294   3.316  0.00  0.00     0.178 C 
HETATM   11  C   UNK N   1      22.825  14.968   4.348  0.00  0.00     0.165 C 
HETATM   12  C   UNK N   1      22.401  15.146   5.812  0.00  0.00     0.103 C 
HETATM   13  S   UNK N   1      21.749  16.826   6.206  0.00  0.00    -0.147 SA
BRANCH   9  14
HETATM   14  O   UNK N   1      20.686  17.245   2.347  0.00  0.00    -0.391 OA
HETATM   15  H   UNK N   1      20.686  16.735   1.522  0.00  0.00     0.210 HD
ENDBRANCH   9  14
BRANCH  10  16
HETATM   16  O   UNK N   1      20.769  14.287   3.272  0.00  0.00    -0.390 OA
HETATM   17  H   UNK N   1      20.881  13.439   3.728  0.00  0.00     0.210 HD
ENDBRANCH  10  16
BRANCH  11  18
HETATM   18  O   UNK N   1      23.297  13.669   4.133  0.00  0.00    -0.392 OA
HETATM   19  H   UNK N   1      23.569  12.890   4.643  0.00  0.00     0.210 HD
ENDBRANCH  11  18
BRANCH  12  20
HETATM   20  C   UNK N   1      23.609  14.875   6.700  0.00  0.00     0.181 C 
BRANCH  20  21
HETATM   21  O   UNK N   1      23.654  13.530   7.070  0.00  0.00    -0.400 OA
HETATM   22  H   UNK N   1      23.931  13.093   7.891  0.00  0.00     0.209 HD
ENDBRANCH  20  21
ENDBRANCH  12  20
ENDBRANCH   3   8
BRANCH   4  23
HETATM   23  O   UNK N   1      21.422  20.211   3.294  0.00  0.00    -0.355 OA
HETATM   24  C   UNK N   1      20.969  20.754   2.112  0.00  0.00     0.210 C 
ENDBRANCH   4  23
BRANCH   1  25
HETATM   25  C   UNK N   1      26.717  18.225   3.933  0.00  0.00     0.077 C 
BRANCH  25  26
HETATM   26  C   UNK N   1      27.146  18.215   5.369  0.00  0.00    -0.054 A 
HETATM   27  C   UNK N   1      27.337  17.011   6.057  0.00  0.00     0.010 A 
HETATM   28  C   UNK N   1      27.842  17.024   7.362  0.00  0.00     0.037 A 
HETATM   29  C   UNK N   1      28.183  18.235   7.976  0.00  0.00     0.068 A 
HETATM   30  C   UNK N   1      27.955  19.442   7.294  0.00  0.00     0.037 A 
HETATM   31  C   UNK N   1      27.430  19.429   6.002  0.00  0.00     0.010 A 
BRANCH  29  32
HETATM   32  O   UNK N   1      28.761  18.214   9.202  0.00  0.00    -0.352 OA
BRANCH  32  33
HETATM   33  C   UNK N   1      29.993  18.774   9.466  0.00  0.00     0.171 C 
HETATM   34  C   UNK N   1      31.077  18.019   8.711  0.00  0.00     0.034 C 
ENDBRANCH  32  33
ENDBRANCH  29  32
ENDBRANCH  25  26
ENDBRANCH   1  25
TORSDOF 11
ENDMDL
MODEL 4
REMARK VINA RESULT:      -6.9      3.145      8.950
REMARK  11 active torsions:
REMARK  status: ('A' for Active; 'I' for Inactive)
REMARK    1  A    between atoms: C_2  and  O_3 
REMARK    2  A    between atoms: O_3  and  C_4 
REMARK    3  A    between atoms: C_7  and  C_10 
REMARK    4  A    between atoms: C_10  and  C_11 
REMARK    5  A    between atoms: C_20  and  C_13 
REMARK    6  A    between atoms: C_14  and  O_18 
REMARK    7  A    between atoms: C_21  and  O_30 
REMARK    8  A    between atoms: C_22  and  O_29 
REMARK    9  A    between atoms: C_23  and  O_28 
REMARK   10  A    between atoms: C_24  and  C_26 
REMARK   11  A    between atoms: C_26  and  O_27 
ROOT
HETATM    1  C   UNK N   1      31.817  17.109   4.754  0.00  0.00    -0.047 A 
HETATM    2  C   UNK N   1      30.607  17.293   5.439  0.00  0.00     0.019 A 
HETATM    3  C   UNK N   1      29.418  16.653   5.028  0.00  0.00    -0.008 A 
HETATM    4  C   UNK N   1      29.471  15.790   3.903  0.00  0.00     0.076 A 
HETATM    5  C   UNK N   1      30.682  15.618   3.219  0.00  0.00     0.044 A 
HETATM    6  C   UNK N   1      31.843  16.263   3.625  0.00  0.00    -0.053 A 
HETATM    7  C   UNK N   1      33.082  16.023   2.832  0.00  0.00     0.049 C 
ENDROOT
BRANCH   3   8
HETATM    8  C   UNK N   1      28.143  16.836   5.861  0.00  0.00     0.115 C 
HETATM    9  C   UNK N   1      28.185  17.434   7.268  0.00  0.00     0.167 C 
HETATM   10  C   UNK N   1      28.201  18.960   7.324  0.00  0.00     0.178 C 
HETATM   11  C   UNK N   1      27.825  19.637   5.999  0.00  0.00     0.165 C 
HETATM   12  C   UNK N   1      26.547  19.101   5.340  0.00  0.00     0.103 C 
HETATM   13  S   UNK N   1      26.560  17.280   5.047  0.00  0.00    -0.147 SA
BRANCH   9  14
HETATM   14  O   UNK N   1      29.172  16.879   8.082  0.00  0.00    -0.391 OA
HETATM   15  H   UNK N   1      28.927  16.408   8.894  0.00  0.00     0.210 HD
ENDBRANCH   9  14
BRANCH  10  16
HETATM   16  O   UNK N   1      27.360  19.379   8.359  0.00  0.00    -0.390 OA
HETATM   17  H   UNK N   1      26.955  20.260   8.375  0.00  0.00     0.210 HD
ENDBRANCH  10  16
BRANCH  11  18
HETATM   18  O   UNK N   1      27.728  21.019   6.193  0.00  0.00    -0.392 OA
HETATM   19  H   UNK N   1      27.838  21.673   6.900  0.00  0.00     0.210 HD
ENDBRANCH  11  18
BRANCH  12  20
HETATM   20  C   UNK N   1      26.363  19.805   4.001  0.00  0.00     0.181 C 
BRANCH  20  21
HETATM   21  O   UNK N   1      27.600  20.068   3.411  0.00  0.00    -0.400 OA
HETATM   22  H   UNK N   1      28.330  20.654   3.669  0.00  0.00     0.209 HD
ENDBRANCH  20  21
ENDBRANCH  12  20
ENDBRANCH   3   8
BRANCH   4  23
HETATM   23  O   UNK N   1      28.364  15.124   3.490  0.00  0.00    -0.355 OA
HETATM   24  C   UNK N   1      28.047  14.921   2.165  0.00  0.00     0.210 C 
ENDBRANCH   4  23
BRANCH   1  25
HETATM   25  C   UNK N   1      33.050  17.841   5.235  0.00  0.00     0.077 C 
BRANCH  25  26
HETATM   26  C   UNK N   1      33.637  17.221   6.467  0.00  0.00    -0.054 A 
HETATM   27  C   UNK N   1      34.247  15.961   6.420  0.00  0.00     0.010 A 
HETATM   28  C   UNK N   1      34.884  15.451   7.557  0.00  0.00     0.037 A 
HETATM   29  C   UNK N   1      34.938  16.204   8.736  0.00  0.00     0.068 A 
HETATM   30  C   UNK N   1      34.293  17.451   8.787  0.00  0.00     0.037 A 
HETATM   31  C   UNK N   1      33.638  17.949   7.661  0.00  0.00     0.010 A 
BRANCH  29  32
HETATM   32  O   UNK N   1      35.643  15.729   9.791  0.00  0.00    -0.352 OA
BRANCH  32  33
HETATM   33  C   UNK N   1      35.615  16.310  11.042  0.00  0.00     0.171 C 
HETATM   34  C   UNK N   1      35.810  15.245  12.111  0.00  0.00     0.034 C 
ENDBRANCH  32  33
ENDBRANCH  29  32
ENDBRANCH  25  26
ENDBRANCH   1  25
TORSDOF 11
ENDMDL
MODEL 5
REMARK VINA RESULT:      -6.7     11.294     13.694
REMARK  11 active torsions:
REMARK  status: ('A' for Active; 'I' for Inactive)
REMARK    1  A    between atoms: C_2  and  O_3 
REMARK    2  A    between atoms: O_3  and  C_4 
REMARK    3  A    between atoms: C_7  and  C_10 
REMARK    4  A    between atoms: C_10  and  C_11 
REMARK    5  A    between atoms: C_20  and  C_13 
REMARK    6  A    between atoms: C_14  and  O_18 
REMARK    7  A    between atoms: C_21  and  O_30 
REMARK    8  A    between atoms: C_22  and  O_29 
REMARK    9  A    between atoms: C_23  and  O_28 
REMARK   10  A    between atoms: C_24  and  C_26 
REMARK   11  A    between atoms: C_26  and  O_27 
ROOT
HETATM    1  C   UNK N   1      30.079  22.423  -5.169  0.00  0.00    -0.047 A 
HETATM    2  C   UNK N   1      29.238  22.687  -6.260  0.00  0.00     0.019 A 
HETATM    3  C   UNK N   1      29.026  21.736  -7.281  0.00  0.00    -0.008 A 
HETATM    4  C   UNK N   1      29.675  20.478  -7.175  0.00  0.00     0.076 A 
HETATM    5  C   UNK N   1      30.520  20.224  -6.087  0.00  0.00     0.044 A 
HETATM    6  C   UNK N   1      30.730  21.173  -5.094  0.00  0.00    -0.053 A 
HETATM    7  C   UNK N   1      31.650  20.815  -3.978  0.00  0.00     0.049 C 
ENDROOT
BRANCH   3   8
HETATM    8  C   UNK N   1      28.039  22.056  -8.409  0.00  0.00     0.115 C 
HETATM    9  C   UNK N   1      26.592  21.562  -8.371  0.00  0.00     0.167 C 
HETATM   10  C   UNK N   1      25.632  22.427  -7.557  0.00  0.00     0.178 C 
HETATM   11  C   UNK N   1      26.187  23.814  -7.206  0.00  0.00     0.165 C 
HETATM   12  C   UNK N   1      26.792  24.585  -8.387  0.00  0.00     0.103 C 
HETATM   13  S   UNK N   1      28.119  23.668  -9.282  0.00  0.00    -0.147 SA
BRANCH   9  14
HETATM   14  O   UNK N   1      26.471  20.211  -8.044  0.00  0.00    -0.391 OA
HETATM   15  H   UNK N   1      25.593  19.809  -7.953  0.00  0.00     0.210 HD
ENDBRANCH   9  14
BRANCH  10  16
HETATM   16  O   UNK N   1      24.423  22.530  -8.251  0.00  0.00    -0.390 OA
HETATM   17  H   UNK N   1      23.713  21.877  -8.156  0.00  0.00     0.210 HD
ENDBRANCH  10  16
BRANCH  11  18
HETATM   18  O   UNK N   1      25.187  24.574  -6.591  0.00  0.00    -0.392 OA
HETATM   19  H   UNK N   1      24.735  25.425  -6.701  0.00  0.00     0.210 HD
ENDBRANCH  11  18
BRANCH  12  20
HETATM   20  C   UNK N   1      27.376  25.891  -7.862  0.00  0.00     0.181 C 
BRANCH  20  21
HETATM   21  O   UNK N   1      26.462  26.934  -8.016  0.00  0.00    -0.400 OA
HETATM   22  H   UNK N   1      26.273  27.525  -8.762  0.00  0.00     0.209 HD
ENDBRANCH  20  21
ENDBRANCH  12  20
ENDBRANCH   3   8
BRANCH   4  23
HETATM   23  O   UNK N   1      29.477  19.517  -8.112  0.00  0.00    -0.355 OA
HETATM   24  C   UNK N   1      29.317  18.182  -7.812  0.00  0.00     0.210 C 
ENDBRANCH   4  23
BRANCH   1  25
HETATM   25  C   UNK N   1      30.277  23.493  -4.119  0.00  0.00     0.077 C 
BRANCH  25  26
HETATM   26  C   UNK N   1      29.089  24.398  -3.996  0.00  0.00    -0.054 A 
HETATM   27  C   UNK N   1      27.865  23.920  -3.511  0.00  0.00     0.010 A 
HETATM   28  C   UNK N   1      26.802  24.806  -3.301  0.00  0.00     0.037 A 
HETATM   29  C   UNK N   1      26.963  26.174  -3.549  0.00  0.00     0.068 A 
HETATM   30  C   UNK N   1      28.181  26.643  -4.069  0.00  0.00     0.037 A 
HETATM   31  C   UNK N   1      29.233  25.755  -4.300  0.00  0.00     0.010 A 
BRANCH  29  32
HETATM   32  O   UNK N   1      25.951  27.023  -3.246  0.00  0.00    -0.352 OA
BRANCH  32  33
HETATM   33  C   UNK N   1      25.563  28.061  -4.068  0.00  0.00     0.171 C 
HETATM   34  C   UNK N   1      24.755  27.519  -5.238  0.00  0.00     0.034 C 
ENDBRANCH  32  33
ENDBRANCH  29  32
ENDBRANCH  25  26
ENDBRANCH   1  25
TORSDOF 11
ENDMDL
MODEL 6
REMARK VINA RESULT:      -6.7     10.342     13.253
REMARK  11 active torsions:
REMARK  status: ('A' for Active; 'I' for Inactive)
REMARK    1  A    between atoms: C_2  and  O_3 
REMARK    2  A    between atoms: O_3  and  C_4 
REMARK    3  A    between atoms: C_7  and  C_10 
REMARK    4  A    between atoms: C_10  and  C_11 
REMARK    5  A    between atoms: C_20  and  C_13 
REMARK    6  A    between atoms: C_14  and  O_18 
REMARK    7  A    between atoms: C_21  and  O_30 
REMARK    8  A    between atoms: C_22  and  O_29 
REMARK    9  A    between atoms: C_23  and  O_28 
REMARK   10  A    between atoms: C_24  and  C_26 
REMARK   11  A    between atoms: C_26  and  O_27 
ROOT
HETATM    1  C   UNK N   1      27.840  21.942  -7.298  0.00  0.00    -0.047 A 
HETATM    2  C   UNK N   1      28.495  22.713  -6.326  0.00  0.00     0.019 A 
HETATM    3  C   UNK N   1      27.797  23.631  -5.514  0.00  0.00    -0.008 A 
HETATM    4  C   UNK N   1      26.393  23.752  -5.685  0.00  0.00     0.076 A 
HETATM    5  C   UNK N   1      25.746  22.985  -6.664  0.00  0.00     0.044 A 
HETATM    6  C   UNK N   1      26.447  22.093  -7.467  0.00  0.00    -0.053 A 
HETATM    7  C   UNK N   1      25.675  21.325  -8.484  0.00  0.00     0.049 C 
ENDROOT
BRANCH   3   8
HETATM    8  C   UNK N   1      28.556  24.391  -4.419  0.00  0.00     0.115 C 
HETATM    9  C   UNK N   1      28.504  23.950  -2.956  0.00  0.00     0.167 C 
HETATM   10  C   UNK N   1      29.478  22.836  -2.578  0.00  0.00     0.178 C 
HETATM   11  C   UNK N   1      30.575  22.585  -3.623  0.00  0.00     0.165 C 
HETATM   12  C   UNK N   1      31.305  23.845  -4.107  0.00  0.00     0.103 C 
HETATM   13  S   UNK N   1      30.188  25.149  -4.779  0.00  0.00    -0.147 SA
BRANCH   9  14
HETATM   14  O   UNK N   1      27.214  23.683  -2.498  0.00  0.00    -0.391 OA
HETATM   15  H   UNK N   1      27.082  23.217  -1.657  0.00  0.00     0.210 HD
ENDBRANCH   9  14
BRANCH  10  16
HETATM   16  O   UNK N   1      30.031  23.128  -1.329  0.00  0.00    -0.390 OA
HETATM   17  H   UNK N   1      29.662  22.779  -0.503  0.00  0.00     0.210 HD
ENDBRANCH  10  16
BRANCH  11  18
HETATM   18  O   UNK N   1      31.491  21.655  -3.123  0.00  0.00    -0.392 OA
HETATM   19  H   UNK N   1      32.406  21.619  -2.804  0.00  0.00     0.210 HD
ENDBRANCH  11  18
BRANCH  12  20
HETATM   20  C   UNK N   1      32.290  23.442  -5.197  0.00  0.00     0.181 C 
BRANCH  20  21
HETATM   21  O   UNK N   1      33.551  23.981  -4.943  0.00  0.00    -0.400 OA
HETATM   22  H   UNK N   1      33.834  24.869  -4.672  0.00  0.00     0.209 HD
ENDBRANCH  20  21
ENDBRANCH  12  20
ENDBRANCH   3   8
BRANCH   4  23
HETATM   23  O   UNK N   1      25.671  24.595  -4.905  0.00  0.00    -0.355 OA
HETATM   24  C   UNK N   1      25.327  25.874  -5.281  0.00  0.00     0.210 C 
ENDBRANCH   4  23
BRANCH   1  25
HETATM   25  C   UNK N   1      28.650  20.991  -8.149  0.00  0.00     0.077 C 
BRANCH  25  26
HETATM   26  C   UNK N   1      30.023  20.758  -7.595  0.00  0.00    -0.054 A 
HETATM   27  C   UNK N   1      30.207  20.064  -6.391  0.00  0.00     0.010 A 
HETATM   28  C   UNK N   1      31.500  19.763  -5.949  0.00  0.00     0.037 A 
HETATM   29  C   UNK N   1      32.613  20.129  -6.716  0.00  0.00     0.068 A 
HETATM   30  C   UNK N   1      32.423  20.856  -7.903  0.00  0.00     0.037 A 
HETATM   31  C   UNK N   1      31.135  21.176  -8.332  0.00  0.00     0.010 A 
BRANCH  29  32
HETATM   32  O   UNK N   1      33.847  19.741  -6.314  0.00  0.00    -0.352 OA
BRANCH  32  33
HETATM   33  C   UNK N   1      34.134  19.348  -5.022  0.00  0.00     0.171 C 
HETATM   34  C   UNK N   1      34.699  20.524  -4.239  0.00  0.00     0.034 C 
ENDBRANCH  32  33
ENDBRANCH  29  32
ENDBRANCH  25  26
ENDBRANCH   1  25
TORSDOF 11
ENDMDL
MODEL 7
REMARK VINA RESULT:      -6.7      3.064      4.122
REMARK  11 active torsions:
REMARK  status: ('A' for Active; 'I' for Inactive)
REMARK    1  A    between atoms: C_2  and  O_3 
REMARK    2  A    between atoms: O_3  and  C_4 
REMARK    3  A    between atoms: C_7  and  C_10 
REMARK    4  A    between atoms: C_10  and  C_11 
REMARK    5  A    between atoms: C_20  and  C_13 
REMARK    6  A    between atoms: C_14  and  O_18 
REMARK    7  A    between atoms: C_21  and  O_30 
REMARK    8  A    between atoms: C_22  and  O_29 
REMARK    9  A    between atoms: C_23  and  O_28 
REMARK   10  A    between atoms: C_24  and  C_26 
REMARK   11  A    between atoms: C_26  and  O_27 
ROOT
HETATM    1  C   UNK N   1      26.659  19.569   4.869  0.00  0.00    -0.047 A 
HETATM    2  C   UNK N   1      26.733  18.170   4.792  0.00  0.00     0.019 A 
HETATM    3  C   UNK N   1      27.354  17.404   5.801  0.00  0.00    -0.008 A 
HETATM    4  C   UNK N   1      27.896  18.080   6.924  0.00  0.00     0.076 A 
HETATM    5  C   UNK N   1      27.827  19.478   6.991  0.00  0.00     0.044 A 
HETATM    6  C   UNK N   1      27.224  20.223   5.985  0.00  0.00    -0.053 A 
HETATM    7  C   UNK N   1      27.202  21.705   6.140  0.00  0.00     0.049 C 
ENDROOT
BRANCH   3   8
HETATM    8  C   UNK N   1      27.337  15.874   5.696  0.00  0.00     0.115 C 
HETATM    9  C   UNK N   1      26.278  15.034   6.411  0.00  0.00     0.167 C 
HETATM   10  C   UNK N   1      24.949  14.899   5.672  0.00  0.00     0.178 C 
HETATM   11  C   UNK N   1      25.008  15.326   4.199  0.00  0.00     0.165 C 
HETATM   12  C   UNK N   1      26.172  14.727   3.399  0.00  0.00     0.103 C 
HETATM   13  S   UNK N   1      27.832  15.047   4.135  0.00  0.00    -0.147 SA
BRANCH   9  14
HETATM   14  O   UNK N   1      26.091  15.390   7.747  0.00  0.00    -0.391 OA
HETATM   15  H   UNK N   1      25.194  15.489   8.103  0.00  0.00     0.210 HD
ENDBRANCH   9  14
BRANCH  10  16
HETATM   16  O   UNK N   1      24.499  13.581   5.795  0.00  0.00    -0.390 OA
HETATM   17  H   UNK N   1      23.736  13.244   5.300  0.00  0.00     0.210 HD
ENDBRANCH  10  16
BRANCH  11  18
HETATM   18  O   UNK N   1      23.789  15.031   3.579  0.00  0.00    -0.392 OA
HETATM   19  H   UNK N   1      23.149  15.442   2.978  0.00  0.00     0.210 HD
ENDBRANCH  11  18
BRANCH  12  20
HETATM   20  C   UNK N   1      26.143  15.315   1.994  0.00  0.00     0.181 C 
BRANCH  20  21
HETATM   21  O   UNK N   1      25.122  14.736   1.240  0.00  0.00    -0.400 OA
HETATM   22  H   UNK N   1      24.601  15.068   0.492  0.00  0.00     0.209 HD
ENDBRANCH  20  21
ENDBRANCH  12  20
ENDBRANCH   3   8
BRANCH   4  23
HETATM   23  O   UNK N   1      28.472  17.387   7.938  0.00  0.00    -0.355 OA
HETATM   24  C   UNK N   1      28.295  17.694   9.269  0.00  0.00     0.210 C 
ENDBRANCH   4  23
BRANCH   1  25
HETATM   25  C   UNK N   1      25.997  20.332   3.744  0.00  0.00     0.077 C 
BRANCH  25  26
HETATM   26  C   UNK N   1      24.553  19.967   3.579  0.00  0.00    -0.054 A 
HETATM   27  C   UNK N   1      23.988  18.912   4.308  0.00  0.00     0.010 A 
HETATM   28  C   UNK N   1      22.615  18.660   4.220  0.00  0.00     0.037 A 
HETATM   29  C   UNK N   1      21.795  19.471   3.426  0.00  0.00     0.068 A 
HETATM   30  C   UNK N   1      22.374  20.505   2.670  0.00  0.00     0.037 A 
HETATM   31  C   UNK N   1      23.746  20.741   2.740  0.00  0.00     0.010 A 
BRANCH  29  32
HETATM   32  O   UNK N   1      20.456  19.266   3.435  0.00  0.00    -0.352 OA
BRANCH  32  33
HETATM   33  C   UNK N   1      19.875  18.053   3.127  0.00  0.00     0.171 C 
HETATM   34  C   UNK N   1      20.114  17.723   1.661  0.00  0.00     0.034 C 
ENDBRANCH  32  33
ENDBRANCH  29  32
ENDBRANCH  25  26
ENDBRANCH   1  25
TORSDOF 11
ENDMDL
MODEL 8
REMARK VINA RESULT:      -6.6      5.719     10.459
REMARK  11 active torsions:
REMARK  status: ('A' for Active; 'I' for Inactive)
REMARK    1  A    between atoms: C_2  and  O_3 
REMARK    2  A    between atoms: O_3  and  C_4 
REMARK    3  A    between atoms: C_7  and  C_10 
REMARK    4  A    between atoms: C_10  and  C_11 
REMARK    5  A    between atoms: C_20  and  C_13 
REMARK    6  A    between atoms: C_14  and  O_18 
REMARK    7  A    between atoms: C_21  and  O_30 
REMARK    8  A    between atoms: C_22  and  O_29 
REMARK    9  A    between atoms: C_23  and  O_28 
REMARK   10  A    between atoms: C_24  and  C_26 
REMARK   11  A    between atoms: C_26  and  O_27 
ROOT
HETATM    1  C   UNK N   1      35.091  14.326   5.355  0.00  0.00    -0.047 A 
HETATM    2  C   UNK N   1      34.575  15.343   6.172  0.00  0.00     0.019 A 
HETATM    3  C   UNK N   1      33.679  16.312   5.672  0.00  0.00    -0.008 A 
HETATM    4  C   UNK N   1      33.287  16.230   4.311  0.00  0.00     0.076 A 
HETATM    5  C   UNK N   1      33.813  15.217   3.498  0.00  0.00     0.044 A 
HETATM    6  C   UNK N   1      34.704  14.275   3.998  0.00  0.00    -0.053 A 
HETATM    7  C   UNK N   1      35.213  13.237   3.058  0.00  0.00     0.049 C 
ENDROOT
BRANCH   3   8
HETATM    8  C   UNK N   1      33.093  17.355   6.632  0.00  0.00     0.115 C 
HETATM    9  C   UNK N   1      31.681  17.214   7.201  0.00  0.00     0.167 C 
HETATM   10  C   UNK N   1      31.562  16.312   8.428  0.00  0.00     0.178 C 
HETATM   11  C   UNK N   1      32.907  15.979   9.089  0.00  0.00     0.165 C 
HETATM   12  C   UNK N   1      33.814  17.188   9.353  0.00  0.00     0.103 C 
HETATM   13  S   UNK N   1      34.171  18.200   7.853  0.00  0.00    -0.147 SA
BRANCH   9  14
HETATM   14  O   UNK N   1      30.719  16.904   6.240  0.00  0.00    -0.391 OA
HETATM   15  H   UNK N   1      29.841  17.315   6.279  0.00  0.00     0.210 HD
ENDBRANCH   9  14
BRANCH  10  16
HETATM   16  O   UNK N   1      30.688  16.907   9.340  0.00  0.00    -0.390 OA
HETATM   17  H   UNK N   1      30.861  17.776   9.736  0.00  0.00     0.210 HD
ENDBRANCH  10  16
BRANCH  11  18
HETATM   18  O   UNK N   1      32.680  15.273  10.276  0.00  0.00    -0.392 OA
HETATM   19  H   UNK N   1      32.891  15.333  11.221  0.00  0.00     0.210 HD
ENDBRANCH  11  18
BRANCH  12  20
HETATM   20  C   UNK N   1      35.134  16.684   9.923  0.00  0.00     0.181 C 
BRANCH  20  21
HETATM   21  O   UNK N   1      35.149  16.812  11.313  0.00  0.00    -0.400 OA
HETATM   22  H   UNK N   1      34.474  16.635  11.987  0.00  0.00     0.209 HD
ENDBRANCH  20  21
ENDBRANCH  12  20
ENDBRANCH   3   8
BRANCH   4  23
HETATM   23  O   UNK N   1      32.401  17.117   3.792  0.00  0.00    -0.355 OA
HETATM   24  C   UNK N   1      31.527  16.812   2.773  0.00  0.00     0.210 C 
ENDBRANCH   4  23
BRANCH   1  25
HETATM   25  C   UNK N   1      36.062  13.330   5.948  0.00  0.00     0.077 C 
BRANCH  25  26
HETATM   26  C   UNK N   1      35.970  13.265   7.442  0.00  0.00    -0.054 A 
HETATM   27  C   UNK N   1      34.884  12.644   8.072  0.00  0.00     0.010 A 
HETATM   28  C   UNK N   1      34.874  12.498   9.464  0.00  0.00     0.037 A 
HETATM   29  C   UNK N   1      35.956  12.947  10.230  0.00  0.00     0.068 A 
HETATM   30  C   UNK N   1      37.026  13.601   9.596  0.00  0.00     0.037 A 
HETATM   31  C   UNK N   1      37.025  13.767   8.211  0.00  0.00     0.010 A 
BRANCH  29  32
HETATM   32  O   UNK N   1      35.965  12.707  11.564  0.00  0.00    -0.352 OA
BRANCH  32  33
HETATM   33  C   UNK N   1      35.312  13.506  12.480  0.00  0.00     0.171 C 
HETATM   34  C   UNK N   1      36.326  14.172  13.400  0.00  0.00     0.034 C 
ENDBRANCH  32  33
ENDBRANCH  29  32
ENDBRANCH  25  26
ENDBRANCH   1  25
TORSDOF 11
ENDMDL
MODEL 9
REMARK VINA RESULT:      -6.5      3.959      8.862
REMARK  11 active torsions:
REMARK  status: ('A' for Active; 'I' for Inactive)
REMARK    1  A    between atoms: C_2  and  O_3 
REMARK    2  A    between atoms: O_3  and  C_4 
REMARK    3  A    between atoms: C_7  and  C_10 
REMARK    4  A    between atoms: C_10  and  C_11 
REMARK    5  A    between atoms: C_20  and  C_13 
REMARK    6  A    between atoms: C_14  and  O_18 
REMARK    7  A    between atoms: C_21  and  O_30 
REMARK    8  A    between atoms: C_22  and  O_29 
REMARK    9  A    between atoms: C_23  and  O_28 
REMARK   10  A    between atoms: C_24  and  C_26 
REMARK   11  A    between atoms: C_26  and  O_27 
ROOT
HETATM    1  C   UNK N   1      25.510  16.585   3.259  0.00  0.00    -0.047 A 
HETATM    2  C   UNK N   1      24.269  16.704   3.902  0.00  0.00     0.019 A 
HETATM    3  C   UNK N   1      23.340  15.641   3.923  0.00  0.00    -0.008 A 
HETATM    4  C   UNK N   1      23.695  14.423   3.288  0.00  0.00     0.076 A 
HETATM    5  C   UNK N   1      24.933  14.314   2.641  0.00  0.00     0.044 A 
HETATM    6  C   UNK N   1      25.835  15.371   2.616  0.00  0.00    -0.053 A 
HETATM    7  C   UNK N   1      27.125  15.164   1.899  0.00  0.00     0.049 C 
ENDROOT
BRANCH   3   8
HETATM    8  C   UNK N   1      22.031  15.807   4.704  0.00  0.00     0.115 C 
HETATM    9  C   UNK N   1      21.969  16.617   5.999  0.00  0.00     0.167 C 
HETATM   10  C   UNK N   1      21.816  18.125   5.814  0.00  0.00     0.178 C 
HETATM   11  C   UNK N   1      21.403  18.541   4.395  0.00  0.00     0.165 C 
HETATM   12  C   UNK N   1      20.211  17.769   3.817  0.00  0.00     0.103 C 
HETATM   13  S   UNK N   1      20.431  15.938   3.815  0.00  0.00    -0.147 SA
BRANCH   9  14
HETATM   14  O   UNK N   1      22.989  16.310   6.900  0.00  0.00    -0.391 OA
HETATM   15  H   UNK N   1      23.517  15.506   6.783  0.00  0.00     0.210 HD
ENDBRANCH   9  14
BRANCH  10  16
HETATM   16  O   UNK N   1      20.906  18.603   6.762  0.00  0.00    -0.390 OA
HETATM   17  H   UNK N   1      21.046  19.433   7.244  0.00  0.00     0.210 HD
ENDBRANCH  10  16
BRANCH  11  18
HETATM   18  O   UNK N   1      21.151  19.917   4.368  0.00  0.00    -0.392 OA
HETATM   19  H   UNK N   1      20.695  20.572   3.816  0.00  0.00     0.210 HD
ENDBRANCH  11  18
BRANCH  12  20
HETATM   20  C   UNK N   1      19.987  18.231   2.383  0.00  0.00     0.181 C 
BRANCH  20  21
HETATM   21  O   UNK N   1      18.642  18.537   2.170  0.00  0.00    -0.400 OA
HETATM   22  H   UNK N   1      18.033  18.311   1.449  0.00  0.00     0.209 HD
ENDBRANCH  20  21
ENDBRANCH  12  20
ENDBRANCH   3   8
BRANCH   4  23
HETATM   23  O   UNK N   1      22.852  13.360   3.310  0.00  0.00    -0.355 OA
HETATM   24  C   UNK N   1      22.310  12.794   2.178  0.00  0.00     0.210 C 
ENDBRANCH   4  23
BRANCH   1  25
HETATM   25  C   UNK N   1      26.452  17.768   3.257  0.00  0.00     0.077 C 
BRANCH  25  26
HETATM   26  C   UNK N   1      27.014  18.052   4.617  0.00  0.00    -0.054 A 
HETATM   27  C   UNK N   1      27.149  19.366   5.083  0.00  0.00     0.010 A 
HETATM   28  C   UNK N   1      27.573  19.602   6.395  0.00  0.00     0.037 A 
HETATM   29  C   UNK N   1      27.841  18.531   7.255  0.00  0.00     0.068 A 
HETATM   30  C   UNK N   1      27.739  17.216   6.771  0.00  0.00     0.037 A 
HETATM   31  C   UNK N   1      27.338  16.981   5.456  0.00  0.00     0.010 A 
BRANCH  29  32
HETATM   32  O   UNK N   1      28.156  18.786   8.548  0.00  0.00    -0.352 OA
BRANCH  32  33
HETATM   33  C   UNK N   1      29.052  18.026   9.272  0.00  0.00     0.171 C 
HETATM   34  C   UNK N   1      30.475  18.462   8.954  0.00  0.00     0.034 C 
ENDBRANCH  32  33
ENDBRANCH  29  32
ENDBRANCH  25  26
ENDBRANCH   1  25
TORSDOF 11
ENDMDL
