MODEL 1
REMARK VINA RESULT:      -4.9      0.000      0.000
REMARK  10 active torsions:
REMARK  status: ('A' for Active; 'I' for Inactive)
REMARK    1  A    between atoms: C_2  and  N_5 
REMARK    2  A    between atoms: N_5  and  C_6 
REMARK    3  A    between atoms: C_6  and  C_7 
REMARK    4  A    between atoms: C_7  and  S_8 
REMARK    5  A    between atoms: S_8  and  C_9 
REMARK    6  A    between atoms: C_9  and  C_10 
REMARK    7  A    between atoms: C_10  and  C_11 
REMARK    8  A    between atoms: C_11  and  C_12 
REMARK    9  A    between atoms: C_11  and  N_15 
REMARK   10  A    between atoms: C_12  and  O_14 
ROOT
HETATM    1  S   UNK N   1      34.529  13.548  10.073  0.00  0.00    -0.167 SA
ENDROOT
BRANCH   1   2
HETATM    2  C   UNK N   1      34.987  13.795  11.822  0.00  0.00     0.093 C 
BRANCH   2   3
HETATM    3  C   UNK N   1      36.488  13.954  12.014  0.00  0.00     0.131 C 
BRANCH   3   4
HETATM    4  N   UNK N   1      36.913  13.347  13.249  0.00  0.00    -0.380 N 
HETATM    5  H   UNK N   1      37.420  12.503  13.223  0.00  0.00     0.160 HD
BRANCH   4   6
HETATM    6  C   UNK N   1      36.617  13.942  14.502  0.00  0.00     0.066 C 
HETATM    7  C   UNK N   1      35.715  13.264  15.482  0.00  0.00     0.088 C 
HETATM    8  N   UNK N   1      37.132  15.075  14.801  0.00  0.00    -0.389 N 
HETATM    9  H   UNK N   1      37.809  15.277  15.486  0.00  0.00     0.157 HD
ATOM     10  HN  UNK N   1      36.797  15.872  14.258  1.00  0.00     0.157 HD
ENDBRANCH   4   6
ENDBRANCH   3   4
ENDBRANCH   2   3
ENDBRANCH   1   2
BRANCH   1  11
HETATM   11  C   UNK N   1      35.547  14.955   9.546  0.00  0.00     0.076 C 
BRANCH  11  12
HETATM   12  C   UNK N   1      34.737  15.775   8.558  0.00  0.00     0.045 C 
BRANCH  12  13
HETATM   13  C   UNK N   1      34.351  17.127   9.130  0.00  0.00     0.174 C 
BRANCH  13  14
HETATM   14  C   UNK N   1      34.722  18.232   8.175  0.00  0.00     0.163 C 
HETATM   15  O   UNK N   1      34.454  18.141   6.986  0.00  0.00    -0.648 OA
BRANCH  14  16
HETATM   16  O   UNK N   1      35.363  19.324   8.629  0.00  0.00    -0.775 OA
HETATM   17  H   UNK N   1      34.911  20.097   8.905  0.00  0.00     0.167 HD
ENDBRANCH  14  16
ENDBRANCH  13  14
BRANCH  13  18
HETATM   18  N   UNK N   1      35.027  17.298  10.405  0.00  0.00    -0.418 N 
HETATM   19  H   UNK N   1      36.016  17.083  10.534  0.00  0.00     0.150 HD
HETATM   20  H   UNK N   1      34.494  17.646  11.202  0.00  0.00     0.150 HD
ENDBRANCH  13  18
ENDBRANCH  12  13
ENDBRANCH  11  12
ENDBRANCH   1  11
TORSDOF 10
ENDMDL
MODEL 2
REMARK VINA RESULT:      -4.7      1.540      2.556
REMARK  10 active torsions:
REMARK  status: ('A' for Active; 'I' for Inactive)
REMARK    1  A    between atoms: C_2  and  N_5 
REMARK    2  A    between atoms: N_5  and  C_6 
REMARK    3  A    between atoms: C_6  and  C_7 
REMARK    4  A    between atoms: C_7  and  S_8 
REMARK    5  A    between atoms: S_8  and  C_9 
REMARK    6  A    between atoms: C_9  and  C_10 
REMARK    7  A    between atoms: C_10  and  C_11 
REMARK    8  A    between atoms: C_11  and  C_12 
REMARK    9  A    between atoms: C_11  and  N_15 
REMARK   10  A    between atoms: C_12  and  O_14 
ROOT
HETATM    1  S   UNK N   1      34.465  13.627  10.056  0.00  0.00    -0.167 SA
ENDROOT
BRANCH   1   2
HETATM    2  C   UNK N   1      35.156  13.982  11.707  0.00  0.00     0.093 C 
BRANCH   2   3
HETATM    3  C   UNK N   1      36.089  12.884  12.197  0.00  0.00     0.131 C 
BRANCH   3   4
HETATM    4  N   UNK N   1      37.466  13.269  12.028  0.00  0.00    -0.380 N 
HETATM    5  H   UNK N   1      37.936  13.721  12.766  0.00  0.00     0.160 HD
BRANCH   4   6
HETATM    6  C   UNK N   1      38.160  13.009  10.818  0.00  0.00     0.066 C 
HETATM    7  C   UNK N   1      38.230  11.628  10.252  0.00  0.00     0.088 C 
HETATM    8  N   UNK N   1      38.732  13.972  10.198  0.00  0.00    -0.389 N 
HETATM    9  H   UNK N   1      38.490  14.370   9.331  0.00  0.00     0.157 HD
ATOM     10  HN  UNK N   1      39.543  14.381  10.664  1.00  0.00     0.157 HD
ENDBRANCH   4   6
ENDBRANCH   3   4
ENDBRANCH   2   3
ENDBRANCH   1   2
BRANCH   1  11
HETATM   11  C   UNK N   1      35.386  15.002   9.310  0.00  0.00     0.076 C 
BRANCH  11  12
HETATM   12  C   UNK N   1      34.407  15.842   8.510  0.00  0.00     0.045 C 
BRANCH  12  13
HETATM   13  C   UNK N   1      34.226  17.223   9.112  0.00  0.00     0.174 C 
BRANCH  13  14
HETATM   14  C   UNK N   1      34.671  18.286   8.143  0.00  0.00     0.163 C 
HETATM   15  O   UNK N   1      35.288  19.266   8.536  0.00  0.00    -0.648 OA
BRANCH  14  16
HETATM   16  O   UNK N   1      34.381  18.166   6.835  0.00  0.00    -0.775 OA
HETATM   17  H   UNK N   1      33.750  18.710   6.405  0.00  0.00     0.167 HD
ENDBRANCH  14  16
ENDBRANCH  13  14
BRANCH  13  18
HETATM   18  N   UNK N   1      34.994  17.293  10.344  0.00  0.00    -0.418 N 
HETATM   19  H   UNK N   1      34.624  17.716  11.196  0.00  0.00     0.150 HD
HETATM   20  H   UNK N   1      35.937  16.904  10.359  0.00  0.00     0.150 HD
ENDBRANCH  13  18
ENDBRANCH  12  13
ENDBRANCH  11  12
ENDBRANCH   1  11
TORSDOF 10
ENDMDL
MODEL 3
REMARK VINA RESULT:      -4.7      5.648      8.722
REMARK  10 active torsions:
REMARK  status: ('A' for Active; 'I' for Inactive)
REMARK    1  A    between atoms: C_2  and  N_5 
REMARK    2  A    between atoms: N_5  and  C_6 
REMARK    3  A    between atoms: C_6  and  C_7 
REMARK    4  A    between atoms: C_7  and  S_8 
REMARK    5  A    between atoms: S_8  and  C_9 
REMARK    6  A    between atoms: C_9  and  C_10 
REMARK    7  A    between atoms: C_10  and  C_11 
REMARK    8  A    between atoms: C_11  and  C_12 
REMARK    9  A    between atoms: C_11  and  N_15 
REMARK   10  A    between atoms: C_12  and  O_14 
ROOT
HETATM    1  S   UNK N   1      30.069  16.418   6.379  0.00  0.00    -0.167 SA
ENDROOT
BRANCH   1   2
HETATM    2  C   UNK N   1      29.072  17.874   5.917  0.00  0.00     0.093 C 
BRANCH   2   3
HETATM    3  C   UNK N   1      27.848  18.048   6.803  0.00  0.00     0.131 C 
BRANCH   3   4
HETATM    4  N   UNK N   1      27.889  19.312   7.492  0.00  0.00    -0.380 N 
HETATM    5  H   UNK N   1      28.496  19.425   8.258  0.00  0.00     0.160 HD
BRANCH   4   6
HETATM    6  C   UNK N   1      27.072  20.399   7.086  0.00  0.00     0.066 C 
HETATM    7  C   UNK N   1      27.307  21.095   5.784  0.00  0.00     0.088 C 
HETATM    8  N   UNK N   1      26.117  20.788   7.844  0.00  0.00    -0.389 N 
HETATM    9  H   UNK N   1      25.146  20.717   7.690  0.00  0.00     0.157 HD
ATOM     10  HN  UNK N   1      26.396  21.227   8.721  1.00  0.00     0.157 HD
ENDBRANCH   4   6
ENDBRANCH   3   4
ENDBRANCH   2   3
ENDBRANCH   1   2
BRANCH   1  11
HETATM   11  C   UNK N   1      30.986  17.366   7.626  0.00  0.00     0.076 C 
BRANCH  11  12
HETATM   12  C   UNK N   1      32.349  16.722   7.796  0.00  0.00     0.045 C 
BRANCH  12  13
HETATM   13  C   UNK N   1      33.255  17.545   8.692  0.00  0.00     0.174 C 
BRANCH  13  14
HETATM   14  C   UNK N   1      34.298  18.262   7.876  0.00  0.00     0.163 C 
HETATM   15  O   UNK N   1      35.025  19.098   8.394  0.00  0.00    -0.648 OA
BRANCH  14  16
HETATM   16  O   UNK N   1      34.428  17.992   6.565  0.00  0.00    -0.775 OA
HETATM   17  H   UNK N   1      34.530  18.662   5.918  0.00  0.00     0.167 HD
ENDBRANCH  14  16
ENDBRANCH  13  14
BRANCH  13  18
HETATM   18  N   UNK N   1      33.877  16.657   9.660  0.00  0.00    -0.418 N 
HETATM   19  H   UNK N   1      34.375  15.810   9.385  0.00  0.00     0.150 HD
HETATM   20  H   UNK N   1      33.814  16.888  10.652  0.00  0.00     0.150 HD
ENDBRANCH  13  18
ENDBRANCH  12  13
ENDBRANCH  11  12
ENDBRANCH   1  11
TORSDOF 10
ENDMDL
MODEL 4
REMARK VINA RESULT:      -4.4      1.615      1.997
REMARK  10 active torsions:
REMARK  status: ('A' for Active; 'I' for Inactive)
REMARK    1  A    between atoms: C_2  and  N_5 
REMARK    2  A    between atoms: N_5  and  C_6 
REMARK    3  A    between atoms: C_6  and  C_7 
REMARK    4  A    between atoms: C_7  and  S_8 
REMARK    5  A    between atoms: S_8  and  C_9 
REMARK    6  A    between atoms: C_9  and  C_10 
REMARK    7  A    between atoms: C_10  and  C_11 
REMARK    8  A    between atoms: C_11  and  C_12 
REMARK    9  A    between atoms: C_11  and  N_15 
REMARK   10  A    between atoms: C_12  and  O_14 
ROOT
HETATM    1  S   UNK N   1      35.124  13.409   8.012  0.00  0.00    -0.167 SA
ENDROOT
BRANCH   1   2
HETATM    2  C   UNK N   1      34.070  13.016   9.449  0.00  0.00     0.093 C 
BRANCH   2   3
HETATM    3  C   UNK N   1      34.831  12.294  10.551  0.00  0.00     0.131 C 
BRANCH   3   4
HETATM    4  N   UNK N   1      34.915  13.109  11.734  0.00  0.00    -0.380 N 
HETATM    5  H   UNK N   1      34.137  13.174  12.333  0.00  0.00     0.160 HD
BRANCH   4   6
HETATM    6  C   UNK N   1      36.099  13.822  12.055  0.00  0.00     0.066 C 
HETATM    7  C   UNK N   1      36.094  14.897  13.093  0.00  0.00     0.088 C 
HETATM    8  N   UNK N   1      37.191  13.538  11.448  0.00  0.00    -0.389 N 
HETATM    9  H   UNK N   1      38.002  13.118  11.815  0.00  0.00     0.157 HD
ATOM     10  HN  UNK N   1      37.224  13.779  10.457  1.00  0.00     0.157 HD
ENDBRANCH   4   6
ENDBRANCH   3   4
ENDBRANCH   2   3
ENDBRANCH   1   2
BRANCH   1  11
HETATM   11  C   UNK N   1      35.347  15.122   8.570  0.00  0.00     0.076 C 
BRANCH  11  12
HETATM   12  C   UNK N   1      34.017  15.838   8.430  0.00  0.00     0.045 C 
BRANCH  12  13
HETATM   13  C   UNK N   1      34.047  17.215   9.067  0.00  0.00     0.174 C 
BRANCH  13  14
HETATM   14  C   UNK N   1      34.619  18.229   8.112  0.00  0.00     0.163 C 
HETATM   15  O   UNK N   1      34.454  18.109   6.906  0.00  0.00    -0.648 OA
BRANCH  14  16
HETATM   16  O   UNK N   1      35.327  19.271   8.583  0.00  0.00    -0.775 OA
HETATM   17  H   UNK N   1      35.024  20.156   8.525  0.00  0.00     0.167 HD
ENDBRANCH  14  16
ENDBRANCH  13  14
BRANCH  13  18
HETATM   18  N   UNK N   1      34.844  17.143  10.281  0.00  0.00    -0.418 N 
HETATM   19  H   UNK N   1      35.863  17.203  10.272  0.00  0.00     0.150 HD
HETATM   20  H   UNK N   1      34.368  17.029  11.176  0.00  0.00     0.150 HD
ENDBRANCH  13  18
ENDBRANCH  12  13
ENDBRANCH  11  12
ENDBRANCH   1  11
TORSDOF 10
ENDMDL
MODEL 5
REMARK VINA RESULT:      -4.4     13.248     15.262
REMARK  10 active torsions:
REMARK  status: ('A' for Active; 'I' for Inactive)
REMARK    1  A    between atoms: C_2  and  N_5 
REMARK    2  A    between atoms: N_5  and  C_6 
REMARK    3  A    between atoms: C_6  and  C_7 
REMARK    4  A    between atoms: C_7  and  S_8 
REMARK    5  A    between atoms: S_8  and  C_9 
REMARK    6  A    between atoms: C_9  and  C_10 
REMARK    7  A    between atoms: C_10  and  C_11 
REMARK    8  A    between atoms: C_11  and  C_12 
REMARK    9  A    between atoms: C_11  and  N_15 
REMARK   10  A    between atoms: C_12  and  O_14 
ROOT
HETATM    1  S   UNK N   1      22.712  18.021   5.198  0.00  0.00    -0.167 SA
ENDROOT
BRANCH   1   2
HETATM    2  C   UNK N   1      23.868  16.942   4.287  0.00  0.00     0.093 C 
BRANCH   2   3
HETATM    3  C   UNK N   1      25.209  17.611   4.028  0.00  0.00     0.131 C 
BRANCH   3   4
HETATM    4  N   UNK N   1      25.728  18.202   5.234  0.00  0.00    -0.380 N 
HETATM    5  H   UNK N   1      25.725  17.679   6.068  0.00  0.00     0.160 HD
BRANCH   4   6
HETATM    6  C   UNK N   1      26.245  19.523   5.243  0.00  0.00     0.066 C 
HETATM    7  C   UNK N   1      26.974  20.073   4.059  0.00  0.00     0.088 C 
HETATM    8  N   UNK N   1      26.083  20.258   6.279  0.00  0.00    -0.389 N 
HETATM    9  H   UNK N   1      25.526  21.064   6.375  0.00  0.00     0.157 HD
ATOM     10  HN  UNK N   1      26.596  19.970   7.112  1.00  0.00     0.157 HD
ENDBRANCH   4   6
ENDBRANCH   3   4
ENDBRANCH   2   3
ENDBRANCH   1   2
BRANCH   1  11
HETATM   11  C   UNK N   1      22.500  19.108   3.761  0.00  0.00     0.076 C 
BRANCH  11  12
HETATM   12  C   UNK N   1      21.024  19.436   3.634  0.00  0.00     0.045 C 
BRANCH  12  13
HETATM   13  C   UNK N   1      20.485  19.090   2.259  0.00  0.00     0.174 C 
BRANCH  13  14
HETATM   14  C   UNK N   1      20.718  20.226   1.297  0.00  0.00     0.163 C 
HETATM   15  O   UNK N   1      20.917  21.359   1.710  0.00  0.00    -0.648 OA
BRANCH  14  16
HETATM   16  O   UNK N   1      20.697  19.997  -0.029  0.00  0.00    -0.775 OA
HETATM   17  H   UNK N   1      20.187  19.314  -0.416  0.00  0.00     0.167 HD
ENDBRANCH  14  16
ENDBRANCH  13  14
BRANCH  13  18
HETATM   18  N   UNK N   1      19.066  18.800   2.380  0.00  0.00    -0.418 N 
HETATM   19  H   UNK N   1      18.346  19.498   2.194  0.00  0.00     0.150 HD
HETATM   20  H   UNK N   1      18.778  17.862   2.661  0.00  0.00     0.150 HD
ENDBRANCH  13  18
ENDBRANCH  12  13
ENDBRANCH  11  12
ENDBRANCH   1  11
TORSDOF 10
ENDMDL
MODEL 6
REMARK VINA RESULT:      -4.4      4.073      6.999
REMARK  10 active torsions:
REMARK  status: ('A' for Active; 'I' for Inactive)
REMARK    1  A    between atoms: C_2  and  N_5 
REMARK    2  A    between atoms: N_5  and  C_6 
REMARK    3  A    between atoms: C_6  and  C_7 
REMARK    4  A    between atoms: C_7  and  S_8 
REMARK    5  A    between atoms: S_8  and  C_9 
REMARK    6  A    between atoms: C_9  and  C_10 
REMARK    7  A    between atoms: C_10  and  C_11 
REMARK    8  A    between atoms: C_11  and  C_12 
REMARK    9  A    between atoms: C_11  and  N_15 
REMARK   10  A    between atoms: C_12  and  O_14 
ROOT
HETATM    1  S   UNK N   1      32.478  14.499   6.785  0.00  0.00    -0.167 SA
ENDROOT
BRANCH   1   2
HETATM    2  C   UNK N   1      30.968  15.402   6.301  0.00  0.00     0.093 C 
BRANCH   2   3
HETATM    3  C   UNK N   1      30.822  16.728   7.032  0.00  0.00     0.131 C 
BRANCH   3   4
HETATM    4  N   UNK N   1      29.726  17.492   6.494  0.00  0.00    -0.380 N 
HETATM    5  H   UNK N   1      29.672  17.640   5.522  0.00  0.00     0.160 HD
BRANCH   4   6
HETATM    6  C   UNK N   1      28.723  18.035   7.337  0.00  0.00     0.066 C 
HETATM    7  C   UNK N   1      27.921  19.223   6.913  0.00  0.00     0.088 C 
HETATM    8  N   UNK N   1      28.496  17.497   8.476  0.00  0.00    -0.389 N 
HETATM    9  H   UNK N   1      27.698  17.000   8.770  0.00  0.00     0.157 HD
ATOM     10  HN  UNK N   1      29.238  17.596   9.170  1.00  0.00     0.157 HD
ENDBRANCH   4   6
ENDBRANCH   3   4
ENDBRANCH   2   3
ENDBRANCH   1   2
BRANCH   1  11
HETATM   11  C   UNK N   1      32.583  15.399   8.358  0.00  0.00     0.076 C 
BRANCH  11  12
HETATM   12  C   UNK N   1      34.017  15.857   8.541  0.00  0.00     0.045 C 
BRANCH  12  13
HETATM   13  C   UNK N   1      34.093  17.244   9.151  0.00  0.00     0.174 C 
BRANCH  13  14
HETATM   14  C   UNK N   1      34.630  18.235   8.152  0.00  0.00     0.163 C 
HETATM   15  O   UNK N   1      35.274  19.205   8.524  0.00  0.00    -0.648 OA
BRANCH  14  16
HETATM   16  O   UNK N   1      34.392  18.061   6.840  0.00  0.00    -0.775 OA
HETATM   17  H   UNK N   1      34.755  18.620   6.181  0.00  0.00     0.167 HD
ENDBRANCH  14  16
ENDBRANCH  13  14
BRANCH  13  18
HETATM   18  N   UNK N   1      34.945  17.184  10.328  0.00  0.00    -0.418 N 
HETATM   19  H   UNK N   1      35.952  17.029  10.268  0.00  0.00     0.150 HD
HETATM   20  H   UNK N   1      34.522  17.302  11.248  0.00  0.00     0.150 HD
ENDBRANCH  13  18
ENDBRANCH  12  13
ENDBRANCH  11  12
ENDBRANCH   1  11
TORSDOF 10
ENDMDL
MODEL 7
REMARK VINA RESULT:      -4.4      5.984      9.117
REMARK  10 active torsions:
REMARK  status: ('A' for Active; 'I' for Inactive)
REMARK    1  A    between atoms: C_2  and  N_5 
REMARK    2  A    between atoms: N_5  and  C_6 
REMARK    3  A    between atoms: C_6  and  C_7 
REMARK    4  A    between atoms: C_7  and  S_8 
REMARK    5  A    between atoms: S_8  and  C_9 
REMARK    6  A    between atoms: C_9  and  C_10 
REMARK    7  A    between atoms: C_10  and  C_11 
REMARK    8  A    between atoms: C_11  and  C_12 
REMARK    9  A    between atoms: C_11  and  N_15 
REMARK   10  A    between atoms: C_12  and  O_14 
ROOT
HETATM    1  S   UNK N   1      29.422  17.380   7.700  0.00  0.00    -0.167 SA
ENDROOT
BRANCH   1   2
HETATM    2  C   UNK N   1      29.031  17.630   5.936  0.00  0.00     0.093 C 
BRANCH   2   3
HETATM    3  C   UNK N   1      27.533  17.684   5.672  0.00  0.00     0.131 C 
BRANCH   3   4
HETATM    4  N   UNK N   1      26.972  18.918   6.158  0.00  0.00    -0.380 N 
HETATM    5  H   UNK N   1      26.420  18.910   6.973  0.00  0.00     0.160 HD
BRANCH   4   6
HETATM    6  C   UNK N   1      27.200  20.146   5.484  0.00  0.00     0.066 C 
HETATM    7  C   UNK N   1      27.477  21.402   6.246  0.00  0.00     0.088 C 
HETATM    8  N   UNK N   1      27.171  20.179   4.205  0.00  0.00    -0.389 N 
HETATM    9  H   UNK N   1      27.918  20.332   3.581  0.00  0.00     0.157 HD
ATOM     10  HN  UNK N   1      26.258  20.027   3.776  1.00  0.00     0.157 HD
ENDBRANCH   4   6
ENDBRANCH   3   4
ENDBRANCH   2   3
ENDBRANCH   1   2
BRANCH   1  11
HETATM   11  C   UNK N   1      31.198  17.249   7.349  0.00  0.00     0.076 C 
BRANCH  11  12
HETATM   12  C   UNK N   1      31.949  17.957   8.462  0.00  0.00     0.045 C 
BRANCH  12  13
HETATM   13  C   UNK N   1      33.346  17.394   8.646  0.00  0.00     0.174 C 
BRANCH  13  14
HETATM   14  C   UNK N   1      34.345  18.180   7.838  0.00  0.00     0.163 C 
HETATM   15  O   UNK N   1      34.511  17.938   6.651  0.00  0.00    -0.648 OA
BRANCH  14  16
HETATM   16  O   UNK N   1      35.071  19.148   8.425  0.00  0.00    -0.775 OA
HETATM   17  H   UNK N   1      35.122  19.248   9.356  0.00  0.00     0.167 HD
ENDBRANCH  14  16
ENDBRANCH  13  14
BRANCH  13  18
HETATM   18  N   UNK N   1      33.337  15.998   8.241  0.00  0.00    -0.418 N 
HETATM   19  H   UNK N   1      34.108  15.363   8.448  0.00  0.00     0.150 HD
HETATM   20  H   UNK N   1      32.530  15.639   7.731  0.00  0.00     0.150 HD
ENDBRANCH  13  18
ENDBRANCH  12  13
ENDBRANCH  11  12
ENDBRANCH   1  11
TORSDOF 10
ENDMDL
MODEL 8
REMARK VINA RESULT:      -4.3      3.173      6.046
REMARK  10 active torsions:
REMARK  status: ('A' for Active; 'I' for Inactive)
REMARK    1  A    between atoms: C_2  and  N_5 
REMARK    2  A    between atoms: N_5  and  C_6 
REMARK    3  A    between atoms: C_6  and  C_7 
REMARK    4  A    between atoms: C_7  and  S_8 
REMARK    5  A    between atoms: S_8  and  C_9 
REMARK    6  A    between atoms: C_9  and  C_10 
REMARK    7  A    between atoms: C_10  and  C_11 
REMARK    8  A    between atoms: C_11  and  C_12 
REMARK    9  A    between atoms: C_11  and  N_15 
REMARK   10  A    between atoms: C_12  and  O_14 
ROOT
HETATM    1  S   UNK N   1      33.426  15.600   7.217  0.00  0.00    -0.167 SA
ENDROOT
BRANCH   1   2
HETATM    2  C   UNK N   1      33.709  17.395   7.058  0.00  0.00     0.093 C 
BRANCH   2   3
HETATM    3  C   UNK N   1      33.062  18.190   8.182  0.00  0.00     0.131 C 
BRANCH   3   4
HETATM    4  N   UNK N   1      31.993  17.441   8.789  0.00  0.00    -0.380 N 
HETATM    5  H   UNK N   1      32.208  16.676   9.371  0.00  0.00     0.160 HD
BRANCH   4   6
HETATM    6  C   UNK N   1      30.635  17.784   8.566  0.00  0.00     0.066 C 
HETATM    7  C   UNK N   1      29.900  18.675   9.516  0.00  0.00     0.088 C 
HETATM    8  N   UNK N   1      30.029  17.328   7.535  0.00  0.00    -0.389 N 
HETATM    9  H   UNK N   1      29.711  17.822   6.745  0.00  0.00     0.157 HD
ATOM     10  HN  UNK N   1      29.854  16.323   7.530  1.00  0.00     0.157 HD
ENDBRANCH   4   6
ENDBRANCH   3   4
ENDBRANCH   2   3
ENDBRANCH   1   2
BRANCH   1  11
HETATM   11  C   UNK N   1      34.960  15.381   8.162  0.00  0.00     0.076 C 
BRANCH  11  12
HETATM   12  C   UNK N   1      34.644  14.533   9.379  0.00  0.00     0.045 C 
BRANCH  12  13
HETATM   13  C   UNK N   1      34.657  15.351  10.657  0.00  0.00     0.174 C 
BRANCH  13  14
HETATM   14  C   UNK N   1      35.768  16.368  10.624  0.00  0.00     0.163 C 
HETATM   15  O   UNK N   1      35.522  17.549  10.423  0.00  0.00    -0.648 OA
BRANCH  14  16
HETATM   16  O   UNK N   1      37.042  15.977  10.804  0.00  0.00    -0.775 OA
HETATM   17  H   UNK N   1      37.648  16.457  11.333  0.00  0.00     0.167 HD
ENDBRANCH  14  16
ENDBRANCH  13  14
BRANCH  13  18
HETATM   18  N   UNK N   1      34.820  14.445  11.782  0.00  0.00    -0.418 N 
HETATM   19  H   UNK N   1      34.245  13.611  11.902  0.00  0.00     0.150 HD
HETATM   20  H   UNK N   1      35.538  14.649  12.478  0.00  0.00     0.150 HD
ENDBRANCH  13  18
ENDBRANCH  12  13
ENDBRANCH  11  12
ENDBRANCH   1  11
TORSDOF 10
ENDMDL
MODEL 9
REMARK VINA RESULT:      -4.3      5.159      7.485
REMARK  10 active torsions:
REMARK  status: ('A' for Active; 'I' for Inactive)
REMARK    1  A    between atoms: C_2  and  N_5 
REMARK    2  A    between atoms: N_5  and  C_6 
REMARK    3  A    between atoms: C_6  and  C_7 
REMARK    4  A    between atoms: C_7  and  S_8 
REMARK    5  A    between atoms: S_8  and  C_9 
REMARK    6  A    between atoms: C_9  and  C_10 
REMARK    7  A    between atoms: C_10  and  C_11 
REMARK    8  A    between atoms: C_11  and  C_12 
REMARK    9  A    between atoms: C_11  and  N_15 
REMARK   10  A    between atoms: C_12  and  O_14 
ROOT
HETATM    1  S   UNK N   1      29.458  17.251   6.711  0.00  0.00    -0.167 SA
ENDROOT
BRANCH   1   2
HETATM    2  C   UNK N   1      30.209  15.682   6.159  0.00  0.00     0.093 C 
BRANCH   2   3
HETATM    3  C   UNK N   1      30.339  15.599   4.645  0.00  0.00     0.131 C 
BRANCH   3   4
HETATM    4  N   UNK N   1      31.659  15.167   4.267  0.00  0.00    -0.380 N 
HETATM    5  H   UNK N   1      31.815  14.217   4.058  0.00  0.00     0.160 HD
BRANCH   4   6
HETATM    6  C   UNK N   1      32.739  16.083   4.188  0.00  0.00     0.066 C 
HETATM    7  C   UNK N   1      32.526  17.486   3.718  0.00  0.00     0.088 C 
HETATM    8  N   UNK N   1      33.914  15.705   4.528  0.00  0.00    -0.389 N 
HETATM    9  H   UNK N   1      34.448  15.992   5.304  0.00  0.00     0.157 HD
ATOM     10  HN  UNK N   1      34.354  15.017   3.916  1.00  0.00     0.157 HD
ENDBRANCH   4   6
ENDBRANCH   3   4
ENDBRANCH   2   3
ENDBRANCH   1   2
BRANCH   1  11
HETATM   11  C   UNK N   1      30.625  17.392   8.093  0.00  0.00     0.076 C 
BRANCH  11  12
HETATM   12  C   UNK N   1      32.031  17.370   7.524  0.00  0.00     0.045 C 
BRANCH  12  13
HETATM   13  C   UNK N   1      33.062  17.810   8.547  0.00  0.00     0.174 C 
BRANCH  13  14
HETATM   14  C   UNK N   1      34.315  18.291   7.864  0.00  0.00     0.163 C 
HETATM   15  O   UNK N   1      35.048  19.103   8.411  0.00  0.00    -0.648 OA
BRANCH  14  16
HETATM   16  O   UNK N   1      34.630  17.834   6.639  0.00  0.00    -0.775 OA
HETATM   17  H   UNK N   1      34.667  18.391   5.886  0.00  0.00     0.167 HD
ENDBRANCH  14  16
ENDBRANCH  13  14
BRANCH  13  18
HETATM   18  N   UNK N   1      33.350  16.686   9.423  0.00  0.00    -0.418 N 
HETATM   19  H   UNK N   1      34.238  16.589   9.915  0.00  0.00     0.150 HD
HETATM   20  H   UNK N   1      32.637  15.968   9.553  0.00  0.00     0.150 HD
ENDBRANCH  13  18
ENDBRANCH  12  13
ENDBRANCH  11  12
ENDBRANCH   1  11
TORSDOF 10
ENDMDL
