REMARK  18 active torsions:
REMARK  status: ('A' for Active; 'I' for Inactive)
REMARK    1  A    between atoms: C_2  and  C_3 
REMARK    2  A    between atoms: C_3  and  O_5 
REMARK    3  A    between atoms: C_6  and  O_5 
REMARK    4  A    between atoms: C_9  and  O_58 
REMARK    5  A    between atoms: C_16  and  O_56 
REMARK    6  A    between atoms: C_19  and  O_36 
REMARK    7  A    between atoms: C_22  and  O_23 
REMARK    8  A    between atoms: O_23  and  C_24 
REMARK    9  A    between atoms: C_24  and  C_26 
REMARK   10  A    between atoms: O_36  and  C_37 
REMARK   11  A    between atoms: C_37  and  C_39 
REMARK   12  A    between atoms: C_39  and  C_40 
REMARK   13  A    between atoms: C_39  and  O_54 
REMARK   14  A    between atoms: C_40  and  C_41 
REMARK   15  A    between atoms: C_40  and  N_46 
REMARK       I    between atoms: N_46  and  C_47 
REMARK   16  A    between atoms: C_47  and  O_49 
REMARK   17  A    between atoms: O_49  and  C_50 
REMARK   18  A    between atoms: O_58  and  C_59 
ROOT
HETATM    1  C   UNK N   1       5.965   3.902  -0.815  0.00  0.00     0.150 C 
HETATM    2  C   UNK N   1       7.153   3.043  -1.240  0.00  0.00     0.069 C 
HETATM    3  C   UNK N   1       7.465   1.918  -0.249  0.00  0.00     0.161 A 
HETATM    4  C   UNK N   1       6.250   1.309   0.442  0.00  0.00     0.125 A 
HETATM    5  C   UNK N   1       6.836   1.989   1.654  0.00  0.00     0.210 A 
HETATM    6  O   UNK N   1       7.970   2.438   0.953  0.00  0.00    -0.380 OA
HETATM    7  C   UNK N   1       4.787   1.851   0.168  0.00  0.00     0.076 C 
HETATM    8  C   UNK N   1       4.613   3.108  -0.913  0.00  0.00     0.056 C 
HETATM    9  C   UNK N   1       3.507   4.296  -0.897  0.00  0.00     0.171 C 
HETATM   10  O   UNK N   1       3.932   5.437  -0.946  0.00  0.00    -0.294 OA
HETATM   11  C   UNK N   1       1.955   4.246  -0.951  0.00  0.00     0.218 C 
HETATM   12  C   UNK N   1       1.217   3.362   0.025  0.00  0.00    -0.029 C 
HETATM   13  C   UNK N   1       0.080   2.752  -0.425  0.00  0.00    -0.048 C 
HETATM   14  C   UNK N   1      -0.214   1.276  -0.026  0.00  0.00     0.164 C 
HETATM   15  C   UNK N   1       1.020   0.523   0.624  0.00  0.00     0.078 C 
HETATM   16  C   UNK N   1       2.302   1.340   0.372  0.00  0.00     0.098 C 
HETATM   17  C   UNK N   1       3.666   0.866   0.766  0.00  0.00     0.176 C 
HETATM   18  C   UNK N   1       1.990   2.697   1.098  0.00  0.00     0.013 C 
HETATM   19  C   UNK N   1       3.131   3.547   1.674  0.00  0.00     0.023 C 
HETATM   20  C   UNK N   1       1.150   2.564   2.382  0.00  0.00     0.023 C 
HETATM   21  O   UNK N   1       2.389   1.394  -1.036  0.00  0.00    -0.386 OA
HETATM   22  C   UNK N   1      -0.660   3.320  -1.607  0.00  0.00     0.046 C 
HETATM   23  C   UNK N   1       4.524   2.499  -2.312  0.00  0.00     0.027 C 
HETATM   24  H   UNK N   1       2.450   1.361  -2.004  0.00  0.00     0.210 HD
ENDROOT
BRANCH  17  25
HETATM   25  O   UNK N   1       3.839  -0.442   0.344  0.00  0.00    -0.308 OA
BRANCH  25  26
HETATM   26  C   UNK N   1       3.990  -1.455   1.241  0.00  0.00     0.293 C 
HETATM   27  O   UNK N   1       3.836  -1.242   2.437  0.00  0.00    -0.259 OA
BRANCH  26  28
HETATM   28  C   UNK N   1       4.425  -2.795   0.792  0.00  0.00     0.039 A 
HETATM   29  C   UNK N   1       4.742  -3.781   1.740  0.00  0.00     0.017 A 
HETATM   30  C   UNK N   1       5.210  -5.032   1.331  0.00  0.00     0.001 A 
HETATM   31  C   UNK N   1       5.359  -5.311  -0.029  0.00  0.00     0.000 A 
HETATM   32  C   UNK N   1       5.040  -4.338  -0.981  0.00  0.00     0.001 A 
HETATM   33  C   UNK N   1       4.581  -3.080  -0.573  0.00  0.00     0.017 A 
ENDBRANCH  26  28
ENDBRANCH  25  26
ENDBRANCH  17  25
BRANCH  14  34
HETATM   34  O   UNK N   1      -0.399   0.633  -1.226  0.00  0.00    -0.309 OA
BRANCH  34  35
HETATM   35  C   UNK N   1      -1.109  -0.493  -1.435  0.00  0.00     0.291 C 
HETATM   36  O   UNK N   1      -1.109  -0.982  -2.552  0.00  0.00    -0.262 OA
BRANCH  35  37
HETATM   37  C   UNK N   1      -1.974  -1.121  -0.390  0.00  0.00     0.246 C 
BRANCH  37  38
HETATM   38  C   UNK N   1      -1.387  -2.030   0.701  0.00  0.00     0.182 C 
BRANCH  38  39
HETATM   39  C   UNK N   1      -0.120  -2.785   0.357  0.00  0.00     0.078 A 
HETATM   40  C   UNK N   1       0.494  -3.698   1.189  0.00  0.00     0.037 A 
HETATM   41  C   UNK N   1       1.521  -4.243   0.444  0.00  0.00     0.027 A 
HETATM   42  C   UNK N   1       1.470  -3.630  -0.796  0.00  0.00     0.142 A 
HETATM   43  O   UNK N   1       0.478  -2.772  -0.808  0.00  0.00    -0.325 OA
ENDBRANCH  38  39
BRANCH  38  44
HETATM   44  N   UNK N   1      -2.418  -3.010   0.992  0.00  0.00    -0.323 N 
HETATM   45  C   UNK N   1      -2.782  -3.953   0.079  0.00  0.00     0.362 C 
HETATM   46  O   UNK N   1      -2.220  -3.997  -1.015  0.00  0.00    -0.238 OA
HETATM   47  H   UNK N   1      -2.865  -2.992   1.869  0.00  0.00     0.165 HD
BRANCH  45  48
HETATM   48  O   UNK N   1      -3.740  -4.861   0.381  0.00  0.00    -0.294 OA
BRANCH  48  49
HETATM   49  C   UNK N   1      -3.823  -6.128  -0.181  0.00  0.00     0.061 C 
HETATM   50  C   UNK N   1      -3.830  -6.102  -1.706  0.00  0.00     0.046 C 
HETATM   51  C   UNK N   1      -5.108  -6.779   0.274  0.00  0.00     0.046 C 
HETATM   52  C   UNK N   1      -2.657  -6.973   0.304  0.00  0.00     0.046 C 
ENDBRANCH  48  49
ENDBRANCH  45  48
ENDBRANCH  38  44
ENDBRANCH  37  38
BRANCH  37  53
HETATM   53  O   UNK N   1      -2.893  -0.213   0.140  0.00  0.00    -0.383 OA
HETATM   54  H   UNK N   1      -2.666   0.655   0.509  0.00  0.00     0.210 HD
ENDBRANCH  37  53
ENDBRANCH  35  37
ENDBRANCH  34  35
ENDBRANCH  14  34
BRANCH   4  55
HETATM   55  O   UNK N   1       6.396  -0.046   0.697  0.00  0.00    -0.305 OA
BRANCH  55  56
HETATM   56  C   UNK N   1       7.008  -0.949  -0.113  0.00  0.00     0.255 C 
HETATM   57  O   UNK N   1       7.142  -0.734  -1.307  0.00  0.00    -0.266 OA
HETATM   58  C   UNK N   1       7.540  -2.212   0.474  0.00  0.00     0.126 C 
ENDBRANCH  55  56
ENDBRANCH   4  55
BRANCH  11  59
HETATM   59  O   UNK N   1       1.394   5.529  -0.947  0.00  0.00    -0.384 OA
HETATM   60  H   UNK N   1       1.969   6.310  -0.945  0.00  0.00     0.211 HD
ENDBRANCH  11  59
BRANCH   1  61
HETATM   61  O   UNK N   1       6.186   4.334   0.488  0.00  0.00    -0.315 OA
BRANCH  61  62
HETATM   62  C   UNK N   1       6.289   5.592   0.991  0.00  0.00     0.258 C 
HETATM   63  O   UNK N   1       6.734   5.733   2.118  0.00  0.00    -0.265 OA
BRANCH  62  64
HETATM   64  C   UNK N   1       5.804   6.799   0.252  0.00  0.00     0.106 C 
HETATM   65  C   UNK N   1       6.895   7.823   0.051  0.00  0.00     0.015 C 
ENDBRANCH  62  64
ENDBRANCH  61  62
ENDBRANCH   1  61
TORSDOF 18
