MODEL 1
REMARK VINA RESULT:      -6.7      0.000      0.000
REMARK  14 active torsions:
REMARK  status: ('A' for Active; 'I' for Inactive)
REMARK    1  A    between atoms: N_2  and  C_4 
REMARK    2  A    between atoms: C_4  and  C_5 
REMARK    3  A    between atoms: C_5  and  C_6 
REMARK    4  A    between atoms: C_6  and  N_7 
REMARK       I    between atoms: N_7  and  C_8 
REMARK    5  A    between atoms: C_8  and  C_10 
REMARK    6  A    between atoms: C_10  and  C_20 
REMARK    7  A    between atoms: C_11  and  C_12 
REMARK    8  A    between atoms: C_12  and  C_13 
REMARK    9  A    between atoms: C_13  and  C_14 
REMARK   10  A    between atoms: C_14  and  C_15 
REMARK   11  A    between atoms: C_15  and  C_16 
REMARK       I    between atoms: C_16  and  N_18 
REMARK   12  A    between atoms: N_18  and  O_19 
REMARK   13  A    between atoms: C_20  and  O_21 
REMARK   14  A    between atoms: O_21  and  C_22 
ROOT
HETATM    1  C   UNK N   1      26.146  23.907  -5.589  0.00  0.00     0.030 C 
HETATM    2  C   UNK N   1      27.355  23.723  -5.002  0.00  0.00    -0.012 C 
ENDROOT
BRANCH   1   3
HETATM    3  C   UNK N   1      25.801  22.952  -6.702  0.00  0.00     0.249 C 
HETATM    4  N   UNK N   1      26.424  22.930  -7.912  0.00  0.00    -0.357 N 
HETATM    5  H   UNK N   1      26.107  22.260  -8.559  0.00  0.00     0.162 HD
HETATM    6  O   UNK N   1      24.895  22.156  -6.520  0.00  0.00    -0.268 OA
BRANCH   4   7
HETATM    7  C   UNK N   1      27.498  23.783  -8.344  0.00  0.00     0.124 C 
BRANCH   7   8
HETATM    8  C   UNK N   1      28.248  23.067  -9.450  0.00  0.00     0.050 C 
BRANCH   8   9
HETATM    9  C   UNK N   1      27.815  21.618  -9.541  0.00  0.00     0.273 C 
BRANCH   9  10
HETATM   10  N   UNK N   1      27.565  21.265 -10.926  0.00  0.00     0.080 N 
HETATM   11  C   UNK N   1      28.017  22.378 -11.741  0.00  0.00     0.309 C 
HETATM   12  C   UNK N   1      26.126  21.186 -11.090  0.00  0.00     0.309 C 
ENDBRANCH   9  10
ENDBRANCH   8   9
ENDBRANCH   7   8
ENDBRANCH   4   7
ENDBRANCH   1   3
BRANCH   1  13
HETATM   13  C   UNK N   1      25.172  24.999  -5.156  0.00  0.00     0.219 C 
BRANCH  13  14
HETATM   14  O   UNK N   1      25.309  26.170  -5.871  0.00  0.00    -0.346 OA
BRANCH  14  15
HETATM   15  C   UNK N   1      25.948  27.314  -5.510  0.00  0.00     0.080 A 
HETATM   16  C   UNK N   1      25.538  27.913  -4.311  0.00  0.00     0.037 A 
HETATM   17  C   UNK N   1      26.129  29.087  -3.847  0.00  0.00     0.004 A 
HETATM   18  C   UNK N   1      27.148  29.692  -4.576  0.00  0.00     0.012 A 
HETATM   19  C   UNK N   1      27.583  29.127  -5.774  0.00  0.00    -0.023 A 
HETATM   20  C   UNK N   1      26.989  27.930  -6.261  0.00  0.00     0.007 A 
HETATM   21  C   UNK N   1      28.606  29.749  -6.493  0.00  0.00     0.012 A 
HETATM   22  C   UNK N   1      27.454  27.395  -7.471  0.00  0.00     0.015 A 
HETATM   23  C   UNK N   1      28.477  28.026  -8.182  0.00  0.00     0.001 A 
HETATM   24  C   UNK N   1      29.054  29.199  -7.695  0.00  0.00     0.001 A 
ENDBRANCH  14  15
ENDBRANCH  13  14
ENDBRANCH   1  13
BRANCH   2  25
HETATM   25  C   UNK N   1      27.931  24.520  -3.877  0.00  0.00     0.028 C 
BRANCH  25  26
HETATM   26  C   UNK N   1      29.069  25.379  -4.383  0.00  0.00     0.004 C 
BRANCH  26  27
HETATM   27  C   UNK N   1      30.346  25.075  -3.623  0.00  0.00     0.010 C 
BRANCH  27  28
HETATM   28  C   UNK N   1      30.850  23.709  -4.058  0.00  0.00     0.105 C 
BRANCH  28  29
HETATM   29  C   UNK N   1      31.265  22.877  -2.883  0.00  0.00     0.240 C 
HETATM   30  O   UNK N   1      30.723  23.030  -1.798  0.00  0.00    -0.271 OA
HETATM   31  N   UNK N   1      32.220  21.935  -3.039  0.00  0.00    -0.237 N 
HETATM   32  H   UNK N   1      32.652  21.821  -3.916  0.00  0.00     0.197 HD
BRANCH  31  33
HETATM   33  O   UNK N   1      32.584  21.152  -2.014  0.00  0.00    -0.287 OA
HETATM   34  H   UNK N   1      33.284  21.433  -1.404  0.00  0.00     0.244 HD
ENDBRANCH  31  33
ENDBRANCH  28  29
ENDBRANCH  27  28
ENDBRANCH  26  27
ENDBRANCH  25  26
ENDBRANCH   2  25
TORSDOF 14
ENDMDL
MODEL 2
REMARK VINA RESULT:      -6.6      1.890      2.513
REMARK  14 active torsions:
REMARK  status: ('A' for Active; 'I' for Inactive)
REMARK    1  A    between atoms: N_2  and  C_4 
REMARK    2  A    between atoms: C_4  and  C_5 
REMARK    3  A    between atoms: C_5  and  C_6 
REMARK    4  A    between atoms: C_6  and  N_7 
REMARK       I    between atoms: N_7  and  C_8 
REMARK    5  A    between atoms: C_8  and  C_10 
REMARK    6  A    between atoms: C_10  and  C_20 
REMARK    7  A    between atoms: C_11  and  C_12 
REMARK    8  A    between atoms: C_12  and  C_13 
REMARK    9  A    between atoms: C_13  and  C_14 
REMARK   10  A    between atoms: C_14  and  C_15 
REMARK   11  A    between atoms: C_15  and  C_16 
REMARK       I    between atoms: C_16  and  N_18 
REMARK   12  A    between atoms: N_18  and  O_19 
REMARK   13  A    between atoms: C_20  and  O_21 
REMARK   14  A    between atoms: O_21  and  C_22 
ROOT
HETATM    1  C   UNK N   1      26.800  23.825  -7.512  0.00  0.00     0.030 C 
HETATM    2  C   UNK N   1      27.153  23.454  -6.256  0.00  0.00    -0.012 C 
ENDROOT
BRANCH   1   3
HETATM    3  C   UNK N   1      25.860  22.895  -8.234  0.00  0.00     0.249 C 
HETATM    4  N   UNK N   1      26.262  21.849  -9.007  0.00  0.00    -0.357 N 
HETATM    5  H   UNK N   1      25.552  21.314  -9.430  0.00  0.00     0.162 HD
HETATM    6  O   UNK N   1      24.660  23.097  -8.139  0.00  0.00    -0.268 OA
BRANCH   4   7
HETATM    7  C   UNK N   1      27.616  21.442  -9.269  0.00  0.00     0.124 C 
BRANCH   7   8
HETATM    8  C   UNK N   1      27.990  20.381  -8.253  0.00  0.00     0.050 C 
BRANCH   8   9
HETATM    9  C   UNK N   1      29.220  20.795  -7.471  0.00  0.00     0.273 C 
BRANCH   9  10
HETATM   10  N   UNK N   1      29.980  19.619  -7.088  0.00  0.00     0.080 N 
HETATM   11  C   UNK N   1      31.359  19.856  -7.472  0.00  0.00     0.309 C 
HETATM   12  C   UNK N   1      29.501  18.522  -7.907  0.00  0.00     0.309 C 
ENDBRANCH   9  10
ENDBRANCH   8   9
ENDBRANCH   7   8
ENDBRANCH   4   7
ENDBRANCH   1   3
BRANCH   1  13
HETATM   13  C   UNK N   1      27.299  25.109  -8.168  0.00  0.00     0.219 C 
BRANCH  13  14
HETATM   14  O   UNK N   1      26.458  26.185  -7.974  0.00  0.00    -0.346 OA
BRANCH  14  15
HETATM   15  C   UNK N   1      26.367  27.004  -6.893  0.00  0.00     0.080 A 
HETATM   16  C   UNK N   1      25.345  26.726  -5.976  0.00  0.00     0.037 A 
HETATM   17  C   UNK N   1      25.165  27.501  -4.832  0.00  0.00     0.004 A 
HETATM   18  C   UNK N   1      26.007  28.580  -4.579  0.00  0.00     0.012 A 
HETATM   19  C   UNK N   1      27.035  28.889  -5.468  0.00  0.00    -0.023 A 
HETATM   20  C   UNK N   1      27.231  28.107  -6.640  0.00  0.00     0.007 A 
HETATM   21  C   UNK N   1      27.870  29.976  -5.198  0.00  0.00     0.012 A 
HETATM   22  C   UNK N   1      28.275  28.453  -7.510  0.00  0.00     0.015 A 
HETATM   23  C   UNK N   1      29.103  29.542  -7.230  0.00  0.00     0.001 A 
HETATM   24  C   UNK N   1      28.903  30.302  -6.077  0.00  0.00     0.001 A 
ENDBRANCH  14  15
ENDBRANCH  13  14
ENDBRANCH   1  13
BRANCH   2  25
HETATM   25  C   UNK N   1      28.058  24.198  -5.328  0.00  0.00     0.028 C 
BRANCH  25  26
HETATM   26  C   UNK N   1      27.388  24.368  -3.982  0.00  0.00     0.004 C 
BRANCH  26  27
HETATM   27  C   UNK N   1      28.160  23.630  -2.904  0.00  0.00     0.010 C 
BRANCH  27  28
HETATM   28  C   UNK N   1      29.642  23.879  -3.120  0.00  0.00     0.105 C 
BRANCH  28  29
HETATM   29  C   UNK N   1      30.444  22.629  -2.917  0.00  0.00     0.240 C 
HETATM   30  O   UNK N   1      31.200  22.532  -1.960  0.00  0.00    -0.271 OA
HETATM   31  N   UNK N   1      30.303  21.599  -3.778  0.00  0.00    -0.237 N 
HETATM   32  H   UNK N   1      29.694  21.688  -4.547  0.00  0.00     0.197 HD
BRANCH  31  33
HETATM   33  O   UNK N   1      30.980  20.457  -3.599  0.00  0.00    -0.287 OA
HETATM   34  H   UNK N   1      31.938  20.470  -3.449  0.00  0.00     0.244 HD
ENDBRANCH  31  33
ENDBRANCH  28  29
ENDBRANCH  27  28
ENDBRANCH  26  27
ENDBRANCH  25  26
ENDBRANCH   2  25
TORSDOF 14
ENDMDL
MODEL 3
REMARK VINA RESULT:      -6.5      1.328      2.620
REMARK  14 active torsions:
REMARK  status: ('A' for Active; 'I' for Inactive)
REMARK    1  A    between atoms: N_2  and  C_4 
REMARK    2  A    between atoms: C_4  and  C_5 
REMARK    3  A    between atoms: C_5  and  C_6 
REMARK    4  A    between atoms: C_6  and  N_7 
REMARK       I    between atoms: N_7  and  C_8 
REMARK    5  A    between atoms: C_8  and  C_10 
REMARK    6  A    between atoms: C_10  and  C_20 
REMARK    7  A    between atoms: C_11  and  C_12 
REMARK    8  A    between atoms: C_12  and  C_13 
REMARK    9  A    between atoms: C_13  and  C_14 
REMARK   10  A    between atoms: C_14  and  C_15 
REMARK   11  A    between atoms: C_15  and  C_16 
REMARK       I    between atoms: C_16  and  N_18 
REMARK   12  A    between atoms: N_18  and  O_19 
REMARK   13  A    between atoms: C_20  and  O_21 
REMARK   14  A    between atoms: O_21  and  C_22 
ROOT
HETATM    1  C   UNK N   1      25.874  23.346  -7.263  0.00  0.00     0.030 C 
HETATM    2  C   UNK N   1      26.029  23.181  -5.925  0.00  0.00    -0.012 C 
ENDROOT
BRANCH   1   3
HETATM    3  C   UNK N   1      25.156  22.237  -7.985  0.00  0.00     0.249 C 
HETATM    4  N   UNK N   1      25.771  21.140  -8.506  0.00  0.00    -0.357 N 
HETATM    5  H   UNK N   1      25.193  20.483  -8.959  0.00  0.00     0.162 HD
HETATM    6  O   UNK N   1      23.948  22.329  -8.132  0.00  0.00    -0.268 OA
BRANCH   4   7
HETATM    7  C   UNK N   1      27.176  20.838  -8.464  0.00  0.00     0.124 C 
BRANCH   7   8
HETATM    8  C   UNK N   1      27.754  21.113  -9.839  0.00  0.00     0.050 C 
BRANCH   8   9
HETATM    9  C   UNK N   1      29.144  21.707  -9.728  0.00  0.00     0.273 C 
BRANCH   9  10
HETATM   10  N   UNK N   1      29.906  21.404 -10.925  0.00  0.00     0.080 N 
HETATM   11  C   UNK N   1      29.507  20.079 -11.364  0.00  0.00     0.309 C 
HETATM   12  C   UNK N   1      31.297  21.311 -10.528  0.00  0.00     0.309 C 
ENDBRANCH   9  10
ENDBRANCH   8   9
ENDBRANCH   7   8
ENDBRANCH   4   7
ENDBRANCH   1   3
BRANCH   1  13
HETATM   13  C   UNK N   1      26.375  24.580  -8.009  0.00  0.00     0.219 C 
BRANCH  13  14
HETATM   14  O   UNK N   1      26.015  25.767  -7.406  0.00  0.00    -0.346 OA
BRANCH  14  15
HETATM   15  C   UNK N   1      26.770  26.882  -7.213  0.00  0.00     0.080 A 
HETATM   16  C   UNK N   1      27.733  27.167  -8.190  0.00  0.00     0.037 A 
HETATM   17  C   UNK N   1      28.557  28.287  -8.091  0.00  0.00     0.004 A 
HETATM   18  C   UNK N   1      28.436  29.150  -7.006  0.00  0.00     0.012 A 
HETATM   19  C   UNK N   1      27.491  28.898  -6.013  0.00  0.00    -0.023 A 
HETATM   20  C   UNK N   1      26.643  27.760  -6.100  0.00  0.00     0.007 A 
HETATM   21  C   UNK N   1      27.384  29.775  -4.931  0.00  0.00     0.012 A 
HETATM   22  C   UNK N   1      25.706  27.542  -5.079  0.00  0.00     0.015 A 
HETATM   23  C   UNK N   1      25.610  28.424  -4.002  0.00  0.00     0.001 A 
HETATM   24  C   UNK N   1      26.446  29.540  -3.926  0.00  0.00     0.001 A 
ENDBRANCH  14  15
ENDBRANCH  13  14
ENDBRANCH   1  13
BRANCH   2  25
HETATM   25  C   UNK N   1      26.691  24.131  -4.980  0.00  0.00     0.028 C 
BRANCH  25  26
HETATM   26  C   UNK N   1      28.183  23.883  -4.961  0.00  0.00     0.004 C 
BRANCH  26  27
HETATM   27  C   UNK N   1      28.689  23.772  -3.535  0.00  0.00     0.010 C 
BRANCH  27  28
HETATM   28  C   UNK N   1      30.203  23.890  -3.554  0.00  0.00     0.105 C 
BRANCH  28  29
HETATM   29  C   UNK N   1      30.838  22.973  -2.553  0.00  0.00     0.240 C 
HETATM   30  O   UNK N   1      30.424  22.937  -1.403  0.00  0.00    -0.271 OA
HETATM   31  N   UNK N   1      31.847  22.163  -2.938  0.00  0.00    -0.237 N 
HETATM   32  H   UNK N   1      32.175  22.202  -3.865  0.00  0.00     0.197 HD
BRANCH  31  33
HETATM   33  O   UNK N   1      32.408  21.307  -2.073  0.00  0.00    -0.287 OA
HETATM   34  H   UNK N   1      32.697  20.429  -2.366  0.00  0.00     0.244 HD
ENDBRANCH  31  33
ENDBRANCH  28  29
ENDBRANCH  27  28
ENDBRANCH  26  27
ENDBRANCH  25  26
ENDBRANCH   2  25
TORSDOF 14
ENDMDL
MODEL 4
REMARK VINA RESULT:      -6.5     14.746     16.810
REMARK  14 active torsions:
REMARK  status: ('A' for Active; 'I' for Inactive)
REMARK    1  A    between atoms: N_2  and  C_4 
REMARK    2  A    between atoms: C_4  and  C_5 
REMARK    3  A    between atoms: C_5  and  C_6 
REMARK    4  A    between atoms: C_6  and  N_7 
REMARK       I    between atoms: N_7  and  C_8 
REMARK    5  A    between atoms: C_8  and  C_10 
REMARK    6  A    between atoms: C_10  and  C_20 
REMARK    7  A    between atoms: C_11  and  C_12 
REMARK    8  A    between atoms: C_12  and  C_13 
REMARK    9  A    between atoms: C_13  and  C_14 
REMARK   10  A    between atoms: C_14  and  C_15 
REMARK   11  A    between atoms: C_15  and  C_16 
REMARK       I    between atoms: C_16  and  N_18 
REMARK   12  A    between atoms: N_18  and  O_19 
REMARK   13  A    between atoms: C_20  and  O_21 
REMARK   14  A    between atoms: O_21  and  C_22 
ROOT
HETATM    1  C   UNK N   1      21.845  15.693   7.250  0.00  0.00     0.030 C 
HETATM    2  C   UNK N   1      21.267  15.164   8.357  0.00  0.00    -0.012 C 
ENDROOT
BRANCH   1   3
HETATM    3  C   UNK N   1      21.106  16.834   6.601  0.00  0.00     0.249 C 
HETATM    4  N   UNK N   1      20.450  16.743   5.411  0.00  0.00    -0.357 N 
HETATM    5  H   UNK N   1      20.005  17.560   5.089  0.00  0.00     0.162 HD
HETATM    6  O   UNK N   1      21.105  17.917   7.163  0.00  0.00    -0.268 OA
BRANCH   4   7
HETATM    7  C   UNK N   1      20.338  15.578   4.577  0.00  0.00     0.124 C 
BRANCH   7   8
HETATM    8  C   UNK N   1      21.110  15.842   3.298  0.00  0.00     0.050 C 
BRANCH   8   9
HETATM    9  C   UNK N   1      20.184  16.329   2.203  0.00  0.00     0.273 C 
BRANCH   9  10
HETATM   10  N   UNK N   1      20.412  15.564   0.990  0.00  0.00     0.080 N 
HETATM   11  C   UNK N   1      19.375  14.551   0.921  0.00  0.00     0.309 C 
HETATM   12  C   UNK N   1      21.669  14.863   1.163  0.00  0.00     0.309 C 
ENDBRANCH   9  10
ENDBRANCH   8   9
ENDBRANCH   7   8
ENDBRANCH   4   7
ENDBRANCH   1   3
BRANCH   1  13
HETATM   13  C   UNK N   1      23.171  15.191   6.687  0.00  0.00     0.219 C 
BRANCH  13  14
HETATM   14  O   UNK N   1      23.619  15.920   5.605  0.00  0.00    -0.346 OA
BRANCH  14  15
HETATM   15  C   UNK N   1      24.807  16.563   5.449  0.00  0.00     0.080 A 
HETATM   16  C   UNK N   1      25.933  15.949   6.013  0.00  0.00     0.037 A 
HETATM   17  C   UNK N   1      27.200  16.522   5.908  0.00  0.00     0.004 A 
HETATM   18  C   UNK N   1      27.368  17.729   5.236  0.00  0.00     0.012 A 
HETATM   19  C   UNK N   1      26.271  18.370   4.663  0.00  0.00    -0.023 A 
HETATM   20  C   UNK N   1      24.972  17.798   4.762  0.00  0.00     0.007 A 
HETATM   21  C   UNK N   1      26.459  19.581   3.992  0.00  0.00     0.012 A 
HETATM   22  C   UNK N   1      23.895  18.477   4.173  0.00  0.00     0.015 A 
HETATM   23  C   UNK N   1      24.095  19.687   3.506  0.00  0.00     0.001 A 
HETATM   24  C   UNK N   1      25.373  20.239   3.414  0.00  0.00     0.001 A 
ENDBRANCH  14  15
ENDBRANCH  13  14
ENDBRANCH   1  13
BRANCH   2  25
HETATM   25  C   UNK N   1      21.795  14.041   9.189  0.00  0.00     0.028 C 
BRANCH  25  26
HETATM   26  C   UNK N   1      20.695  13.486  10.064  0.00  0.00     0.004 C 
BRANCH  26  27
HETATM   27  C   UNK N   1      21.241  12.423  11.000  0.00  0.00     0.010 C 
BRANCH  27  28
HETATM   28  C   UNK N   1      22.674  12.123  10.599  0.00  0.00     0.105 C 
BRANCH  28  29
HETATM   29  C   UNK N   1      23.572  12.033  11.796  0.00  0.00     0.240 C 
HETATM   30  O   UNK N   1      24.783  11.949  11.652  0.00  0.00    -0.271 OA
HETATM   31  N   UNK N   1      23.037  12.079  13.035  0.00  0.00    -0.237 N 
HETATM   32  H   UNK N   1      22.061  12.144  13.141  0.00  0.00     0.197 HD
BRANCH  31  33
HETATM   33  O   UNK N   1      23.820  12.038  14.122  0.00  0.00    -0.287 OA
HETATM   34  H   UNK N   1      24.715  11.670  14.071  0.00  0.00     0.244 HD
ENDBRANCH  31  33
ENDBRANCH  28  29
ENDBRANCH  27  28
ENDBRANCH  26  27
ENDBRANCH  25  26
ENDBRANCH   2  25
TORSDOF 14
ENDMDL
MODEL 5
REMARK VINA RESULT:      -6.4     16.739     22.499
REMARK  14 active torsions:
REMARK  status: ('A' for Active; 'I' for Inactive)
REMARK    1  A    between atoms: N_2  and  C_4 
REMARK    2  A    between atoms: C_4  and  C_5 
REMARK    3  A    between atoms: C_5  and  C_6 
REMARK    4  A    between atoms: C_6  and  N_7 
REMARK       I    between atoms: N_7  and  C_8 
REMARK    5  A    between atoms: C_8  and  C_10 
REMARK    6  A    between atoms: C_10  and  C_20 
REMARK    7  A    between atoms: C_11  and  C_12 
REMARK    8  A    between atoms: C_12  and  C_13 
REMARK    9  A    between atoms: C_13  and  C_14 
REMARK   10  A    between atoms: C_14  and  C_15 
REMARK   11  A    between atoms: C_15  and  C_16 
REMARK       I    between atoms: C_16  and  N_18 
REMARK   12  A    between atoms: N_18  and  O_19 
REMARK   13  A    between atoms: C_20  and  O_21 
REMARK   14  A    between atoms: O_21  and  C_22 
ROOT
HETATM    1  C   UNK N   1      34.856  15.372   9.700  0.00  0.00     0.030 C 
HETATM    2  C   UNK N   1      33.515  15.302   9.897  0.00  0.00    -0.012 C 
ENDROOT
BRANCH   1   3
HETATM    3  C   UNK N   1      35.643  16.082  10.770  0.00  0.00     0.249 C 
HETATM    4  N   UNK N   1      35.906  15.560  12.000  0.00  0.00    -0.357 N 
HETATM    5  H   UNK N   1      36.430  16.123  12.615  0.00  0.00     0.162 HD
HETATM    6  O   UNK N   1      36.060  17.204  10.533  0.00  0.00    -0.268 OA
BRANCH   4   7
HETATM    7  C   UNK N   1      35.500  14.272  12.493  0.00  0.00     0.124 C 
BRANCH   7   8
HETATM    8  C   UNK N   1      36.428  13.895  13.632  0.00  0.00     0.050 C 
BRANCH   8   9
HETATM    9  C   UNK N   1      35.641  13.356  14.810  0.00  0.00     0.273 C 
BRANCH   9  10
HETATM   10  N   UNK N   1      35.668  11.905  14.798  0.00  0.00     0.080 N 
HETATM   11  C   UNK N   1      34.911  11.452  15.950  0.00  0.00     0.309 C 
HETATM   12  C   UNK N   1      37.045  11.507  15.020  0.00  0.00     0.309 C 
ENDBRANCH   9  10
ENDBRANCH   8   9
ENDBRANCH   7   8
ENDBRANCH   4   7
ENDBRANCH   1   3
BRANCH   1  13
HETATM   13  C   UNK N   1      35.547  14.762   8.484  0.00  0.00     0.219 C 
BRANCH  13  14
HETATM   14  O   UNK N   1      35.590  13.384   8.514  0.00  0.00    -0.346 OA
BRANCH  14  15
HETATM   15  C   UNK N   1      36.119  12.573   9.468  0.00  0.00     0.080 A 
HETATM   16  C   UNK N   1      37.471  12.767   9.781  0.00  0.00     0.037 A 
HETATM   17  C   UNK N   1      38.111  11.991  10.746  0.00  0.00     0.004 A 
HETATM   18  C   UNK N   1      37.409  10.999  11.423  0.00  0.00     0.012 A 
HETATM   19  C   UNK N   1      36.063  10.775  11.139  0.00  0.00    -0.023 A 
HETATM   20  C   UNK N   1      35.397  11.558  10.156  0.00  0.00     0.007 A 
HETATM   21  C   UNK N   1      35.374   9.773  11.827  0.00  0.00     0.012 A 
HETATM   22  C   UNK N   1      34.042  11.299   9.898  0.00  0.00     0.015 A 
HETATM   23  C   UNK N   1      33.365  10.295  10.592  0.00  0.00     0.001 A 
HETATM   24  C   UNK N   1      34.028   9.533  11.555  0.00  0.00     0.001 A 
ENDBRANCH  14  15
ENDBRANCH  13  14
ENDBRANCH   1  13
BRANCH   2  25
HETATM   25  C   UNK N   1      32.515  14.649   8.999  0.00  0.00     0.028 C 
BRANCH  25  26
HETATM   26  C   UNK N   1      31.661  15.701   8.327  0.00  0.00     0.004 C 
BRANCH  26  27
HETATM   27  C   UNK N   1      32.083  15.889   6.882  0.00  0.00     0.010 C 
BRANCH  27  28
HETATM   28  C   UNK N   1      32.313  17.371   6.640  0.00  0.00     0.105 C 
BRANCH  28  29
HETATM   29  C   UNK N   1      33.705  17.779   7.014  0.00  0.00     0.240 C 
HETATM   30  O   UNK N   1      34.656  17.415   6.336  0.00  0.00    -0.271 OA
HETATM   31  N   UNK N   1      33.901  18.578   8.085  0.00  0.00    -0.237 N 
HETATM   32  H   UNK N   1      33.130  18.863   8.626  0.00  0.00     0.197 HD
BRANCH  31  33
HETATM   33  O   UNK N   1      35.132  18.987   8.420  0.00  0.00    -0.287 OA
HETATM   34  H   UNK N   1      35.262  19.607   9.154  0.00  0.00     0.244 HD
ENDBRANCH  31  33
ENDBRANCH  28  29
ENDBRANCH  27  28
ENDBRANCH  26  27
ENDBRANCH  25  26
ENDBRANCH   2  25
TORSDOF 14
ENDMDL
MODEL 6
REMARK VINA RESULT:      -6.4     13.553     17.193
REMARK  14 active torsions:
REMARK  status: ('A' for Active; 'I' for Inactive)
REMARK    1  A    between atoms: N_2  and  C_4 
REMARK    2  A    between atoms: C_4  and  C_5 
REMARK    3  A    between atoms: C_5  and  C_6 
REMARK    4  A    between atoms: C_6  and  N_7 
REMARK       I    between atoms: N_7  and  C_8 
REMARK    5  A    between atoms: C_8  and  C_10 
REMARK    6  A    between atoms: C_10  and  C_20 
REMARK    7  A    between atoms: C_11  and  C_12 
REMARK    8  A    between atoms: C_12  and  C_13 
REMARK    9  A    between atoms: C_13  and  C_14 
REMARK   10  A    between atoms: C_14  and  C_15 
REMARK   11  A    between atoms: C_15  and  C_16 
REMARK       I    between atoms: C_16  and  N_18 
REMARK   12  A    between atoms: N_18  and  O_19 
REMARK   13  A    between atoms: C_20  and  O_21 
REMARK   14  A    between atoms: O_21  and  C_22 
ROOT
HETATM    1  C   UNK N   1      33.729  16.924   7.470  0.00  0.00     0.030 C 
HETATM    2  C   UNK N   1      34.159  17.184   6.209  0.00  0.00    -0.012 C 
ENDROOT
BRANCH   1   3
HETATM    3  C   UNK N   1      34.350  17.754   8.562  0.00  0.00     0.249 C 
HETATM    4  N   UNK N   1      34.696  17.271   9.788  0.00  0.00    -0.357 N 
HETATM    5  H   UNK N   1      35.093  17.913  10.419  0.00  0.00     0.162 HD
HETATM    6  O   UNK N   1      34.544  18.940   8.350  0.00  0.00    -0.268 OA
BRANCH   4   7
HETATM    7  C   UNK N   1      34.542  15.920  10.255  0.00  0.00     0.124 C 
BRANCH   7   8
HETATM    8  C   UNK N   1      35.889  15.448  10.770  0.00  0.00     0.050 C 
BRANCH   8   9
HETATM    9  C   UNK N   1      36.628  14.668   9.702  0.00  0.00     0.273 C 
BRANCH   9  10
HETATM   10  N   UNK N   1      35.678  13.971   8.855  0.00  0.00     0.080 N 
HETATM   11  C   UNK N   1      35.763  12.560   9.184  0.00  0.00     0.309 C 
HETATM   12  C   UNK N   1      36.148  14.110   7.490  0.00  0.00     0.309 C 
ENDBRANCH   9  10
ENDBRANCH   8   9
ENDBRANCH   7   8
ENDBRANCH   4   7
ENDBRANCH   1   3
BRANCH   1  13
HETATM   13  C   UNK N   1      32.669  15.872   7.783  0.00  0.00     0.219 C 
BRANCH  13  14
HETATM   14  O   UNK N   1      31.441  16.148   7.219  0.00  0.00    -0.346 OA
BRANCH  14  15
HETATM   15  C   UNK N   1      30.463  16.972   7.680  0.00  0.00     0.080 A 
HETATM   16  C   UNK N   1      30.372  17.126   9.070  0.00  0.00     0.037 A 
HETATM   17  C   UNK N   1      29.407  17.951   9.646  0.00  0.00     0.004 A 
HETATM   18  C   UNK N   1      28.507  18.642   8.842  0.00  0.00     0.012 A 
HETATM   19  C   UNK N   1      28.566  18.514   7.455  0.00  0.00    -0.023 A 
HETATM   20  C   UNK N   1      29.544  17.676   6.852  0.00  0.00     0.007 A 
HETATM   21  C   UNK N   1      27.654  19.216   6.663  0.00  0.00     0.012 A 
HETATM   22  C   UNK N   1      29.568  17.574   5.453  0.00  0.00     0.015 A 
HETATM   23  C   UNK N   1      28.651  18.279   4.672  0.00  0.00     0.001 A 
HETATM   24  C   UNK N   1      27.696  19.099   5.274  0.00  0.00     0.001 A 
ENDBRANCH  14  15
ENDBRANCH  13  14
ENDBRANCH   1  13
BRANCH   2  25
HETATM   25  C   UNK N   1      33.699  16.515   4.955  0.00  0.00     0.028 C 
BRANCH  25  26
HETATM   26  C   UNK N   1      32.838  17.464   4.151  0.00  0.00     0.004 C 
BRANCH  26  27
HETATM   27  C   UNK N   1      32.274  16.767   2.927  0.00  0.00     0.010 C 
BRANCH  27  28
HETATM   28  C   UNK N   1      32.304  15.268   3.172  0.00  0.00     0.105 C 
BRANCH  28  29
HETATM   29  C   UNK N   1      30.977  14.764   3.652  0.00  0.00     0.240 C 
HETATM   30  O   UNK N   1      30.002  14.802   2.915  0.00  0.00    -0.271 OA
HETATM   31  N   UNK N   1      30.872  14.237   4.891  0.00  0.00    -0.237 N 
HETATM   32  H   UNK N   1      31.662  14.213   5.477  0.00  0.00     0.197 HD
BRANCH  31  33
HETATM   33  O   UNK N   1      29.705  13.745   5.330  0.00  0.00    -0.287 OA
HETATM   34  H   UNK N   1      29.293  14.100   6.134  0.00  0.00     0.244 HD
ENDBRANCH  31  33
ENDBRANCH  28  29
ENDBRANCH  27  28
ENDBRANCH  26  27
ENDBRANCH  25  26
ENDBRANCH   2  25
TORSDOF 14
ENDMDL
MODEL 7
REMARK VINA RESULT:      -6.4      3.354      5.026
REMARK  14 active torsions:
REMARK  status: ('A' for Active; 'I' for Inactive)
REMARK    1  A    between atoms: N_2  and  C_4 
REMARK    2  A    between atoms: C_4  and  C_5 
REMARK    3  A    between atoms: C_5  and  C_6 
REMARK    4  A    between atoms: C_6  and  N_7 
REMARK       I    between atoms: N_7  and  C_8 
REMARK    5  A    between atoms: C_8  and  C_10 
REMARK    6  A    between atoms: C_10  and  C_20 
REMARK    7  A    between atoms: C_11  and  C_12 
REMARK    8  A    between atoms: C_12  and  C_13 
REMARK    9  A    between atoms: C_13  and  C_14 
REMARK   10  A    between atoms: C_14  and  C_15 
REMARK   11  A    between atoms: C_15  and  C_16 
REMARK       I    between atoms: C_16  and  N_18 
REMARK   12  A    between atoms: N_18  and  O_19 
REMARK   13  A    between atoms: C_20  and  O_21 
REMARK   14  A    between atoms: O_21  and  C_22 
ROOT
HETATM    1  C   UNK N   1      26.315  25.552  -4.122  0.00  0.00     0.030 C 
HETATM    2  C   UNK N   1      26.358  26.738  -3.464  0.00  0.00    -0.012 C 
ENDROOT
BRANCH   1   3
HETATM    3  C   UNK N   1      27.272  24.495  -3.637  0.00  0.00     0.249 C 
HETATM    4  N   UNK N   1      28.473  24.225  -4.220  0.00  0.00    -0.357 N 
HETATM    5  H   UNK N   1      29.010  23.507  -3.812  0.00  0.00     0.162 HD
HETATM    6  O   UNK N   1      26.950  23.822  -2.672  0.00  0.00    -0.268 OA
BRANCH   4   7
HETATM    7  C   UNK N   1      29.040  24.879  -5.368  0.00  0.00     0.124 C 
BRANCH   7   8
HETATM    8  C   UNK N   1      28.950  23.922  -6.542  0.00  0.00     0.050 C 
BRANCH   8   9
HETATM    9  C   UNK N   1      29.084  22.487  -6.076  0.00  0.00     0.273 C 
BRANCH   9  10
HETATM   10  N   UNK N   1      29.977  21.763  -6.961  0.00  0.00     0.080 N 
HETATM   11  C   UNK N   1      30.307  20.510  -6.308  0.00  0.00     0.309 C 
HETATM   12  C   UNK N   1      31.207  22.528  -7.039  0.00  0.00     0.309 C 
ENDBRANCH   9  10
ENDBRANCH   8   9
ENDBRANCH   7   8
ENDBRANCH   4   7
ENDBRANCH   1   3
BRANCH   1  13
HETATM   13  C   UNK N   1      25.353  25.278  -5.274  0.00  0.00     0.219 C 
BRANCH  13  14
HETATM   14  O   UNK N   1      25.397  26.237  -6.264  0.00  0.00    -0.346 OA
BRANCH  14  15
HETATM   15  C   UNK N   1      26.179  26.272  -7.376  0.00  0.00     0.080 A 
HETATM   16  C   UNK N   1      25.934  25.295  -8.349  0.00  0.00     0.037 A 
HETATM   17  C   UNK N   1      26.676  25.243  -9.528  0.00  0.00     0.004 A 
HETATM   18  C   UNK N   1      27.686  26.172  -9.760  0.00  0.00     0.012 A 
HETATM   19  C   UNK N   1      27.960  27.158  -8.814  0.00  0.00    -0.023 A 
HETATM   20  C   UNK N   1      27.212  27.224  -7.607  0.00  0.00     0.007 A 
HETATM   21  C   UNK N   1      28.978  28.081  -9.064  0.00  0.00     0.012 A 
HETATM   22  C   UNK N   1      27.522  28.231  -6.681  0.00  0.00     0.015 A 
HETATM   23  C   UNK N   1      28.542  29.148  -6.940  0.00  0.00     0.001 A 
HETATM   24  C   UNK N   1      29.269  29.075  -8.129  0.00  0.00     0.001 A 
ENDBRANCH  14  15
ENDBRANCH  13  14
ENDBRANCH   1  13
BRANCH   2  25
HETATM   25  C   UNK N   1      25.514  27.940  -3.737  0.00  0.00     0.028 C 
BRANCH  25  26
HETATM   26  C   UNK N   1      26.317  29.200  -3.501  0.00  0.00     0.004 C 
BRANCH  26  27
HETATM   27  C   UNK N   1      27.585  28.888  -2.728  0.00  0.00     0.010 C 
BRANCH  27  28
HETATM   28  C   UNK N   1      28.182  30.197  -2.241  0.00  0.00     0.105 C 
BRANCH  28  29
HETATM   29  C   UNK N   1      28.779  30.053  -0.874  0.00  0.00     0.240 C 
HETATM   30  O   UNK N   1      29.991  30.100  -0.723  0.00  0.00    -0.271 OA
HETATM   31  N   UNK N   1      27.967  29.904   0.195  0.00  0.00    -0.237 N 
HETATM   32  H   UNK N   1      26.993  29.864   0.063  0.00  0.00     0.197 HD
BRANCH  31  33
HETATM   33  O   UNK N   1      28.472  29.810   1.433  0.00  0.00    -0.287 OA
HETATM   34  H   UNK N   1      27.986  30.168   2.192  0.00  0.00     0.244 HD
ENDBRANCH  31  33
ENDBRANCH  28  29
ENDBRANCH  27  28
ENDBRANCH  26  27
ENDBRANCH  25  26
ENDBRANCH   2  25
TORSDOF 14
ENDMDL
MODEL 8
REMARK VINA RESULT:      -6.4      2.592      5.215
REMARK  14 active torsions:
REMARK  status: ('A' for Active; 'I' for Inactive)
REMARK    1  A    between atoms: N_2  and  C_4 
REMARK    2  A    between atoms: C_4  and  C_5 
REMARK    3  A    between atoms: C_5  and  C_6 
REMARK    4  A    between atoms: C_6  and  N_7 
REMARK       I    between atoms: N_7  and  C_8 
REMARK    5  A    between atoms: C_8  and  C_10 
REMARK    6  A    between atoms: C_10  and  C_20 
REMARK    7  A    between atoms: C_11  and  C_12 
REMARK    8  A    between atoms: C_12  and  C_13 
REMARK    9  A    between atoms: C_13  and  C_14 
REMARK   10  A    between atoms: C_14  and  C_15 
REMARK   11  A    between atoms: C_15  and  C_16 
REMARK       I    between atoms: C_16  and  N_18 
REMARK   12  A    between atoms: N_18  and  O_19 
REMARK   13  A    between atoms: C_20  and  O_21 
REMARK   14  A    between atoms: O_21  and  C_22 
ROOT
HETATM    1  C   UNK N   1      27.318  23.976  -5.748  0.00  0.00     0.030 C 
HETATM    2  C   UNK N   1      28.089  22.867  -5.882  0.00  0.00    -0.012 C 
ENDROOT
BRANCH   1   3
HETATM    3  C   UNK N   1      27.180  24.518  -4.350  0.00  0.00     0.249 C 
HETATM    4  N   UNK N   1      28.128  25.267  -3.722  0.00  0.00    -0.357 N 
HETATM    5  H   UNK N   1      27.922  25.562  -2.806  0.00  0.00     0.162 HD
HETATM    6  O   UNK N   1      26.163  24.258  -3.727  0.00  0.00    -0.268 OA
BRANCH   4   7
HETATM    7  C   UNK N   1      29.398  25.675  -4.259  0.00  0.00     0.124 C 
BRANCH   7   8
HETATM    8  C   UNK N   1      29.667  27.093  -3.795  0.00  0.00     0.050 C 
BRANCH   8   9
HETATM    9  C   UNK N   1      31.059  27.210  -3.206  0.00  0.00     0.273 C 
BRANCH   9  10
HETATM   10  N   UNK N   1      31.392  28.609  -3.007  0.00  0.00     0.080 N 
HETATM   11  C   UNK N   1      30.316  29.201  -2.235  0.00  0.00     0.309 C 
HETATM   12  C   UNK N   1      31.366  29.240  -4.312  0.00  0.00     0.309 C 
ENDBRANCH   9  10
ENDBRANCH   8   9
ENDBRANCH   7   8
ENDBRANCH   4   7
ENDBRANCH   1   3
BRANCH   1  13
HETATM   13  C   UNK N   1      26.637  24.658  -6.930  0.00  0.00     0.219 C 
BRANCH  13  14
HETATM   14  O   UNK N   1      26.258  25.958  -6.668  0.00  0.00    -0.346 OA
BRANCH  14  15
HETATM   15  C   UNK N   1      27.001  27.093  -6.761  0.00  0.00     0.080 A 
HETATM   16  C   UNK N   1      27.852  27.199  -7.870  0.00  0.00     0.037 A 
HETATM   17  C   UNK N   1      28.655  28.322  -8.063  0.00  0.00     0.004 A 
HETATM   18  C   UNK N   1      28.625  29.368  -7.147  0.00  0.00     0.012 A 
HETATM   19  C   UNK N   1      27.792  29.299  -6.031  0.00  0.00    -0.023 A 
HETATM   20  C   UNK N   1      26.968  28.160  -5.820  0.00  0.00     0.007 A 
HETATM   21  C   UNK N   1      27.777  30.359  -5.121  0.00  0.00     0.012 A 
HETATM   22  C   UNK N   1      26.146  28.129  -4.684  0.00  0.00     0.015 A 
HETATM   23  C   UNK N   1      26.139  29.193  -3.781  0.00  0.00     0.001 A 
HETATM   24  C   UNK N   1      26.952  30.307  -3.998  0.00  0.00     0.001 A 
ENDBRANCH  14  15
ENDBRANCH  13  14
ENDBRANCH   1  13
BRANCH   2  25
HETATM   25  C   UNK N   1      28.395  22.142  -7.152  0.00  0.00     0.028 C 
BRANCH  25  26
HETATM   26  C   UNK N   1      29.611  21.263  -6.963  0.00  0.00     0.004 C 
BRANCH  26  27
HETATM   27  C   UNK N   1      30.092  21.317  -5.525  0.00  0.00     0.010 C 
BRANCH  27  28
HETATM   28  C   UNK N   1      31.122  20.219  -5.323  0.00  0.00     0.105 C 
BRANCH  28  29
HETATM   29  C   UNK N   1      32.134  20.599  -4.285  0.00  0.00     0.240 C 
HETATM   30  O   UNK N   1      33.320  20.659  -4.574  0.00  0.00    -0.271 OA
HETATM   31  N   UNK N   1      31.723  20.906  -3.036  0.00  0.00    -0.237 N 
HETATM   32  H   UNK N   1      30.766  20.852  -2.812  0.00  0.00     0.197 HD
BRANCH  31  33
HETATM   33  O   UNK N   1      32.602  21.285  -2.098  0.00  0.00    -0.287 OA
HETATM   34  H   UNK N   1      33.554  21.290  -2.288  0.00  0.00     0.244 HD
ENDBRANCH  31  33
ENDBRANCH  28  29
ENDBRANCH  27  28
ENDBRANCH  26  27
ENDBRANCH  25  26
ENDBRANCH   2  25
TORSDOF 14
ENDMDL
MODEL 9
REMARK VINA RESULT:      -6.3     11.775     16.135
REMARK  14 active torsions:
REMARK  status: ('A' for Active; 'I' for Inactive)
REMARK    1  A    between atoms: N_2  and  C_4 
REMARK    2  A    between atoms: C_4  and  C_5 
REMARK    3  A    between atoms: C_5  and  C_6 
REMARK    4  A    between atoms: C_6  and  N_7 
REMARK       I    between atoms: N_7  and  C_8 
REMARK    5  A    between atoms: C_8  and  C_10 
REMARK    6  A    between atoms: C_10  and  C_20 
REMARK    7  A    between atoms: C_11  and  C_12 
REMARK    8  A    between atoms: C_12  and  C_13 
REMARK    9  A    between atoms: C_13  and  C_14 
REMARK   10  A    between atoms: C_14  and  C_15 
REMARK   11  A    between atoms: C_15  and  C_16 
REMARK       I    between atoms: C_16  and  N_18 
REMARK   12  A    between atoms: N_18  and  O_19 
REMARK   13  A    between atoms: C_20  and  O_21 
REMARK   14  A    between atoms: O_21  and  C_22 
ROOT
HETATM    1  C   UNK N   1      28.862  17.618   7.031  0.00  0.00     0.030 C 
HETATM    2  C   UNK N   1      28.369  18.794   6.567  0.00  0.00    -0.012 C 
ENDROOT
BRANCH   1   3
HETATM    3  C   UNK N   1      29.203  17.579   8.498  0.00  0.00     0.249 C 
HETATM    4  N   UNK N   1      30.441  17.296   8.988  0.00  0.00    -0.357 N 
HETATM    5  H   UNK N   1      30.538  17.299   9.968  0.00  0.00     0.162 HD
HETATM    6  O   UNK N   1      28.313  17.796   9.304  0.00  0.00    -0.268 OA
BRANCH   4   7
HETATM    7  C   UNK N   1      31.622  16.996   8.225  0.00  0.00     0.124 C 
BRANCH   7   8
HETATM    8  C   UNK N   1      32.603  18.137   8.414  0.00  0.00     0.050 C 
BRANCH   8   9
HETATM    9  C   UNK N   1      34.030  17.644   8.289  0.00  0.00     0.273 C 
BRANCH   9  10
HETATM   10  N   UNK N   1      34.197  16.421   9.052  0.00  0.00     0.080 N 
HETATM   11  C   UNK N   1      35.077  16.727  10.165  0.00  0.00     0.309 C 
HETATM   12  C   UNK N   1      34.909  15.487   8.202  0.00  0.00     0.309 C 
ENDBRANCH   9  10
ENDBRANCH   8   9
ENDBRANCH   7   8
ENDBRANCH   4   7
ENDBRANCH   1   3
BRANCH   1  13
HETATM   13  C   UNK N   1      29.053  16.392   6.143  0.00  0.00     0.219 C 
BRANCH  13  14
HETATM   14  O   UNK N   1      27.885  15.697   5.911  0.00  0.00    -0.346 OA
BRANCH  14  15
HETATM   15  C   UNK N   1      27.154  15.627   4.766  0.00  0.00     0.080 A 
HETATM   16  C   UNK N   1      27.870  15.497   3.569  0.00  0.00     0.037 A 
HETATM   17  C   UNK N   1      27.218  15.413   2.340  0.00  0.00     0.004 A 
HETATM   18  C   UNK N   1      25.828  15.459   2.281  0.00  0.00     0.012 A 
HETATM   19  C   UNK N   1      25.082  15.589   3.451  0.00  0.00    -0.023 A 
HETATM   20  C   UNK N   1      25.733  15.676   4.712  0.00  0.00     0.007 A 
HETATM   21  C   UNK N   1      23.688  15.634   3.372  0.00  0.00     0.012 A 
HETATM   22  C   UNK N   1      24.944  15.807   5.865  0.00  0.00     0.015 A 
HETATM   23  C   UNK N   1      23.552  15.853   5.774  0.00  0.00     0.001 A 
HETATM   24  C   UNK N   1      22.923  15.765   4.531  0.00  0.00     0.001 A 
ENDBRANCH  14  15
ENDBRANCH  13  14
ENDBRANCH   1  13
BRANCH   2  25
HETATM   25  C   UNK N   1      27.946  19.092   5.166  0.00  0.00     0.028 C 
BRANCH  25  26
HETATM   26  C   UNK N   1      26.454  19.336   5.118  0.00  0.00     0.004 C 
BRANCH  26  27
HETATM   27  C   UNK N   1      25.941  19.239   3.693  0.00  0.00     0.010 C 
BRANCH  27  28
HETATM   28  C   UNK N   1      24.425  19.168   3.734  0.00  0.00     0.105 C 
BRANCH  28  29
HETATM   29  C   UNK N   1      23.801  20.338   3.035  0.00  0.00     0.240 C 
HETATM   30  O   UNK N   1      24.497  21.116   2.398  0.00  0.00    -0.271 OA
HETATM   31  N   UNK N   1      22.463  20.509   3.086  0.00  0.00    -0.237 N 
HETATM   32  H   UNK N   1      21.912  19.879   3.604  0.00  0.00     0.197 HD
BRANCH  31  33
HETATM   33  O   UNK N   1      21.876  21.526   2.440  0.00  0.00    -0.287 OA
HETATM   34  H   UNK N   1      21.241  21.355   1.727  0.00  0.00     0.244 HD
ENDBRANCH  31  33
ENDBRANCH  28  29
ENDBRANCH  27  28
ENDBRANCH  26  27
ENDBRANCH  25  26
ENDBRANCH   2  25
TORSDOF 14
ENDMDL
